MODEL 1
REMARK VINA RESULT:      -9.1      0.000      0.000
REMARK  Name = 
REMARK  8 active torsions:
REMARK  status: ('A' for Active; 'I' for Inactive)
REMARK    1  A    between atoms: C_1  and  N_2
REMARK    2  A    between atoms: N_5  and  C_6
REMARK    3  A    between atoms: C_6  and  C_7
REMARK    4  A    between atoms: C_7  and  N_8
REMARK    5  A    between atoms: N_8  and  C_9
REMARK    6  A    between atoms: C_9  and  C_10
REMARK    7  A    between atoms: N_12  and  C_13
REMARK    8  A    between atoms: C_22  and  C_23
REMARK                            x       y       z     vdW  Elec       q    Type
REMARK                         _______ _______ _______ _____ _____    ______ ____
ROOT
ATOM      1  C   UNL     1       6.445   5.746  17.084  0.00  0.00    +0.000 A 
ATOM      2  C   UNL     1       5.604   5.619  18.170  0.00  0.00    +0.000 A 
ATOM      3  N   UNL     1       4.693   4.645  17.877  0.00  0.00    +0.000 N 
ATOM      4  N   UNL     1       4.891   4.129  16.642  0.00  0.00    +0.000 NA
ATOM      5  C   UNL     1       5.908   4.836  16.117  0.00  0.00    +0.000 A 
ENDROOT
BRANCH   3   6
ATOM      6  C   UNL     1       3.678   4.145  18.724  0.00  0.00    +0.000 A 
ATOM      7  C   UNL     1       4.000   3.182  19.692  0.00  0.00    +0.000 A 
ATOM      8  C   UNL     1       3.013   2.733  20.572  0.00  0.00    +0.000 A 
ATOM      9  C   UNL     1       1.711   3.213  20.453  0.00  0.00    +0.000 A 
ATOM     10  F   UNL     1       0.767   2.768  21.290  0.00  0.00    +0.000 F 
ATOM     11  C   UNL     1       1.375   4.142  19.479  0.00  0.00    +0.000 A 
ATOM     12  C   UNL     1       2.366   4.616  18.626  0.00  0.00    +0.000 A 
ATOM     13  F   UNL     1       2.001   5.482  17.669  0.00  0.00    +0.000 F 
ENDBRANCH   3   6
BRANCH   5  14
ATOM     14  C   UNL     1       6.315   4.600  14.723  0.00  0.00    +0.000 A 
ATOM     15  C   UNL     1       7.419   5.289  14.190  0.00  0.00    +0.000 A 
ATOM     16  C   UNL     1       7.810   5.106  12.860  0.00  0.00    +0.000 A 
ATOM     17  C   UNL     1       7.108   4.223  12.044  0.00  0.00    +0.000 A 
ATOM     18  C   UNL     1       6.021   3.527  12.566  0.00  0.00    +0.000 A 
ATOM     19 CL   UNL     1       5.150   2.427  11.566  0.00  0.00    +0.000 Cl
ATOM     20  C   UNL     1       5.620   3.717  13.889  0.00  0.00    +0.000 A 
ENDBRANCH   5  14
BRANCH   1  21
ATOM     21  C   UNL     1       7.622   6.648  16.944  0.00  0.00    +0.000 C 
BRANCH  21  22
ATOM     22  N   UNL     1       7.290   8.005  17.380  0.00  0.00    +0.000 NA
ATOM     23  H   UNL     1       7.315   8.600  16.546  0.00  0.00    +0.000 HD
BRANCH  22  24
ATOM     24  C   UNL     1       8.316   8.523  18.292  0.00  0.00    +0.000 C 
BRANCH  24  25
ATOM     25  C   UNL     1       8.503  10.055  18.187  0.00  0.00    +0.000 C 
BRANCH  25  30
ATOM     26  C   UNL     1       8.815  14.702  19.020  0.00  0.00    +0.000 C 
ATOM     27  N   UNL     1       9.578  13.459  19.073  0.00  0.00    +0.000 NA
ATOM     28  C   UNL     1       9.722  12.872  17.728  0.00  0.00    +0.000 C 
ATOM     29  C   UNL     1      10.440  11.504  17.761  0.00  0.00    +0.000 C 
ATOM     30  N   UNL     1       9.825  10.508  18.671  0.00  0.00    +0.000 NA
ATOM     31  C   UNL     1       9.707  11.138  20.006  0.00  0.00    +0.000 C 
ATOM     32  C   UNL     1       8.966  12.497  20.003  0.00  0.00    +0.000 C 
ENDBRANCH  25  30
ENDBRANCH  24  25
ENDBRANCH  22  24
ENDBRANCH  21  22
ENDBRANCH   1  21
TORSDOF 7
ENDMDL
MODEL 2
REMARK VINA RESULT:      -8.7      0.789      1.248
REMARK  Name = 
REMARK  8 active torsions:
REMARK  status: ('A' for Active; 'I' for Inactive)
REMARK    1  A    between atoms: C_1  and  N_2
REMARK    2  A    between atoms: N_5  and  C_6
REMARK    3  A    between atoms: C_6  and  C_7
REMARK    4  A    between atoms: C_7  and  N_8
REMARK    5  A    between atoms: N_8  and  C_9
REMARK    6  A    between atoms: C_9  and  C_10
REMARK    7  A    between atoms: N_12  and  C_13
REMARK    8  A    between atoms: C_22  and  C_23
REMARK                            x       y       z     vdW  Elec       q    Type
REMARK                         _______ _______ _______ _____ _____    ______ ____
ROOT
ATOM      1  C   UNL     1       6.361   6.021  16.929  0.00  0.00    +0.000 A 
ATOM      2  C   UNL     1       5.539   5.884  18.028  0.00  0.00    +0.000 A 
ATOM      3  N   UNL     1       4.733   4.804  17.810  0.00  0.00    +0.000 N 
ATOM      4  N   UNL     1       4.980   4.229  16.611  0.00  0.00    +0.000 NA
ATOM      5  C   UNL     1       5.920   4.997  16.031  0.00  0.00    +0.000 A 
ENDROOT
BRANCH   3   6
ATOM      6  C   UNL     1       3.775   4.264  18.697  0.00  0.00    +0.000 A 
ATOM      7  C   UNL     1       4.166   3.281  19.618  0.00  0.00    +0.000 A 
ATOM      8  C   UNL     1       3.238   2.790  20.538  0.00  0.00    +0.000 A 
ATOM      9  C   UNL     1       1.923   3.249  20.505  0.00  0.00    +0.000 A 
ATOM     10  F   UNL     1       1.035   2.763  21.381  0.00  0.00    +0.000 F 
ATOM     11  C   UNL     1       1.518   4.198  19.578  0.00  0.00    +0.000 A 
ATOM     12  C   UNL     1       2.451   4.713  18.685  0.00  0.00    +0.000 A 
ATOM     13  F   UNL     1       2.019   5.597  17.775  0.00  0.00    +0.000 F 
ENDBRANCH   3   6
BRANCH   5  14
ATOM     14  C   UNL     1       6.347   4.709  14.653  0.00  0.00    +0.000 A 
ATOM     15  C   UNL     1       7.514   5.305  14.143  0.00  0.00    +0.000 A 
ATOM     16  C   UNL     1       7.927   5.071  12.827  0.00  0.00    +0.000 A 
ATOM     17  C   UNL     1       7.183   4.230  12.004  0.00  0.00    +0.000 A 
ATOM     18  C   UNL     1       6.033   3.626  12.504  0.00  0.00    +0.000 A 
ATOM     19 CL   UNL     1       5.111   2.578  11.495  0.00  0.00    +0.000 Cl
ATOM     20  C   UNL     1       5.611   3.866  13.812  0.00  0.00    +0.000 A 
ENDBRANCH   5  14
BRANCH   1  21
ATOM     21  C   UNL     1       7.440   7.027  16.719  0.00  0.00    +0.000 C 
BRANCH  21  22
ATOM     22  N   UNL     1       7.842   7.630  17.990  0.00  0.00    +0.000 NA
ATOM     23  H   UNL     1       7.138   7.358  18.685  0.00  0.00    +0.000 HD
BRANCH  22  24
ATOM     24  C   UNL     1       7.801   9.094  17.907  0.00  0.00    +0.000 C 
BRANCH  24  25
ATOM     25  C   UNL     1       9.130   9.763  18.332  0.00  0.00    +0.000 C 
BRANCH  25  30
ATOM     26  C   UNL     1      12.332  13.174  17.632  0.00  0.00    +0.000 C 
ATOM     27  N   UNL     1      11.131  12.848  18.394  0.00  0.00    +0.000 NA
ATOM     28  C   UNL     1      11.368  11.694  19.280  0.00  0.00    +0.000 C 
ATOM     29  C   UNL     1      10.087  11.259  20.029  0.00  0.00    +0.000 C 
ATOM     30  N   UNL     1       8.926  10.978  19.150  0.00  0.00    +0.000 NA
ATOM     31  C   UNL     1       8.725  12.164  18.286  0.00  0.00    +0.000 C 
ATOM     32  C   UNL     1       9.986  12.601  17.503  0.00  0.00    +0.000 C 
ENDBRANCH  25  30
ENDBRANCH  24  25
ENDBRANCH  22  24
ENDBRANCH  21  22
ENDBRANCH   1  21
TORSDOF 7
ENDMDL
MODEL 3
REMARK VINA RESULT:      -8.6      1.014      1.285
REMARK  Name = 
REMARK  8 active torsions:
REMARK  status: ('A' for Active; 'I' for Inactive)
REMARK    1  A    between atoms: C_1  and  N_2
REMARK    2  A    between atoms: N_5  and  C_6
REMARK    3  A    between atoms: C_6  and  C_7
REMARK    4  A    between atoms: C_7  and  N_8
REMARK    5  A    between atoms: N_8  and  C_9
REMARK    6  A    between atoms: C_9  and  C_10
REMARK    7  A    between atoms: N_12  and  C_13
REMARK    8  A    between atoms: C_22  and  C_23
REMARK                            x       y       z     vdW  Elec       q    Type
REMARK                         _______ _______ _______ _____ _____    ______ ____
ROOT
ATOM      1  C   UNL     1       6.417   5.732  17.207  0.00  0.00    +0.000 A 
ATOM      2  C   UNL     1       5.564   5.625  18.286  0.00  0.00    +0.000 A 
ATOM      3  N   UNL     1       4.607   4.705  17.967  0.00  0.00    +0.000 N 
ATOM      4  N   UNL     1       4.786   4.207  16.722  0.00  0.00    +0.000 NA
ATOM      5  C   UNL     1       5.841   4.872  16.218  0.00  0.00    +0.000 A 
ENDROOT
BRANCH   3   6
ATOM      6  C   UNL     1       3.563   4.240  18.797  0.00  0.00    +0.000 A 
ATOM      7  C   UNL     1       2.739   5.167  19.454  0.00  0.00    +0.000 A 
ATOM      8  C   UNL     1       1.668   4.713  20.225  0.00  0.00    +0.000 A 
ATOM      9  C   UNL     1       1.452   3.344  20.369  0.00  0.00    +0.000 A 
ATOM     10  F   UNL     1       0.431   2.915  21.121  0.00  0.00    +0.000 F 
ATOM     11  C   UNL     1       2.278   2.419  19.749  0.00  0.00    +0.000 A 
ATOM     12  C   UNL     1       3.324   2.872  18.953  0.00  0.00    +0.000 A 
ATOM     13  F   UNL     1       4.130   1.953  18.401  0.00  0.00    +0.000 F 
ENDBRANCH   3   6
BRANCH   5  14
ATOM     14  C   UNL     1       6.244   4.647  14.821  0.00  0.00    +0.000 A 
ATOM     15  C   UNL     1       7.397   5.273  14.314  0.00  0.00    +0.000 A 
ATOM     16  C   UNL     1       7.786   5.099  12.983  0.00  0.00    +0.000 A 
ATOM     17  C   UNL     1       7.033   4.287  12.138  0.00  0.00    +0.000 A 
ATOM     18  C   UNL     1       5.897   3.654  12.633  0.00  0.00    +0.000 A 
ATOM     19 CL   UNL     1       4.963   2.642  11.598  0.00  0.00    +0.000 Cl
ATOM     20  C   UNL     1       5.498   3.835  13.958  0.00  0.00    +0.000 A 
ENDBRANCH   5  14
BRANCH   1  21
ATOM     21  C   UNL     1       7.640   6.576  17.093  0.00  0.00    +0.000 C 
BRANCH  21  22
ATOM     22  N   UNL     1       7.304   7.995  17.215  0.00  0.00    +0.000 NA
ATOM     23  H   UNL     1       7.413   8.408  16.283  0.00  0.00    +0.000 HD
BRANCH  22  24
ATOM     24  C   UNL     1       8.261   8.681  18.090  0.00  0.00    +0.000 C 
BRANCH  24  25
ATOM     25  C   UNL     1       8.195  10.222  17.968  0.00  0.00    +0.000 C 
BRANCH  25  30
ATOM     26  C   UNL     1       8.343  13.741  21.128  0.00  0.00    +0.000 C 
ATOM     27  N   UNL     1       9.167  12.993  20.183  0.00  0.00    +0.000 NA
ATOM     28  C   UNL     1       8.681  13.172  18.803  0.00  0.00    +0.000 C 
ATOM     29  C   UNL     1       9.471  12.314  17.789  0.00  0.00    +0.000 C 
ATOM     30  N   UNL     1       9.518  10.868  18.112  0.00  0.00    +0.000 NA
ATOM     31  C   UNL     1      10.017  10.739  19.501  0.00  0.00    +0.000 C 
ATOM     32  C   UNL     1       9.223  11.566  20.540  0.00  0.00    +0.000 C 
ENDBRANCH  25  30
ENDBRANCH  24  25
ENDBRANCH  22  24
ENDBRANCH  21  22
ENDBRANCH   1  21
TORSDOF 7
ENDMDL
MODEL 4
REMARK VINA RESULT:      -8.4      1.441      1.871
REMARK  Name = 
REMARK  8 active torsions:
REMARK  status: ('A' for Active; 'I' for Inactive)
REMARK    1  A    between atoms: C_1  and  N_2
REMARK    2  A    between atoms: N_5  and  C_6
REMARK    3  A    between atoms: C_6  and  C_7
REMARK    4  A    between atoms: C_7  and  N_8
REMARK    5  A    between atoms: N_8  and  C_9
REMARK    6  A    between atoms: C_9  and  C_10
REMARK    7  A    between atoms: N_12  and  C_13
REMARK    8  A    between atoms: C_22  and  C_23
REMARK                            x       y       z     vdW  Elec       q    Type
REMARK                         _______ _______ _______ _____ _____    ______ ____
ROOT
ATOM      1  C   UNL     1       6.523   5.634  17.800  0.00  0.00    +0.000 A 
ATOM      2  C   UNL     1       5.754   5.510  18.937  0.00  0.00    +0.000 A 
ATOM      3  N   UNL     1       4.752   4.622  18.665  0.00  0.00    +0.000 N 
ATOM      4  N   UNL     1       4.823   4.162  17.395  0.00  0.00    +0.000 NA
ATOM      5  C   UNL     1       5.852   4.820  16.832  0.00  0.00    +0.000 A 
ENDROOT
BRANCH   3   6
ATOM      6  C   UNL     1       3.764   4.153  19.559  0.00  0.00    +0.000 A 
ATOM      7  C   UNL     1       2.677   4.980  19.881  0.00  0.00    +0.000 A 
ATOM      8  C   UNL     1       1.666   4.497  20.714  0.00  0.00    +0.000 A 
ATOM      9  C   UNL     1       1.768   3.215  21.252  0.00  0.00    +0.000 A 
ATOM     10  F   UNL     1       0.803   2.764  22.062  0.00  0.00    +0.000 F 
ATOM     11  C   UNL     1       2.854   2.402  20.966  0.00  0.00    +0.000 A 
ATOM     12  C   UNL     1       3.843   2.870  20.108  0.00  0.00    +0.000 A 
ATOM     13  F   UNL     1       4.900   2.076  19.884  0.00  0.00    +0.000 F 
ENDBRANCH   3   6
BRANCH   5  14
ATOM     14  C   UNL     1       6.141   4.632  15.401  0.00  0.00    +0.000 A 
ATOM     15  C   UNL     1       5.342   3.766  14.633  0.00  0.00    +0.000 A 
ATOM     16  C   UNL     1       5.612   3.547  13.279  0.00  0.00    +0.000 A 
ATOM     17  C   UNL     1       6.681   4.199  12.668  0.00  0.00    +0.000 A 
ATOM     18  C   UNL     1       7.470   5.067  13.417  0.00  0.00    +0.000 A 
ATOM     19 CL   UNL     1       8.789   5.883  12.669  0.00  0.00    +0.000 Cl
ATOM     20  C   UNL     1       7.211   5.279  14.772  0.00  0.00    +0.000 A 
ENDBRANCH   5  14
BRANCH   1  21
ATOM     21  C   UNL     1       7.754   6.454  17.617  0.00  0.00    +0.000 C 
BRANCH  21  22
ATOM     22  N   UNL     1       7.467   7.873  17.832  0.00  0.00    +0.000 NA
ATOM     23  H   UNL     1       7.468   8.320  16.908  0.00  0.00    +0.000 HD
BRANCH  22  24
ATOM     24  C   UNL     1       8.541   8.509  18.602  0.00  0.00    +0.000 C 
BRANCH  24  25
ATOM     25  C   UNL     1       8.630  10.036  18.372  0.00  0.00    +0.000 C 
BRANCH  25  30
ATOM     26  C   UNL     1       8.721  14.755  18.709  0.00  0.00    +0.000 C 
ATOM     27  N   UNL     1       9.549  13.563  18.867  0.00  0.00    +0.000 NA
ATOM     28  C   UNL     1       9.689  12.847  17.587  0.00  0.00    +0.000 C 
ATOM     29  C   UNL     1      10.478  11.526  17.739  0.00  0.00    +0.000 C 
ATOM     30  N   UNL     1       9.938  10.602  18.766  0.00  0.00    +0.000 NA
ATOM     31  C   UNL     1       9.822  11.363  20.031  0.00  0.00    +0.000 C 
ATOM     32  C   UNL     1       9.011  12.675  19.911  0.00  0.00    +0.000 C 
ENDBRANCH  25  30
ENDBRANCH  24  25
ENDBRANCH  22  24
ENDBRANCH  21  22
ENDBRANCH   1  21
TORSDOF 7
ENDMDL
MODEL 5
REMARK VINA RESULT:      -8.2      7.430      9.428
REMARK  Name = 
REMARK  8 active torsions:
REMARK  status: ('A' for Active; 'I' for Inactive)
REMARK    1  A    between atoms: C_1  and  N_2
REMARK    2  A    between atoms: N_5  and  C_6
REMARK    3  A    between atoms: C_6  and  C_7
REMARK    4  A    between atoms: C_7  and  N_8
REMARK    5  A    between atoms: N_8  and  C_9
REMARK    6  A    between atoms: C_9  and  C_10
REMARK    7  A    between atoms: N_12  and  C_13
REMARK    8  A    between atoms: C_22  and  C_23
REMARK                            x       y       z     vdW  Elec       q    Type
REMARK                         _______ _______ _______ _____ _____    ______ ____
ROOT
ATOM      1  C   UNL     1       1.580   8.327  20.468  0.00  0.00    +0.000 A 
ATOM      2  C   UNL     1       2.241   7.171  20.108  0.00  0.00    +0.000 A 
ATOM      3  N   UNL     1       2.492   7.237  18.768  0.00  0.00    +0.000 N 
ATOM      4  N   UNL     1       2.018   8.382  18.226  0.00  0.00    +0.000 NA
ATOM      5  C   UNL     1       1.398   9.026  19.232  0.00  0.00    +0.000 A 
ENDROOT
BRANCH   3   6
ATOM      6  C   UNL     1       3.198   6.295  17.986  0.00  0.00    +0.000 A 
ATOM      7  C   UNL     1       4.357   6.696  17.304  0.00  0.00    +0.000 A 
ATOM      8  C   UNL     1       5.092   5.754  16.582  0.00  0.00    +0.000 A 
ATOM      9  C   UNL     1       4.645   4.436  16.510  0.00  0.00    +0.000 A 
ATOM     10  F   UNL     1       5.347   3.542  15.804  0.00  0.00    +0.000 F 
ATOM     11  C   UNL     1       3.484   4.037  17.155  0.00  0.00    +0.000 A 
ATOM     12  C   UNL     1       2.771   4.967  17.903  0.00  0.00    +0.000 A 
ATOM     13  F   UNL     1       1.631   4.560  18.480  0.00  0.00    +0.000 F 
ENDBRANCH   3   6
BRANCH   5  14
ATOM     14  C   UNL     1       0.670  10.275  18.958  0.00  0.00    +0.000 A 
ATOM     15  C   UNL     1       1.275  11.513  19.237  0.00  0.00    +0.000 A 
ATOM     16  C   UNL     1       0.594  12.714  19.014  0.00  0.00    +0.000 A 
ATOM     17  C   UNL     1      -0.699  12.696  18.498  0.00  0.00    +0.000 A 
ATOM     18  C   UNL     1      -1.301  11.475  18.207  0.00  0.00    +0.000 A 
ATOM     19 CL   UNL     1      -2.898  11.442  17.563  0.00  0.00    +0.000 Cl
ATOM     20  C   UNL     1      -0.630  10.274  18.440  0.00  0.00    +0.000 A 
ENDBRANCH   5  14
BRANCH   1  21
ATOM     21  C   UNL     1       1.134   8.735  21.829  0.00  0.00    +0.000 C 
BRANCH  21  22
ATOM     22  N   UNL     1      -0.310   8.971  21.852  0.00  0.00    +0.000 NA
ATOM     23  H   UNL     1      -0.549   9.440  20.972  0.00  0.00    +0.000 HD
BRANCH  22  24
ATOM     24  C   UNL     1      -0.667   9.901  22.929  0.00  0.00    +0.000 C 
BRANCH  24  25
ATOM     25  C   UNL     1      -1.051  11.308  22.412  0.00  0.00    +0.000 C 
BRANCH  25  30
ATOM     26  C   UNL     1      -3.879  14.789  20.905  0.00  0.00    +0.000 C 
ATOM     27  N   UNL     1      -3.288  14.212  22.108  0.00  0.00    +0.000 NA
ATOM     28  C   UNL     1      -1.817  14.296  22.065  0.00  0.00    +0.000 C 
ATOM     29  C   UNL     1      -1.155  13.605  23.279  0.00  0.00    +0.000 C 
ATOM     30  N   UNL     1      -1.563  12.193  23.480  0.00  0.00    +0.000 NA
ATOM     31  C   UNL     1      -3.043  12.160  23.524  0.00  0.00    +0.000 C 
ATOM     32  C   UNL     1      -3.729  12.821  22.304  0.00  0.00    +0.000 C 
ENDBRANCH  25  30
ENDBRANCH  24  25
ENDBRANCH  22  24
ENDBRANCH  21  22
ENDBRANCH   1  21
TORSDOF 7
ENDMDL
MODEL 6
REMARK VINA RESULT:      -8.1      1.079      1.382
REMARK  Name = 
REMARK  8 active torsions:
REMARK  status: ('A' for Active; 'I' for Inactive)
REMARK    1  A    between atoms: C_1  and  N_2
REMARK    2  A    between atoms: N_5  and  C_6
REMARK    3  A    between atoms: C_6  and  C_7
REMARK    4  A    between atoms: C_7  and  N_8
REMARK    5  A    between atoms: N_8  and  C_9
REMARK    6  A    between atoms: C_9  and  C_10
REMARK    7  A    between atoms: N_12  and  C_13
REMARK    8  A    between atoms: C_22  and  C_23
REMARK                            x       y       z     vdW  Elec       q    Type
REMARK                         _______ _______ _______ _____ _____    ______ ____
ROOT
ATOM      1  C   UNL     1       6.342   5.777  17.521  0.00  0.00    +0.000 A 
ATOM      2  C   UNL     1       5.535   5.624  18.629  0.00  0.00    +0.000 A 
ATOM      3  N   UNL     1       4.624   4.648  18.346  0.00  0.00    +0.000 N 
ATOM      4  N   UNL     1       4.788   4.156  17.097  0.00  0.00    +0.000 NA
ATOM      5  C   UNL     1       5.784   4.880  16.554  0.00  0.00    +0.000 A 
ENDROOT
BRANCH   3   6
ATOM      6  C   UNL     1       3.638   4.125  19.213  0.00  0.00    +0.000 A 
ATOM      7  C   UNL     1       3.934   2.998  19.994  0.00  0.00    +0.000 A 
ATOM      8  C   UNL     1       2.985   2.517  20.898  0.00  0.00    +0.000 A 
ATOM      9  C   UNL     1       1.739   3.135  20.986  0.00  0.00    +0.000 A 
ATOM     10  F   UNL     1       0.830   2.659  21.845  0.00  0.00    +0.000 F 
ATOM     11  C   UNL     1       1.425   4.231  20.197  0.00  0.00    +0.000 A 
ATOM     12  C   UNL     1       2.383   4.731  19.322  0.00  0.00    +0.000 A 
ATOM     13  F   UNL     1       2.035   5.766  18.543  0.00  0.00    +0.000 F 
ENDBRANCH   3   6
BRANCH   5  14
ATOM     14  C   UNL     1       6.151   4.672  15.145  0.00  0.00    +0.000 A 
ATOM     15  C   UNL     1       5.429   3.756  14.360  0.00  0.00    +0.000 A 
ATOM     16  C   UNL     1       5.774   3.518  13.027  0.00  0.00    +0.000 A 
ATOM     17  C   UNL     1       6.844   4.202  12.453  0.00  0.00    +0.000 A 
ATOM     18  C   UNL     1       7.558   5.120  13.218  0.00  0.00    +0.000 A 
ATOM     19 CL   UNL     1       8.877   5.975  12.515  0.00  0.00    +0.000 Cl
ATOM     20  C   UNL     1       7.223   5.350  14.553  0.00  0.00    +0.000 A 
ENDBRANCH   5  14
BRANCH   1  21
ATOM     21  C   UNL     1       7.508   6.690  17.363  0.00  0.00    +0.000 C 
BRANCH  21  22
ATOM     22  N   UNL     1       7.222   8.002  17.946  0.00  0.00    +0.000 NA
ATOM     23  H   UNL     1       6.450   8.406  17.406  0.00  0.00    +0.000 HD
BRANCH  22  24
ATOM     24  C   UNL     1       8.366   8.905  17.779  0.00  0.00    +0.000 C 
BRANCH  24  25
ATOM     25  C   UNL     1       8.627   9.789  19.021  0.00  0.00    +0.000 C 
BRANCH  25  30
ATOM     26  C   UNL     1       8.298  14.506  19.178  0.00  0.00    +0.000 C 
ATOM     27  N   UNL     1       9.260  13.411  19.096  0.00  0.00    +0.000 NA
ATOM     28  C   UNL     1       9.067  12.633  17.859  0.00  0.00    +0.000 C 
ATOM     29  C   UNL     1      10.005  11.406  17.788  0.00  0.00    +0.000 C 
ATOM     30  N   UNL     1       9.922  10.500  18.959  0.00  0.00    +0.000 NA
ATOM     31  C   UNL     1      10.128  11.324  20.173  0.00  0.00    +0.000 C 
ATOM     32  C   UNL     1       9.180  12.542  20.282  0.00  0.00    +0.000 C 
ENDBRANCH  25  30
ENDBRANCH  24  25
ENDBRANCH  22  24
ENDBRANCH  21  22
ENDBRANCH   1  21
TORSDOF 7
ENDMDL
MODEL 7
REMARK VINA RESULT:      -8.0      7.425      9.365
REMARK  Name = 
REMARK  8 active torsions:
REMARK  status: ('A' for Active; 'I' for Inactive)
REMARK    1  A    between atoms: C_1  and  N_2
REMARK    2  A    between atoms: N_5  and  C_6
REMARK    3  A    between atoms: C_6  and  C_7
REMARK    4  A    between atoms: C_7  and  N_8
REMARK    5  A    between atoms: N_8  and  C_9
REMARK    6  A    between atoms: C_9  and  C_10
REMARK    7  A    between atoms: N_12  and  C_13
REMARK    8  A    between atoms: C_22  and  C_23
REMARK                            x       y       z     vdW  Elec       q    Type
REMARK                         _______ _______ _______ _____ _____    ______ ____
ROOT
ATOM      1  C   UNL     1       1.505   8.555  20.535  0.00  0.00    +0.000 A 
ATOM      2  C   UNL     1       2.157   7.382  20.218  0.00  0.00    +0.000 A 
ATOM      3  N   UNL     1       2.373   7.379  18.870  0.00  0.00    +0.000 N 
ATOM      4  N   UNL     1       1.883   8.495  18.282  0.00  0.00    +0.000 NA
ATOM      5  C   UNL     1       1.290   9.189  19.270  0.00  0.00    +0.000 A 
ENDROOT
BRANCH   3   6
ATOM      6  C   UNL     1       3.059   6.398  18.119  0.00  0.00    +0.000 A 
ATOM      7  C   UNL     1       4.217   6.755  17.412  0.00  0.00    +0.000 A 
ATOM      8  C   UNL     1       4.932   5.776  16.721  0.00  0.00    +0.000 A 
ATOM      9  C   UNL     1       4.467   4.463  16.704  0.00  0.00    +0.000 A 
ATOM     10  F   UNL     1       5.150   3.532  16.027  0.00  0.00    +0.000 F 
ATOM     11  C   UNL     1       3.306   4.105  17.373  0.00  0.00    +0.000 A 
ATOM     12  C   UNL     1       2.613   5.073  18.091  0.00  0.00    +0.000 A 
ATOM     13  F   UNL     1       1.473   4.705  18.693  0.00  0.00    +0.000 F 
ENDBRANCH   3   6
BRANCH   5  14
ATOM     14  C   UNL     1       0.553  10.422  18.952  0.00  0.00    +0.000 A 
ATOM     15  C   UNL     1      -0.786  10.350  18.531  0.00  0.00    +0.000 A 
ATOM     16  C   UNL     1      -1.501  11.504  18.194  0.00  0.00    +0.000 A 
ATOM     17  C   UNL     1      -0.888  12.751  18.283  0.00  0.00    +0.000 A 
ATOM     18  C   UNL     1       0.434  12.835  18.711  0.00  0.00    +0.000 A 
ATOM     19 CL   UNL     1       1.197  14.374  18.831  0.00  0.00    +0.000 Cl
ATOM     20  C   UNL     1       1.154  11.684  19.035  0.00  0.00    +0.000 A 
ENDBRANCH   5  14
BRANCH   1  21
ATOM     21  C   UNL     1       1.095   9.032  21.885  0.00  0.00    +0.000 C 
BRANCH  21  22
ATOM     22  N   UNL     1      -0.363   9.023  22.017  0.00  0.00    +0.000 NA
ATOM     23  H   UNL     1      -0.747   9.281  21.102  0.00  0.00    +0.000 HD
BRANCH  22  24
ATOM     24  C   UNL     1      -0.805  10.056  22.960  0.00  0.00    +0.000 C 
BRANCH  24  25
ATOM     25  C   UNL     1      -1.072  11.421  22.282  0.00  0.00    +0.000 C 
BRANCH  25  30
ATOM     26  C   UNL     1      -1.840  15.693  20.399  0.00  0.00    +0.000 C 
ATOM     27  N   UNL     1      -2.167  14.855  21.549  0.00  0.00    +0.000 NA
ATOM     28  C   UNL     1      -0.955  14.523  22.320  0.00  0.00    +0.000 C 
ATOM     29  C   UNL     1      -1.252  13.554  23.487  0.00  0.00    +0.000 C 
ATOM     30  N   UNL     1      -1.942  12.304  23.088  0.00  0.00    +0.000 NA
ATOM     31  C   UNL     1      -3.152  12.688  22.325  0.00  0.00    +0.000 C 
ATOM     32  C   UNL     1      -2.876  13.634  21.132  0.00  0.00    +0.000 C 
ENDBRANCH  25  30
ENDBRANCH  24  25
ENDBRANCH  22  24
ENDBRANCH  21  22
ENDBRANCH   1  21
TORSDOF 7
ENDMDL
MODEL 8
REMARK VINA RESULT:      -7.9      1.676      2.242
REMARK  Name = 
REMARK  8 active torsions:
REMARK  status: ('A' for Active; 'I' for Inactive)
REMARK    1  A    between atoms: C_1  and  N_2
REMARK    2  A    between atoms: N_5  and  C_6
REMARK    3  A    between atoms: C_6  and  C_7
REMARK    4  A    between atoms: C_7  and  N_8
REMARK    5  A    between atoms: N_8  and  C_9
REMARK    6  A    between atoms: C_9  and  C_10
REMARK    7  A    between atoms: N_12  and  C_13
REMARK    8  A    between atoms: C_22  and  C_23
REMARK                            x       y       z     vdW  Elec       q    Type
REMARK                         _______ _______ _______ _____ _____    ______ ____
ROOT
ATOM      1  C   UNL     1       6.553   5.754  17.920  0.00  0.00    +0.000 A 
ATOM      2  C   UNL     1       5.768   5.610  19.045  0.00  0.00    +0.000 A 
ATOM      3  N   UNL     1       4.796   4.695  18.758  0.00  0.00    +0.000 N 
ATOM      4  N   UNL     1       4.900   4.235  17.490  0.00  0.00    +0.000 NA
ATOM      5  C   UNL     1       5.920   4.920  16.942  0.00  0.00    +0.000 A 
ENDROOT
BRANCH   3   6
ATOM      6  C   UNL     1       3.807   4.200  19.636  0.00  0.00    +0.000 A 
ATOM      7  C   UNL     1       2.706   5.007  19.960  0.00  0.00    +0.000 A 
ATOM      8  C   UNL     1       1.694   4.499  20.777  0.00  0.00    +0.000 A 
ATOM      9  C   UNL     1       1.808   3.212  21.297  0.00  0.00    +0.000 A 
ATOM     10  F   UNL     1       0.842   2.736  22.092  0.00  0.00    +0.000 F 
ATOM     11  C   UNL     1       2.907   2.417  21.009  0.00  0.00    +0.000 A 
ATOM     12  C   UNL     1       3.897   2.910  20.167  0.00  0.00    +0.000 A 
ATOM     13  F   UNL     1       4.967   2.133  19.941  0.00  0.00    +0.000 F 
ENDBRANCH   3   6
BRANCH   5  14
ATOM     14  C   UNL     1       6.238   4.738  15.517  0.00  0.00    +0.000 A 
ATOM     15  C   UNL     1       5.436   3.901  14.722  0.00  0.00    +0.000 A 
ATOM     16  C   UNL     1       5.732   3.687  13.372  0.00  0.00    +0.000 A 
ATOM     17  C   UNL     1       6.831   4.317  12.793  0.00  0.00    +0.000 A 
ATOM     18  C   UNL     1       7.624   5.158  13.569  0.00  0.00    +0.000 A 
ATOM     19 CL   UNL     1       8.981   5.946  12.860  0.00  0.00    +0.000 Cl
ATOM     20  C   UNL     1       7.339   5.363  14.920  0.00  0.00    +0.000 A 
ENDBRANCH   5  14
BRANCH   1  21
ATOM     21  C   UNL     1       7.763   6.607  17.756  0.00  0.00    +0.000 C 
BRANCH  21  22
ATOM     22  N   UNL     1       7.444   7.822  17.005  0.00  0.00    +0.000 NA
ATOM     23  H   UNL     1       8.196   7.956  16.321  0.00  0.00    +0.000 HD
BRANCH  22  24
ATOM     24  C   UNL     1       7.466   8.996  17.884  0.00  0.00    +0.000 C 
BRANCH  24  25
ATOM     25  C   UNL     1       8.888   9.569  18.094  0.00  0.00    +0.000 C 
BRANCH  25  30
ATOM     26  C   UNL     1      11.851  13.096  17.015  0.00  0.00    +0.000 C 
ATOM     27  N   UNL     1      10.886  12.656  18.017  0.00  0.00    +0.000 NA
ATOM     28  C   UNL     1      11.327  11.404  18.658  0.00  0.00    +0.000 C 
ATOM     29  C   UNL     1      10.280  10.857  19.655  0.00  0.00    +0.000 C 
ATOM     30  N   UNL     1       8.925  10.668  19.082  0.00  0.00    +0.000 NA
ATOM     31  C   UNL     1       8.524  11.950  18.458  0.00  0.00    +0.000 C 
ATOM     32  C   UNL     1       9.544  12.503  17.433  0.00  0.00    +0.000 C 
ENDBRANCH  25  30
ENDBRANCH  24  25
ENDBRANCH  22  24
ENDBRANCH  21  22
ENDBRANCH   1  21
TORSDOF 7
ENDMDL
MODEL 9
REMARK VINA RESULT:      -7.8      7.281      9.272
REMARK  Name = 
REMARK  8 active torsions:
REMARK  status: ('A' for Active; 'I' for Inactive)
REMARK    1  A    between atoms: C_1  and  N_2
REMARK    2  A    between atoms: N_5  and  C_6
REMARK    3  A    between atoms: C_6  and  C_7
REMARK    4  A    between atoms: C_7  and  N_8
REMARK    5  A    between atoms: N_8  and  C_9
REMARK    6  A    between atoms: C_9  and  C_10
REMARK    7  A    between atoms: N_12  and  C_13
REMARK    8  A    between atoms: C_22  and  C_23
REMARK                            x       y       z     vdW  Elec       q    Type
REMARK                         _______ _______ _______ _____ _____    ______ ____
ROOT
ATOM      1  C   UNL     1       1.611   8.340  20.424  0.00  0.00    +0.000 A 
ATOM      2  C   UNL     1       2.261   7.162  20.119  0.00  0.00    +0.000 A 
ATOM      3  N   UNL     1       2.516   7.164  18.778  0.00  0.00    +0.000 N 
ATOM      4  N   UNL     1       2.055   8.288  18.183  0.00  0.00    +0.000 NA
ATOM      5  C   UNL     1       1.439   8.983  19.156  0.00  0.00    +0.000 A 
ENDROOT
BRANCH   3   6
ATOM      6  C   UNL     1       3.214   6.180  18.043  0.00  0.00    +0.000 A 
ATOM      7  C   UNL     1       2.679   4.887  17.940  0.00  0.00    +0.000 A 
ATOM      8  C   UNL     1       3.333   3.930  17.162  0.00  0.00    +0.000 A 
ATOM      9  C   UNL     1       4.532   4.255  16.531  0.00  0.00    +0.000 A 
ATOM     10  F   UNL     1       5.161   3.329  15.799  0.00  0.00    +0.000 F 
ATOM     11  C   UNL     1       5.086   5.521  16.652  0.00  0.00    +0.000 A 
ATOM     12  C   UNL     1       4.416   6.485  17.397  0.00  0.00    +0.000 A 
ATOM     13  F   UNL     1       4.997   7.686  17.529  0.00  0.00    +0.000 F 
ENDBRANCH   3   6
BRANCH   5  14
ATOM     14  C   UNL     1       0.725  10.225  18.823  0.00  0.00    +0.000 A 
ATOM     15  C   UNL     1      -0.621  10.173  18.420  0.00  0.00    +0.000 A 
ATOM     16  C   UNL     1      -1.316  11.335  18.070  0.00  0.00    +0.000 A 
ATOM     17  C   UNL     1      -0.677  12.571  18.128  0.00  0.00    +0.000 A 
ATOM     18  C   UNL     1       0.652  12.635  18.537  0.00  0.00    +0.000 A 
ATOM     19 CL   UNL     1       1.449  14.160  18.618  0.00  0.00    +0.000 Cl
ATOM     20  C   UNL     1       1.352  11.476  18.875  0.00  0.00    +0.000 A 
ENDBRANCH   5  14
BRANCH   1  21
ATOM     21  C   UNL     1       1.166   8.815  21.764  0.00  0.00    +0.000 C 
BRANCH  21  22
ATOM     22  N   UNL     1      -0.285   8.679  21.906  0.00  0.00    +0.000 NA
ATOM     23  H   UNL     1      -0.685   8.761  20.965  0.00  0.00    +0.000 HD
BRANCH  22  24
ATOM     24  C   UNL     1      -0.835   9.790  22.691  0.00  0.00    +0.000 C 
BRANCH  24  25
ATOM     25  C   UNL     1      -0.481  11.178  22.107  0.00  0.00    +0.000 C 
BRANCH  25  30
ATOM     26  C   UNL     1      -4.015  14.057  20.839  0.00  0.00    +0.000 C 
ATOM     27  N   UNL     1      -3.025  13.825  21.887  0.00  0.00    +0.000 NA
ATOM     28  C   UNL     1      -1.656  13.951  21.355  0.00  0.00    +0.000 C 
ATOM     29  C   UNL     1      -0.584  13.613  22.416  0.00  0.00    +0.000 C 
ATOM     30  N   UNL     1      -0.746  12.284  23.053  0.00  0.00    +0.000 NA
ATOM     31  C   UNL     1      -2.129  12.208  23.576  0.00  0.00    +0.000 C 
ATOM     32  C   UNL     1      -3.223  12.513  22.525  0.00  0.00    +0.000 C 
ENDBRANCH  25  30
ENDBRANCH  24  25
ENDBRANCH  22  24
ENDBRANCH  21  22
ENDBRANCH   1  21
TORSDOF 7
ENDMDL
