MODEL 1
REMARK VINA RESULT:      -6.3      0.000      0.000
REMARK  Name = 
REMARK  6 active torsions:
REMARK  status: ('A' for Active; 'I' for Inactive)
REMARK    1  A    between atoms: C_1  and  N_2
REMARK    2  A    between atoms: N_5  and  C_6
REMARK    3  A    between atoms: C_6  and  C_7
REMARK    4  A    between atoms: C_7  and  N_8
REMARK    5  A    between atoms: C_13  and  C_14
REMARK    6  A    between atoms: N_15  and  O_16
REMARK                            x       y       z     vdW  Elec       q    Type
REMARK                         _______ _______ _______ _____ _____    ______ ____
ROOT
ATOM      1  C   UNL     1       7.639   7.636  17.391  0.00  0.00    +0.000 C 
ATOM      2  N   UNL     1       6.510   6.701  17.339  0.00  0.00    +0.000 N 
ATOM      3  C   UNL     1       5.635   6.579  16.280  0.00  0.00    +0.000 A 
ATOM      4  C   UNL     1       4.747   5.600  16.612  0.00  0.00    +0.000 A 
ATOM      5  N   UNL     1       5.106   5.135  17.870  0.00  0.00    +0.000 N 
ATOM      6  C   UNL     1       6.211   5.804  18.312  0.00  0.00    +0.000 A 
ENDROOT
BRANCH   6   7
ATOM      7  C   UNL     1       6.884   5.614  19.534  0.00  0.00    +0.000 C 
ATOM      8  N   UNL     1       8.094   5.155  19.662  0.00  0.00    +0.000 NA
BRANCH   8   9
ATOM      9  O   UNL     1       8.436   5.178  21.018  0.00  0.00    +0.000 OA
ATOM     10  H   UNL     1       8.185   6.080  21.304  0.00  0.00    +0.000 HD
ENDBRANCH   8   9
ENDBRANCH   6   7
BRANCH   5  11
ATOM     11  C   UNL     1       4.394   4.055  18.601  0.00  0.00    +0.000 C 
BRANCH  11  12
ATOM     12  C   UNL     1       3.446   4.582  19.707  0.00  0.00    +0.000 C 
BRANCH  12  13
ATOM     13  N   UNL     1       2.016   4.555  19.364  0.00  0.00    +0.000 NA
ATOM     14  C   UNL     1       1.128   4.149  20.465  0.00  0.00    +0.000 C 
ATOM     15  C   UNL     1       0.842   2.677  20.254  0.00  0.00    +0.000 C 
ATOM     16  C   UNL     1       0.781   2.556  18.749  0.00  0.00    +0.000 C 
ATOM     17  C   UNL     1       1.753   3.615  18.247  0.00  0.00    +0.000 C 
ENDBRANCH  12  13
ENDBRANCH  11  12
ENDBRANCH   5  11
TORSDOF 5
ENDMDL
MODEL 2
REMARK VINA RESULT:      -6.3      0.993      1.412
REMARK  Name = 
REMARK  6 active torsions:
REMARK  status: ('A' for Active; 'I' for Inactive)
REMARK    1  A    between atoms: C_1  and  N_2
REMARK    2  A    between atoms: N_5  and  C_6
REMARK    3  A    between atoms: C_6  and  C_7
REMARK    4  A    between atoms: C_7  and  N_8
REMARK    5  A    between atoms: C_13  and  C_14
REMARK    6  A    between atoms: N_15  and  O_16
REMARK                            x       y       z     vdW  Elec       q    Type
REMARK                         _______ _______ _______ _____ _____    ______ ____
ROOT
ATOM      1  C   UNL     1       7.377   7.420  17.293  0.00  0.00    +0.000 C 
ATOM      2  N   UNL     1       6.272   6.457  17.341  0.00  0.00    +0.000 N 
ATOM      3  C   UNL     1       5.363   6.248  16.324  0.00  0.00    +0.000 A 
ATOM      4  C   UNL     1       4.515   5.269  16.749  0.00  0.00    +0.000 A 
ATOM      5  N   UNL     1       4.931   4.892  18.018  0.00  0.00    +0.000 N 
ATOM      6  C   UNL     1       6.032   5.614  18.377  0.00  0.00    +0.000 A 
ENDROOT
BRANCH   6   7
ATOM      7  C   UNL     1       6.754   5.516  19.582  0.00  0.00    +0.000 C 
ATOM      8  N   UNL     1       7.993   5.137  19.687  0.00  0.00    +0.000 NA
BRANCH   8   9
ATOM      9  O   UNL     1       8.375   5.237  21.029  0.00  0.00    +0.000 OA
ATOM     10  H   UNL     1       9.084   4.568  21.119  0.00  0.00    +0.000 HD
ENDBRANCH   8   9
ENDBRANCH   6   7
BRANCH   5  11
ATOM     11  C   UNL     1       4.274   3.842  18.840  0.00  0.00    +0.000 C 
BRANCH  11  12
ATOM     12  C   UNL     1       3.331   2.923  18.024  0.00  0.00    +0.000 C 
BRANCH  12  13
ATOM     13  N   UNL     1       2.378   2.141  18.826  0.00  0.00    +0.000 NA
ATOM     14  C   UNL     1       0.984   2.607  18.751  0.00  0.00    +0.000 C 
ATOM     15  C   UNL     1       0.761   3.469  19.976  0.00  0.00    +0.000 C 
ATOM     16  C   UNL     1       1.586   2.773  21.034  0.00  0.00    +0.000 C 
ATOM     17  C   UNL     1       2.748   2.162  20.262  0.00  0.00    +0.000 C 
ENDBRANCH  12  13
ENDBRANCH  11  12
ENDBRANCH   5  11
TORSDOF 5
ENDMDL
MODEL 3
REMARK VINA RESULT:      -6.2      2.326      5.573
REMARK  Name = 
REMARK  6 active torsions:
REMARK  status: ('A' for Active; 'I' for Inactive)
REMARK    1  A    between atoms: C_1  and  N_2
REMARK    2  A    between atoms: N_5  and  C_6
REMARK    3  A    between atoms: C_6  and  C_7
REMARK    4  A    between atoms: C_7  and  N_8
REMARK    5  A    between atoms: C_13  and  C_14
REMARK    6  A    between atoms: N_15  and  O_16
REMARK                            x       y       z     vdW  Elec       q    Type
REMARK                         _______ _______ _______ _____ _____    ______ ____
ROOT
ATOM      1  C   UNL     1       2.207   4.012  20.989  0.00  0.00    +0.000 C 
ATOM      2  N   UNL     1       2.751   4.709  19.820  0.00  0.00    +0.000 N 
ATOM      3  C   UNL     1       2.582   6.053  19.554  0.00  0.00    +0.000 A 
ATOM      4  C   UNL     1       3.249   6.312  18.394  0.00  0.00    +0.000 A 
ATOM      5  N   UNL     1       3.822   5.118  17.979  0.00  0.00    +0.000 N 
ATOM      6  C   UNL     1       3.530   4.129  18.873  0.00  0.00    +0.000 A 
ENDROOT
BRANCH   6   7
ATOM      7  C   UNL     1       3.938   2.783  18.811  0.00  0.00    +0.000 C 
ATOM      8  N   UNL     1       3.284   1.827  18.220  0.00  0.00    +0.000 NA
BRANCH   8   9
ATOM      9  O   UNL     1       4.039   0.652  18.310  0.00  0.00    +0.000 OA
ATOM     10  H   UNL     1       3.433  -0.038  17.972  0.00  0.00    +0.000 HD
ENDBRANCH   8   9
ENDBRANCH   6   7
BRANCH   5  11
ATOM     11  C   UNL     1       4.645   4.964  16.750  0.00  0.00    +0.000 C 
BRANCH  11  12
ATOM     12  C   UNL     1       5.431   6.244  16.372  0.00  0.00    +0.000 C 
BRANCH  12  13
ATOM     13  N   UNL     1       6.884   6.167  16.585  0.00  0.00    +0.000 NA
ATOM     14  C   UNL     1       7.327   5.020  17.394  0.00  0.00    +0.000 C 
ATOM     15  C   UNL     1       7.506   5.542  18.804  0.00  0.00    +0.000 C 
ATOM     16  C   UNL     1       8.030   6.942  18.581  0.00  0.00    +0.000 C 
ATOM     17  C   UNL     1       7.386   7.381  17.273  0.00  0.00    +0.000 C 
ENDBRANCH  12  13
ENDBRANCH  11  12
ENDBRANCH   5  11
TORSDOF 5
ENDMDL
MODEL 4
REMARK VINA RESULT:      -6.0      0.961      1.398
REMARK  Name = 
REMARK  6 active torsions:
REMARK  status: ('A' for Active; 'I' for Inactive)
REMARK    1  A    between atoms: C_1  and  N_2
REMARK    2  A    between atoms: N_5  and  C_6
REMARK    3  A    between atoms: C_6  and  C_7
REMARK    4  A    between atoms: C_7  and  N_8
REMARK    5  A    between atoms: C_13  and  C_14
REMARK    6  A    between atoms: N_15  and  O_16
REMARK                            x       y       z     vdW  Elec       q    Type
REMARK                         _______ _______ _______ _____ _____    ______ ____
ROOT
ATOM      1  C   UNL     1       7.323   7.692  17.396  0.00  0.00    +0.000 C 
ATOM      2  N   UNL     1       6.473   6.513  17.201  0.00  0.00    +0.000 N 
ATOM      3  C   UNL     1       5.765   6.233  16.049  0.00  0.00    +0.000 A 
ATOM      4  C   UNL     1       5.121   5.051  16.261  0.00  0.00    +0.000 A 
ATOM      5  N   UNL     1       5.457   4.627  17.539  0.00  0.00    +0.000 N 
ATOM      6  C   UNL     1       6.311   5.523  18.114  0.00  0.00    +0.000 A 
ENDROOT
BRANCH   6   7
ATOM      7  C   UNL     1       6.885   5.443  19.397  0.00  0.00    +0.000 C 
ATOM      8  N   UNL     1       8.128   5.158  19.647  0.00  0.00    +0.000 NA
BRANCH   8   9
ATOM      9  O   UNL     1       8.334   5.245  21.028  0.00  0.00    +0.000 OA
ATOM     10  H   UNL     1       7.589   4.735  21.406  0.00  0.00    +0.000 HD
ENDBRANCH   8   9
ENDBRANCH   6   7
BRANCH   5  11
ATOM     11  C   UNL     1       4.966   3.370  18.163  0.00  0.00    +0.000 C 
BRANCH  11  12
ATOM     12  C   UNL     1       3.459   3.408  18.519  0.00  0.00    +0.000 C 
BRANCH  12  13
ATOM     13  N   UNL     1       3.161   3.718  19.925  0.00  0.00    +0.000 NA
ATOM     14  C   UNL     1       1.954   3.064  20.456  0.00  0.00    +0.000 C 
ATOM     15  C   UNL     1       0.844   4.090  20.365  0.00  0.00    +0.000 C 
ATOM     16  C   UNL     1       1.558   5.388  20.661  0.00  0.00    +0.000 C 
ATOM     17  C   UNL     1       2.965   5.175  20.119  0.00  0.00    +0.000 C 
ENDBRANCH  12  13
ENDBRANCH  11  12
ENDBRANCH   5  11
TORSDOF 5
ENDMDL
MODEL 5
REMARK VINA RESULT:      -6.0      2.341      5.459
REMARK  Name = 
REMARK  6 active torsions:
REMARK  status: ('A' for Active; 'I' for Inactive)
REMARK    1  A    between atoms: C_1  and  N_2
REMARK    2  A    between atoms: N_5  and  C_6
REMARK    3  A    between atoms: C_6  and  C_7
REMARK    4  A    between atoms: C_7  and  N_8
REMARK    5  A    between atoms: C_13  and  C_14
REMARK    6  A    between atoms: N_15  and  O_16
REMARK                            x       y       z     vdW  Elec       q    Type
REMARK                         _______ _______ _______ _____ _____    ______ ____
ROOT
ATOM      1  C   UNL     1       1.571   2.624  21.524  0.00  0.00    +0.000 C 
ATOM      2  N   UNL     1       2.257   3.686  20.782  0.00  0.00    +0.000 N 
ATOM      3  C   UNL     1       1.820   4.992  20.687  0.00  0.00    +0.000 A 
ATOM      4  C   UNL     1       2.736   5.660  19.931  0.00  0.00    +0.000 A 
ATOM      5  N   UNL     1       3.723   4.748  19.586  0.00  0.00    +0.000 N 
ATOM      6  C   UNL     1       3.437   3.529  20.131  0.00  0.00    +0.000 A 
ENDROOT
BRANCH   6   7
ATOM      7  C   UNL     1       4.200   2.351  20.018  0.00  0.00    +0.000 C 
ATOM      8  N   UNL     1       5.063   1.929  20.894  0.00  0.00    +0.000 NA
BRANCH   8   9
ATOM      9  O   UNL     1       5.561   0.694  20.465  0.00  0.00    +0.000 OA
ATOM     10  H   UNL     1       6.300   0.936  19.870  0.00  0.00    +0.000 HD
ENDBRANCH   8   9
ENDBRANCH   6   7
BRANCH   5  11
ATOM     11  C   UNL     1       4.918   5.074  18.764  0.00  0.00    +0.000 C 
BRANCH  11  12
ATOM     12  C   UNL     1       4.675   6.224  17.756  0.00  0.00    +0.000 C 
BRANCH  12  13
ATOM     13  N   UNL     1       5.720   6.386  16.734  0.00  0.00    +0.000 NA
ATOM     14  C   UNL     1       5.277   6.123  15.355  0.00  0.00    +0.000 C 
ATOM     15  C   UNL     1       5.691   4.700  15.044  0.00  0.00    +0.000 C 
ATOM     16  C   UNL     1       7.007   4.564  15.774  0.00  0.00    +0.000 C 
ATOM     17  C   UNL     1       6.859   5.472  16.987  0.00  0.00    +0.000 C 
ENDBRANCH  12  13
ENDBRANCH  11  12
ENDBRANCH   5  11
TORSDOF 5
ENDMDL
MODEL 6
REMARK VINA RESULT:      -5.8      2.441      3.170
REMARK  Name = 
REMARK  6 active torsions:
REMARK  status: ('A' for Active; 'I' for Inactive)
REMARK    1  A    between atoms: C_1  and  N_2
REMARK    2  A    between atoms: N_5  and  C_6
REMARK    3  A    between atoms: C_6  and  C_7
REMARK    4  A    between atoms: C_7  and  N_8
REMARK    5  A    between atoms: C_13  and  C_14
REMARK    6  A    between atoms: N_15  and  O_16
REMARK                            x       y       z     vdW  Elec       q    Type
REMARK                         _______ _______ _______ _____ _____    ______ ____
ROOT
ATOM      1  C   UNL     1       7.342   6.410  17.233  0.00  0.00    +0.000 C 
ATOM      2  N   UNL     1       6.301   5.560  17.818  0.00  0.00    +0.000 N 
ATOM      3  C   UNL     1       6.030   5.459  19.167  0.00  0.00    +0.000 A 
ATOM      4  C   UNL     1       4.991   4.587  19.297  0.00  0.00    +0.000 A 
ATOM      5  N   UNL     1       4.639   4.180  18.017  0.00  0.00    +0.000 N 
ATOM      6  C   UNL     1       5.438   4.798  17.100  0.00  0.00    +0.000 A 
ENDROOT
BRANCH   6   7
ATOM      7  C   UNL     1       5.388   4.655  15.699  0.00  0.00    +0.000 C 
ATOM      8  N   UNL     1       6.115   3.834  15.002  0.00  0.00    +0.000 NA
BRANCH   8   9
ATOM      9  O   UNL     1       5.728   3.929  13.661  0.00  0.00    +0.000 OA
ATOM     10  H   UNL     1       4.752   3.861  13.696  0.00  0.00    +0.000 HD
ENDBRANCH   8   9
ENDBRANCH   6   7
BRANCH   5  11
ATOM     11  C   UNL     1       3.540   3.227  17.712  0.00  0.00    +0.000 C 
BRANCH  11  12
ATOM     12  C   UNL     1       2.129   3.825  17.933  0.00  0.00    +0.000 C 
BRANCH  12  13
ATOM     13  N   UNL     1       1.372   3.237  19.048  0.00  0.00    +0.000 NA
ATOM     14  C   UNL     1       0.960   4.196  20.086  0.00  0.00    +0.000 C 
ATOM     15  C   UNL     1       1.988   4.087  21.192  0.00  0.00    +0.000 C 
ATOM     16  C   UNL     1       2.330   2.615  21.191  0.00  0.00    +0.000 C 
ATOM     17  C   UNL     1       2.166   2.192  19.738  0.00  0.00    +0.000 C 
ENDBRANCH  12  13
ENDBRANCH  11  12
ENDBRANCH   5  11
TORSDOF 5
ENDMDL
MODEL 7
REMARK VINA RESULT:      -5.8      2.555      3.314
REMARK  Name = 
REMARK  6 active torsions:
REMARK  status: ('A' for Active; 'I' for Inactive)
REMARK    1  A    between atoms: C_1  and  N_2
REMARK    2  A    between atoms: N_5  and  C_6
REMARK    3  A    between atoms: C_6  and  C_7
REMARK    4  A    between atoms: C_7  and  N_8
REMARK    5  A    between atoms: C_13  and  C_14
REMARK    6  A    between atoms: N_15  and  O_16
REMARK                            x       y       z     vdW  Elec       q    Type
REMARK                         _______ _______ _______ _____ _____    ______ ____
ROOT
ATOM      1  C   UNL     1       7.457   6.107  17.548  0.00  0.00    +0.000 C 
ATOM      2  N   UNL     1       6.334   5.285  18.008  0.00  0.00    +0.000 N 
ATOM      3  C   UNL     1       5.742   5.382  19.251  0.00  0.00    +0.000 A 
ATOM      4  C   UNL     1       4.734   4.465  19.280  0.00  0.00    +0.000 A 
ATOM      5  N   UNL     1       4.724   3.832  18.045  0.00  0.00    +0.000 N 
ATOM      6  C   UNL     1       5.703   4.354  17.250  0.00  0.00    +0.000 A 
ENDROOT
BRANCH   6   7
ATOM      7  C   UNL     1       6.004   3.984  15.925  0.00  0.00    +0.000 C 
ATOM      8  N   UNL     1       5.489   4.521  14.859  0.00  0.00    +0.000 NA
BRANCH   8   9
ATOM      9  O   UNL     1       6.087   3.940  13.736  0.00  0.00    +0.000 OA
ATOM     10  H   UNL     1       5.665   4.403  12.984  0.00  0.00    +0.000 HD
ENDBRANCH   8   9
ENDBRANCH   6   7
BRANCH   5  11
ATOM     11  C   UNL     1       3.768   2.761  17.659  0.00  0.00    +0.000 C 
BRANCH  11  12
ATOM     12  C   UNL     1       3.408   1.808  18.825  0.00  0.00    +0.000 C 
BRANCH  12  13
ATOM     13  N   UNL     1       2.021   1.908  19.304  0.00  0.00    +0.000 NA
ATOM     14  C   UNL     1       1.170   2.830  18.534  0.00  0.00    +0.000 C 
ATOM     15  C   UNL     1       1.155   4.132  19.306  0.00  0.00    +0.000 C 
ATOM     16  C   UNL     1       1.181   3.673  20.745  0.00  0.00    +0.000 C 
ATOM     17  C   UNL     1       1.975   2.374  20.710  0.00  0.00    +0.000 C 
ENDBRANCH  12  13
ENDBRANCH  11  12
ENDBRANCH   5  11
TORSDOF 5
ENDMDL
MODEL 8
REMARK VINA RESULT:      -5.8      1.897      2.275
REMARK  Name = 
REMARK  6 active torsions:
REMARK  status: ('A' for Active; 'I' for Inactive)
REMARK    1  A    between atoms: C_1  and  N_2
REMARK    2  A    between atoms: N_5  and  C_6
REMARK    3  A    between atoms: C_6  and  C_7
REMARK    4  A    between atoms: C_7  and  N_8
REMARK    5  A    between atoms: C_13  and  C_14
REMARK    6  A    between atoms: N_15  and  O_16
REMARK                            x       y       z     vdW  Elec       q    Type
REMARK                         _______ _______ _______ _____ _____    ______ ____
ROOT
ATOM      1  C   UNL     1       7.445   4.612  17.003  0.00  0.00    +0.000 C 
ATOM      2  N   UNL     1       6.146   5.279  17.142  0.00  0.00    +0.000 N 
ATOM      3  C   UNL     1       5.672   6.265  16.301  0.00  0.00    +0.000 A 
ATOM      4  C   UNL     1       4.434   6.608  16.756  0.00  0.00    +0.000 A 
ATOM      5  N   UNL     1       4.172   5.814  17.864  0.00  0.00    +0.000 N 
ATOM      6  C   UNL     1       5.226   4.976  18.091  0.00  0.00    +0.000 A 
ENDROOT
BRANCH   6   7
ATOM      7  C   UNL     1       5.337   4.013  19.113  0.00  0.00    +0.000 C 
ATOM      8  N   UNL     1       4.805   2.828  19.089  0.00  0.00    +0.000 NA
BRANCH   8   9
ATOM      9  O   UNL     1       5.197   2.143  20.244  0.00  0.00    +0.000 OA
ATOM     10  H   UNL     1       4.572   2.463  20.926  0.00  0.00    +0.000 HD
ENDBRANCH   8   9
ENDBRANCH   6   7
BRANCH   5  11
ATOM     11  C   UNL     1       2.918   5.869  18.659  0.00  0.00    +0.000 C 
BRANCH  11  12
ATOM     12  C   UNL     1       1.933   4.719  18.334  0.00  0.00    +0.000 C 
BRANCH  12  13
ATOM     13  N   UNL     1       1.046   4.328  19.440  0.00  0.00    +0.000 NA
ATOM     14  C   UNL     1       1.391   4.919  20.742  0.00  0.00    +0.000 C 
ATOM     15  C   UNL     1       2.190   3.868  21.483  0.00  0.00    +0.000 C 
ATOM     16  C   UNL     1       1.535   2.577  21.050  0.00  0.00    +0.000 C 
ATOM     17  C   UNL     1       1.052   2.858  19.634  0.00  0.00    +0.000 C 
ENDBRANCH  12  13
ENDBRANCH  11  12
ENDBRANCH   5  11
TORSDOF 5
ENDMDL
MODEL 9
REMARK VINA RESULT:      -5.8      2.164      5.158
REMARK  Name = 
REMARK  6 active torsions:
REMARK  status: ('A' for Active; 'I' for Inactive)
REMARK    1  A    between atoms: C_1  and  N_2
REMARK    2  A    between atoms: N_5  and  C_6
REMARK    3  A    between atoms: C_6  and  C_7
REMARK    4  A    between atoms: C_7  and  N_8
REMARK    5  A    between atoms: C_13  and  C_14
REMARK    6  A    between atoms: N_15  and  O_16
REMARK                            x       y       z     vdW  Elec       q    Type
REMARK                         _______ _______ _______ _____ _____    ______ ____
ROOT
ATOM      1  C   UNL     1       1.547   2.123  19.058  0.00  0.00    +0.000 C 
ATOM      2  N   UNL     1       2.385   3.284  18.740  0.00  0.00    +0.000 N 
ATOM      3  C   UNL     1       1.929   4.453  18.166  0.00  0.00    +0.000 A 
ATOM      4  C   UNL     1       3.005   5.281  18.050  0.00  0.00    +0.000 A 
ATOM      5  N   UNL     1       4.099   4.602  18.568  0.00  0.00    +0.000 N 
ATOM      6  C   UNL     1       3.711   3.372  19.014  0.00  0.00    +0.000 A 
ENDROOT
BRANCH   6   7
ATOM      7  C   UNL     1       4.526   2.392  19.613  0.00  0.00    +0.000 C 
ATOM      8  N   UNL     1       4.709   2.248  20.892  0.00  0.00    +0.000 NA
BRANCH   8   9
ATOM      9  O   UNL     1       5.521   1.128  21.100  0.00  0.00    +0.000 OA
ATOM     10  H   UNL     1       5.008   0.393  20.706  0.00  0.00    +0.000 HD
ENDBRANCH   8   9
ENDBRANCH   6   7
BRANCH   5  11
ATOM     11  C   UNL     1       5.476   5.157  18.637  0.00  0.00    +0.000 C 
BRANCH  11  12
ATOM     12  C   UNL     1       5.700   6.366  17.696  0.00  0.00    +0.000 C 
BRANCH  12  13
ATOM     13  N   UNL     1       6.375   6.051  16.428  0.00  0.00    +0.000 NA
ATOM     14  C   UNL     1       5.483   5.962  15.261  0.00  0.00    +0.000 C 
ATOM     15  C   UNL     1       5.194   4.489  15.063  0.00  0.00    +0.000 C 
ATOM     16  C   UNL     1       6.502   3.834  15.444  0.00  0.00    +0.000 C 
ATOM     17  C   UNL     1       7.084   4.751  16.511  0.00  0.00    +0.000 C 
ENDBRANCH  12  13
ENDBRANCH  11  12
ENDBRANCH   5  11
TORSDOF 5
ENDMDL
