MODEL 1
REMARK VINA RESULT:      -7.9      0.000      0.000
REMARK  Name = 
REMARK  7 active torsions:
REMARK  status: ('A' for Active; 'I' for Inactive)
REMARK    1  A    between atoms: C_1  and  C_2
REMARK    2  A    between atoms: C_2  and  C_3
REMARK    3  A    between atoms: C_3  and  O_4
REMARK    4  A    between atoms: O_4  and  C_5
REMARK    5  A    between atoms: C_5  and  C_6
REMARK    6  A    between atoms: C_10  and  C_11
REMARK    7  A    between atoms: C_10  and  C_12
REMARK                            x       y       z     vdW  Elec       q    Type
REMARK                         _______ _______ _______ _____ _____    ______ ____
ROOT
ATOM      1  C   UNL     1       6.360   4.858  14.183  0.00  0.00    +0.000 C 
ATOM      2  C   UNL     1       5.210   5.338  15.045  0.00  0.00    +0.000 C 
ATOM      3  C   UNL     1       5.660   5.044  16.467  0.00  0.00    +0.000 C 
ATOM      4  C   UNL     1       5.044   3.799  17.079  0.00  0.00    +0.000 C 
ATOM      5  C   UNL     1       4.508   4.252  18.444  0.00  0.00    +0.000 C 
ATOM      6  C   UNL     1       5.490   3.960  19.587  0.00  0.00    +0.000 C 
ATOM      7  O   UNL     1       4.400   5.681  18.343  0.00  0.00    +0.000 OA
ATOM      8  C   UNL     1       5.246   6.143  17.387  0.00  0.00    +0.000 C 
ATOM      9  O   UNL     1       5.546   7.321  17.269  0.00  0.00    +0.000 OA
ATOM     10  C   UNL     1       7.144   4.923  16.336  0.00  0.00    +0.000 C 
ATOM     11  O   UNL     1       7.929   4.788  17.261  0.00  0.00    +0.000 OA
ATOM     12  O   UNL     1       7.515   4.890  15.025  0.00  0.00    +0.000 OA
ENDROOT
BRANCH   5  13
ATOM     13  C   UNL     1       3.165   3.629  18.753  0.00  0.00    +0.000 A 
ATOM     14  C   UNL     1       2.258   3.117  17.841  0.00  0.00    +0.000 A 
ATOM     15  S   UNL     1       0.860   2.554  18.652  0.00  0.00    +0.000 S 
ATOM     16  C   UNL     1       1.545   3.029  20.150  0.00  0.00    +0.000 A 
ATOM     17  N   UNL     1       0.895   2.844  21.308  0.00  0.00    +0.000 N 
ATOM     18  N   UNL     1       2.739   3.564  20.076  0.00  0.00    +0.000 NA
ATOM     19  H   UNL     1       0.133   2.179  21.333  0.00  0.00    +0.000 HD
ATOM     20  H   UNL     1       1.457   2.880  22.150  0.00  0.00    +0.000 HD
ENDBRANCH   5  13
BRANCH   1  21
ATOM     21  C   UNL     1       6.176   3.444  13.625  0.00  0.00    +0.000 C 
BRANCH  21  22
ATOM     22  O   UNL     1       6.353   3.461  12.212  0.00  0.00    +0.000 OA
BRANCH  22  23
ATOM     23  C   UNL     1       5.350   2.693  11.547  0.00  0.00    +0.000 C 
BRANCH  23  25
ATOM     24  C   UNL     1       3.375   3.540  10.242  0.00  0.00    +0.000 C 
ATOM     25  C   UNL     1       4.037   3.460  11.606  0.00  0.00    +0.000 C 
ENDBRANCH  23  25
ENDBRANCH  22  23
ENDBRANCH  21  22
ENDBRANCH   1  21
TORSDOF 5
ENDMDL
MODEL 2
REMARK VINA RESULT:      -7.8      0.993      1.076
REMARK  Name = 
REMARK  7 active torsions:
REMARK  status: ('A' for Active; 'I' for Inactive)
REMARK    1  A    between atoms: C_1  and  C_2
REMARK    2  A    between atoms: C_2  and  C_3
REMARK    3  A    between atoms: C_3  and  O_4
REMARK    4  A    between atoms: O_4  and  C_5
REMARK    5  A    between atoms: C_5  and  C_6
REMARK    6  A    between atoms: C_10  and  C_11
REMARK    7  A    between atoms: C_10  and  C_12
REMARK                            x       y       z     vdW  Elec       q    Type
REMARK                         _______ _______ _______ _____ _____    ______ ____
ROOT
ATOM      1  C   UNL     1       6.250   4.924  14.169  0.00  0.00    +0.000 C 
ATOM      2  C   UNL     1       5.300   5.586  15.147  0.00  0.00    +0.000 C 
ATOM      3  C   UNL     1       5.798   5.142  16.512  0.00  0.00    +0.000 C 
ATOM      4  C   UNL     1       4.992   4.021  17.143  0.00  0.00    +0.000 C 
ATOM      5  C   UNL     1       4.678   4.509  18.564  0.00  0.00    +0.000 C 
ATOM      6  C   UNL     1       5.671   3.972  19.603  0.00  0.00    +0.000 C 
ATOM      7  O   UNL     1       4.859   5.934  18.513  0.00  0.00    +0.000 OA
ATOM      8  C   UNL     1       5.699   6.258  17.497  0.00  0.00    +0.000 C 
ATOM      9  O   UNL     1       6.224   7.355  17.385  0.00  0.00    +0.000 OA
ATOM     10  C   UNL     1       7.208   4.729  16.242  0.00  0.00    +0.000 C 
ATOM     11  O   UNL     1       8.024   4.395  17.087  0.00  0.00    +0.000 OA
ATOM     12  O   UNL     1       7.453   4.682  14.902  0.00  0.00    +0.000 OA
ENDROOT
BRANCH   5  13
ATOM     13  C   UNL     1       3.266   4.158  18.977  0.00  0.00    +0.000 A 
ATOM     14  C   UNL     1       2.469   4.845  19.875  0.00  0.00    +0.000 A 
ATOM     15  S   UNL     1       0.963   4.051  20.056  0.00  0.00    +0.000 S 
ATOM     16  C   UNL     1       1.469   2.853  18.939  0.00  0.00    +0.000 A 
ATOM     17  N   UNL     1       0.669   1.832  18.596  0.00  0.00    +0.000 N 
ATOM     18  N   UNL     1       2.670   3.018  18.444  0.00  0.00    +0.000 NA
ATOM     19  H   UNL     1      -0.323   1.917  18.775  0.00  0.00    +0.000 HD
ATOM     20  H   UNL     1       0.909   1.340  17.744  0.00  0.00    +0.000 HD
ENDBRANCH   5  13
BRANCH   1  21
ATOM     21  C   UNL     1       5.732   3.604  13.591  0.00  0.00    +0.000 C 
BRANCH  21  22
ATOM     22  O   UNL     1       6.208   3.446  12.258  0.00  0.00    +0.000 OA
BRANCH  22  23
ATOM     23  C   UNL     1       5.306   2.674  11.465  0.00  0.00    +0.000 C 
BRANCH  23  25
ATOM     24  C   UNL     1       3.449   3.760  10.164  0.00  0.00    +0.000 C 
ATOM     25  C   UNL     1       3.929   3.319  11.535  0.00  0.00    +0.000 C 
ENDBRANCH  23  25
ENDBRANCH  22  23
ENDBRANCH  21  22
ENDBRANCH   1  21
TORSDOF 5
ENDMDL
MODEL 3
REMARK VINA RESULT:      -7.6      0.641      1.067
REMARK  Name = 
REMARK  7 active torsions:
REMARK  status: ('A' for Active; 'I' for Inactive)
REMARK    1  A    between atoms: C_1  and  C_2
REMARK    2  A    between atoms: C_2  and  C_3
REMARK    3  A    between atoms: C_3  and  O_4
REMARK    4  A    between atoms: O_4  and  C_5
REMARK    5  A    between atoms: C_5  and  C_6
REMARK    6  A    between atoms: C_10  and  C_11
REMARK    7  A    between atoms: C_10  and  C_12
REMARK                            x       y       z     vdW  Elec       q    Type
REMARK                         _______ _______ _______ _____ _____    ______ ____
ROOT
ATOM      1  C   UNL     1       6.443   4.928  14.191  0.00  0.00    +0.000 C 
ATOM      2  C   UNL     1       5.359   5.464  15.104  0.00  0.00    +0.000 C 
ATOM      3  C   UNL     1       5.788   5.024  16.494  0.00  0.00    +0.000 C 
ATOM      4  C   UNL     1       5.049   3.811  17.029  0.00  0.00    +0.000 C 
ATOM      5  C   UNL     1       4.577   4.220  18.431  0.00  0.00    +0.000 C 
ATOM      6  C   UNL     1       5.533   3.747  19.534  0.00  0.00    +0.000 C 
ATOM      7  O   UNL     1       4.621   5.657  18.431  0.00  0.00    +0.000 OA
ATOM      8  C   UNL     1       5.503   6.093  17.495  0.00  0.00    +0.000 C 
ATOM      9  O   UNL     1       5.925   7.238  17.454  0.00  0.00    +0.000 OA
ATOM     10  C   UNL     1       7.249   4.757  16.330  0.00  0.00    +0.000 C 
ATOM     11  O   UNL     1       8.024   4.475  17.230  0.00  0.00    +0.000 OA
ATOM     12  O   UNL     1       7.603   4.778  15.014  0.00  0.00    +0.000 OA
ENDROOT
BRANCH   5  13
ATOM     13  C   UNL     1       3.178   3.723  18.718  0.00  0.00    +0.000 A 
ATOM     14  C   UNL     1       2.192   3.438  17.791  0.00  0.00    +0.000 A 
ATOM     15  S   UNL     1       0.759   2.943  18.585  0.00  0.00    +0.000 S 
ATOM     16  C   UNL     1       1.538   3.143  20.100  0.00  0.00    +0.000 A 
ATOM     17  N   UNL     1       0.903   2.889  21.253  0.00  0.00    +0.000 N 
ATOM     18  N   UNL     1       2.784   3.541  20.041  0.00  0.00    +0.000 NA
ATOM     19  H   UNL     1       0.067   2.319  21.229  0.00  0.00    +0.000 HD
ATOM     20  H   UNL     1       1.488   2.753  22.069  0.00  0.00    +0.000 HD
ENDBRANCH   5  13
BRANCH   1  21
ATOM     21  C   UNL     1       6.104   3.585  13.540  0.00  0.00    +0.000 C 
BRANCH  21  22
ATOM     22  O   UNL     1       4.897   3.707  12.792  0.00  0.00    +0.000 OA
BRANCH  22  23
ATOM     23  C   UNL     1       4.939   2.928  11.596  0.00  0.00    +0.000 C 
BRANCH  23  25
ATOM     24  C   UNL     1       6.115   0.768  11.075  0.00  0.00    +0.000 C 
ATOM     25  C   UNL     1       6.277   2.205  11.539  0.00  0.00    +0.000 C 
ENDBRANCH  23  25
ENDBRANCH  22  23
ENDBRANCH  21  22
ENDBRANCH   1  21
TORSDOF 5
ENDMDL
MODEL 4
REMARK VINA RESULT:      -7.6      1.228      1.612
REMARK  Name = 
REMARK  7 active torsions:
REMARK  status: ('A' for Active; 'I' for Inactive)
REMARK    1  A    between atoms: C_1  and  C_2
REMARK    2  A    between atoms: C_2  and  C_3
REMARK    3  A    between atoms: C_3  and  O_4
REMARK    4  A    between atoms: O_4  and  C_5
REMARK    5  A    between atoms: C_5  and  C_6
REMARK    6  A    between atoms: C_10  and  C_11
REMARK    7  A    between atoms: C_10  and  C_12
REMARK                            x       y       z     vdW  Elec       q    Type
REMARK                         _______ _______ _______ _____ _____    ______ ____
ROOT
ATOM      1  C   UNL     1       6.284   4.889  14.126  0.00  0.00    +0.000 C 
ATOM      2  C   UNL     1       5.325   5.560  15.089  0.00  0.00    +0.000 C 
ATOM      3  C   UNL     1       5.824   5.147  16.464  0.00  0.00    +0.000 C 
ATOM      4  C   UNL     1       5.030   4.029  17.114  0.00  0.00    +0.000 C 
ATOM      5  C   UNL     1       4.707   4.541  18.525  0.00  0.00    +0.000 C 
ATOM      6  C   UNL     1       5.704   4.035  19.576  0.00  0.00    +0.000 C 
ATOM      7  O   UNL     1       4.872   5.966  18.448  0.00  0.00    +0.000 OA
ATOM      8  C   UNL     1       5.711   6.280  17.427  0.00  0.00    +0.000 C 
ATOM      9  O   UNL     1       6.224   7.381  17.295  0.00  0.00    +0.000 OA
ATOM     10  C   UNL     1       7.240   4.745  16.204  0.00  0.00    +0.000 C 
ATOM     11  O   UNL     1       8.057   4.435  17.057  0.00  0.00    +0.000 OA
ATOM     12  O   UNL     1       7.489   4.675  14.867  0.00  0.00    +0.000 OA
ENDROOT
BRANCH   5  13
ATOM     13  C   UNL     1       3.298   4.182  18.941  0.00  0.00    +0.000 A 
ATOM     14  C   UNL     1       2.496   4.869  19.835  0.00  0.00    +0.000 A 
ATOM     15  S   UNL     1       0.997   4.065  20.023  0.00  0.00    +0.000 S 
ATOM     16  C   UNL     1       1.511   2.863  18.914  0.00  0.00    +0.000 A 
ATOM     17  N   UNL     1       0.719   1.834  18.579  0.00  0.00    +0.000 N 
ATOM     18  N   UNL     1       2.711   3.034  18.418  0.00  0.00    +0.000 NA
ATOM     19  H   UNL     1      -0.274   1.912  18.758  0.00  0.00    +0.000 HD
ATOM     20  H   UNL     1       0.961   1.337  17.731  0.00  0.00    +0.000 HD
ENDBRANCH   5  13
BRANCH   1  21
ATOM     21  C   UNL     1       5.782   3.553  13.573  0.00  0.00    +0.000 C 
BRANCH  21  22
ATOM     22  O   UNL     1       6.086   3.467  12.183  0.00  0.00    +0.000 OA
BRANCH  22  23
ATOM     23  C   UNL     1       5.481   2.322  11.583  0.00  0.00    +0.000 C 
BRANCH  23  25
ATOM     24  C   UNL     1       6.166  -0.076  11.267  0.00  0.00    +0.000 C 
ATOM     25  C   UNL     1       6.584   1.377  11.128  0.00  0.00    +0.000 C 
ENDBRANCH  23  25
ENDBRANCH  22  23
ENDBRANCH  21  22
ENDBRANCH   1  21
TORSDOF 5
ENDMDL
MODEL 5
REMARK VINA RESULT:      -7.4      3.690      5.768
REMARK  Name = 
REMARK  7 active torsions:
REMARK  status: ('A' for Active; 'I' for Inactive)
REMARK    1  A    between atoms: C_1  and  C_2
REMARK    2  A    between atoms: C_2  and  C_3
REMARK    3  A    between atoms: C_3  and  O_4
REMARK    4  A    between atoms: O_4  and  C_5
REMARK    5  A    between atoms: C_5  and  C_6
REMARK    6  A    between atoms: C_10  and  C_11
REMARK    7  A    between atoms: C_10  and  C_12
REMARK                            x       y       z     vdW  Elec       q    Type
REMARK                         _______ _______ _______ _____ _____    ______ ____
ROOT
ATOM      1  C   UNL     1       7.455   5.403  17.966  0.00  0.00    +0.000 C 
ATOM      2  C   UNL     1       6.487   5.394  19.131  0.00  0.00    +0.000 C 
ATOM      3  C   UNL     1       5.158   4.995  18.510  0.00  0.00    +0.000 C 
ATOM      4  C   UNL     1       4.201   6.149  18.272  0.00  0.00    +0.000 C 
ATOM      5  C   UNL     1       2.871   5.694  18.888  0.00  0.00    +0.000 C 
ATOM      6  C   UNL     1       1.919   5.086  17.849  0.00  0.00    +0.000 C 
ATOM      7  O   UNL     1       3.225   4.637  19.796  0.00  0.00    +0.000 OA
ATOM      8  C   UNL     1       4.406   4.082  19.420  0.00  0.00    +0.000 C 
ATOM      9  O   UNL     1       4.812   3.014  19.851  0.00  0.00    +0.000 OA
ATOM     10  C   UNL     1       5.564   4.336  17.232  0.00  0.00    +0.000 C 
ATOM     11  O   UNL     1       4.812   3.769  16.456  0.00  0.00    +0.000 OA
ATOM     12  O   UNL     1       6.891   4.528  16.986  0.00  0.00    +0.000 OA
ENDROOT
BRANCH   5  13
ATOM     13  C   UNL     1       2.177   6.823  19.618  0.00  0.00    +0.000 A 
ATOM     14  C   UNL     1       1.625   6.776  20.886  0.00  0.00    +0.000 A 
ATOM     15  S   UNL     1       0.914   8.283  21.276  0.00  0.00    +0.000 S 
ATOM     16  C   UNL     1       1.380   8.892  19.743  0.00  0.00    +0.000 A 
ATOM     17  N   UNL     1       1.102  10.152  19.375  0.00  0.00    +0.000 N 
ATOM     18  N   UNL     1       2.032   8.051  18.980  0.00  0.00    +0.000 NA
ATOM     19  H   UNL     1       0.868  10.823  20.095  0.00  0.00    +0.000 HD
ATOM     20  H   UNL     1       1.640  10.524  18.602  0.00  0.00    +0.000 HD
ENDBRANCH   5  13
BRANCH   1  21
ATOM     21  C   UNL     1       7.675   6.786  17.346  0.00  0.00    +0.000 C 
BRANCH  21  22
ATOM     22  O   UNL     1       8.174   7.680  18.337  0.00  0.00    +0.000 OA
BRANCH  22  23
ATOM     23  C   UNL     1       8.142   9.034  17.887  0.00  0.00    +0.000 C 
BRANCH  23  25
ATOM     24  C   UNL     1       9.378  11.202  18.195  0.00  0.00    +0.000 C 
ATOM     25  C   UNL     1       8.998   9.874  18.825  0.00  0.00    +0.000 C 
ENDBRANCH  23  25
ENDBRANCH  22  23
ENDBRANCH  21  22
ENDBRANCH   1  21
TORSDOF 5
ENDMDL
MODEL 6
REMARK VINA RESULT:      -7.3      3.156      3.817
REMARK  Name = 
REMARK  7 active torsions:
REMARK  status: ('A' for Active; 'I' for Inactive)
REMARK    1  A    between atoms: C_1  and  C_2
REMARK    2  A    between atoms: C_2  and  C_3
REMARK    3  A    between atoms: C_3  and  O_4
REMARK    4  A    between atoms: O_4  and  C_5
REMARK    5  A    between atoms: C_5  and  C_6
REMARK    6  A    between atoms: C_10  and  C_11
REMARK    7  A    between atoms: C_10  and  C_12
REMARK                            x       y       z     vdW  Elec       q    Type
REMARK                         _______ _______ _______ _____ _____    ______ ____
ROOT
ATOM      1  C   UNL     1       6.294   4.740  15.860  0.00  0.00    +0.000 C 
ATOM      2  C   UNL     1       6.082   5.601  17.089  0.00  0.00    +0.000 C 
ATOM      3  C   UNL     1       4.883   4.976  17.782  0.00  0.00    +0.000 C 
ATOM      4  C   UNL     1       3.573   5.710  17.561  0.00  0.00    +0.000 C 
ATOM      5  C   UNL     1       2.981   5.895  18.965  0.00  0.00    +0.000 C 
ATOM      6  C   UNL     1       1.961   4.806  19.322  0.00  0.00    +0.000 C 
ATOM      7  O   UNL     1       4.094   5.732  19.860  0.00  0.00    +0.000 OA
ATOM      8  C   UNL     1       5.063   4.992  19.263  0.00  0.00    +0.000 C 
ATOM      9  O   UNL     1       5.994   4.489  19.872  0.00  0.00    +0.000 OA
ATOM     10  C   UNL     1       4.847   3.592  17.217  0.00  0.00    +0.000 C 
ATOM     11  O   UNL     1       4.095   2.700  17.574  0.00  0.00    +0.000 OA
ATOM     12  O   UNL     1       5.711   3.472  16.170  0.00  0.00    +0.000 OA
ENDROOT
BRANCH   5  13
ATOM     13  C   UNL     1       2.351   7.260  19.131  0.00  0.00    +0.000 A 
ATOM     14  C   UNL     1       1.666   7.729  20.238  0.00  0.00    +0.000 A 
ATOM     15  S   UNL     1       1.098   9.318  19.952  0.00  0.00    +0.000 S 
ATOM     16  C   UNL     1       1.790   9.275  18.384  0.00  0.00    +0.000 A 
ATOM     17  N   UNL     1       1.700  10.321  17.549  0.00  0.00    +0.000 N 
ATOM     18  N   UNL     1       2.416   8.167  18.077  0.00  0.00    +0.000 NA
ATOM     19  H   UNL     1       1.472  11.228  17.935  0.00  0.00    +0.000 HD
ATOM     20  H   UNL     1       2.356  10.339  16.777  0.00  0.00    +0.000 HD
ENDBRANCH   5  13
BRANCH   1  21
ATOM     21  C   UNL     1       5.652   5.298  14.587  0.00  0.00    +0.000 C 
BRANCH  21  22
ATOM     22  O   UNL     1       5.193   4.223  13.772  0.00  0.00    +0.000 OA
BRANCH  22  23
ATOM     23  C   UNL     1       6.177   3.831  12.816  0.00  0.00    +0.000 C 
BRANCH  23  25
ATOM     24  C   UNL     1       4.219   3.263  11.345  0.00  0.00    +0.000 C 
ATOM     25  C   UNL     1       5.560   2.797  11.885  0.00  0.00    +0.000 C 
ENDBRANCH  23  25
ENDBRANCH  22  23
ENDBRANCH  21  22
ENDBRANCH   1  21
TORSDOF 5
ENDMDL
MODEL 7
REMARK VINA RESULT:      -7.0      3.051      3.676
REMARK  Name = 
REMARK  7 active torsions:
REMARK  status: ('A' for Active; 'I' for Inactive)
REMARK    1  A    between atoms: C_1  and  C_2
REMARK    2  A    between atoms: C_2  and  C_3
REMARK    3  A    between atoms: C_3  and  O_4
REMARK    4  A    between atoms: O_4  and  C_5
REMARK    5  A    between atoms: C_5  and  C_6
REMARK    6  A    between atoms: C_10  and  C_11
REMARK    7  A    between atoms: C_10  and  C_12
REMARK                            x       y       z     vdW  Elec       q    Type
REMARK                         _______ _______ _______ _____ _____    ______ ____
ROOT
ATOM      1  C   UNL     1       6.435   4.645  15.754  0.00  0.00    +0.000 C 
ATOM      2  C   UNL     1       6.194   5.579  16.922  0.00  0.00    +0.000 C 
ATOM      3  C   UNL     1       4.970   5.004  17.616  0.00  0.00    +0.000 C 
ATOM      4  C   UNL     1       3.673   5.732  17.312  0.00  0.00    +0.000 C 
ATOM      5  C   UNL     1       3.042   6.005  18.685  0.00  0.00    +0.000 C 
ATOM      6  C   UNL     1       2.003   4.946  19.076  0.00  0.00    +0.000 C 
ATOM      7  O   UNL     1       4.127   5.890  19.620  0.00  0.00    +0.000 OA
ATOM      8  C   UNL     1       5.107   5.110  19.097  0.00  0.00    +0.000 C 
ATOM      9  O   UNL     1       6.016   4.639  19.763  0.00  0.00    +0.000 OA
ATOM     10  C   UNL     1       4.940   3.590  17.134  0.00  0.00    +0.000 C 
ATOM     11  O   UNL     1       4.170   2.725  17.522  0.00  0.00    +0.000 OA
ATOM     12  O   UNL     1       5.833   3.401  16.123  0.00  0.00    +0.000 OA
ENDROOT
BRANCH   5  13
ATOM     13  C   UNL     1       2.417   7.382  18.749  0.00  0.00    +0.000 A 
ATOM     14  C   UNL     1       2.365   8.318  17.732  0.00  0.00    +0.000 A 
ATOM     15  S   UNL     1       1.596   9.745  18.281  0.00  0.00    +0.000 S 
ATOM     16  C   UNL     1       1.388   9.030  19.825  0.00  0.00    +0.000 A 
ATOM     17  N   UNL     1       0.784   9.687  20.826  0.00  0.00    +0.000 N 
ATOM     18  N   UNL     1       1.844   7.808  19.944  0.00  0.00    +0.000 NA
ATOM     19  H   UNL     1       0.207  10.486  20.599  0.00  0.00    +0.000 HD
ATOM     20  H   UNL     1       0.447   9.122  21.596  0.00  0.00    +0.000 HD
ENDBRANCH   5  13
BRANCH   1  21
ATOM     21  C   UNL     1       5.834   5.128  14.432  0.00  0.00    +0.000 C 
BRANCH  21  22
ATOM     22  O   UNL     1       5.398   4.008  13.666  0.00  0.00    +0.000 OA
BRANCH  22  23
ATOM     23  C   UNL     1       6.339   3.670  12.647  0.00  0.00    +0.000 C 
BRANCH  23  25
ATOM     24  C   UNL     1       6.825   1.695  11.169  0.00  0.00    +0.000 C 
ATOM     25  C   UNL     1       5.744   2.560  11.792  0.00  0.00    +0.000 C 
ENDBRANCH  23  25
ENDBRANCH  22  23
ENDBRANCH  21  22
ENDBRANCH   1  21
TORSDOF 5
ENDMDL
MODEL 8
REMARK VINA RESULT:      -6.9      3.733      5.729
REMARK  Name = 
REMARK  7 active torsions:
REMARK  status: ('A' for Active; 'I' for Inactive)
REMARK    1  A    between atoms: C_1  and  C_2
REMARK    2  A    between atoms: C_2  and  C_3
REMARK    3  A    between atoms: C_3  and  O_4
REMARK    4  A    between atoms: O_4  and  C_5
REMARK    5  A    between atoms: C_5  and  C_6
REMARK    6  A    between atoms: C_10  and  C_11
REMARK    7  A    between atoms: C_10  and  C_12
REMARK                            x       y       z     vdW  Elec       q    Type
REMARK                         _______ _______ _______ _____ _____    ______ ____
ROOT
ATOM      1  C   UNL     1       7.272   5.288  18.157  0.00  0.00    +0.000 C 
ATOM      2  C   UNL     1       6.244   5.471  19.254  0.00  0.00    +0.000 C 
ATOM      3  C   UNL     1       4.921   5.125  18.591  0.00  0.00    +0.000 C 
ATOM      4  C   UNL     1       4.084   6.325  18.188  0.00  0.00    +0.000 C 
ATOM      5  C   UNL     1       2.687   6.042  18.758  0.00  0.00    +0.000 C 
ATOM      6  C   UNL     1       1.744   5.418  17.722  0.00  0.00    +0.000 C 
ATOM      7  O   UNL     1       2.897   5.053  19.779  0.00  0.00    +0.000 OA
ATOM      8  C   UNL     1       4.043   4.369  19.531  0.00  0.00    +0.000 C 
ATOM      9  O   UNL     1       4.329   3.317  20.082  0.00  0.00    +0.000 OA
ATOM     10  C   UNL     1       5.338   4.314  17.406  0.00  0.00    +0.000 C 
ATOM     11  O   UNL     1       4.582   3.739  16.639  0.00  0.00    +0.000 OA
ATOM     12  O   UNL     1       6.687   4.372  17.227  0.00  0.00    +0.000 OA
ENDROOT
BRANCH   5  13
ATOM     13  C   UNL     1       2.056   7.289  19.337  0.00  0.00    +0.000 A 
ATOM     14  C   UNL     1       1.759   8.460  18.662  0.00  0.00    +0.000 A 
ATOM     15  S   UNL     1       1.091   9.610  19.739  0.00  0.00    +0.000 S 
ATOM     16  C   UNL     1       1.246   8.486  21.024  0.00  0.00    +0.000 A 
ATOM     17  N   UNL     1       0.858   8.791  22.272  0.00  0.00    +0.000 N 
ATOM     18  N   UNL     1       1.748   7.322  20.694  0.00  0.00    +0.000 NA
ATOM     19  H   UNL     1       0.224   9.568  22.403  0.00  0.00    +0.000 HD
ATOM     20  H   UNL     1       0.712   8.010  22.901  0.00  0.00    +0.000 HD
ENDBRANCH   5  13
BRANCH   1  21
ATOM     21  C   UNL     1       7.646   6.582  17.428  0.00  0.00    +0.000 C 
BRANCH  21  22
ATOM     22  O   UNL     1       8.217   7.503  18.353  0.00  0.00    +0.000 OA
BRANCH  22  23
ATOM     23  C   UNL     1       8.106   8.849  17.891  0.00  0.00    +0.000 C 
BRANCH  23  25
ATOM     24  C   UNL     1       9.422  10.980  18.113  0.00  0.00    +0.000 C 
ATOM     25  C   UNL     1       8.899   9.748  18.829  0.00  0.00    +0.000 C 
ENDBRANCH  23  25
ENDBRANCH  22  23
ENDBRANCH  21  22
ENDBRANCH   1  21
TORSDOF 5
ENDMDL
MODEL 9
REMARK VINA RESULT:      -6.9      3.736      6.297
REMARK  Name = 
REMARK  7 active torsions:
REMARK  status: ('A' for Active; 'I' for Inactive)
REMARK    1  A    between atoms: C_1  and  C_2
REMARK    2  A    between atoms: C_2  and  C_3
REMARK    3  A    between atoms: C_3  and  O_4
REMARK    4  A    between atoms: O_4  and  C_5
REMARK    5  A    between atoms: C_5  and  C_6
REMARK    6  A    between atoms: C_10  and  C_11
REMARK    7  A    between atoms: C_10  and  C_12
REMARK                            x       y       z     vdW  Elec       q    Type
REMARK                         _______ _______ _______ _____ _____    ______ ____
ROOT
ATOM      1  C   UNL     1       3.901   2.638  20.090  0.00  0.00    +0.000 C 
ATOM      2  C   UNL     1       5.192   2.945  19.359  0.00  0.00    +0.000 C 
ATOM      3  C   UNL     1       5.007   4.365  18.851  0.00  0.00    +0.000 C 
ATOM      4  C   UNL     1       4.644   4.468  17.381  0.00  0.00    +0.000 C 
ATOM      5  C   UNL     1       5.629   5.492  16.801  0.00  0.00    +0.000 C 
ATOM      6  C   UNL     1       5.037   6.906  16.734  0.00  0.00    +0.000 C 
ATOM      7  O   UNL     1       6.713   5.539  17.744  0.00  0.00    +0.000 OA
ATOM      8  C   UNL     1       6.279   5.135  18.966  0.00  0.00    +0.000 C 
ATOM      9  O   UNL     1       6.911   5.318  19.995  0.00  0.00    +0.000 OA
ATOM     10  C   UNL     1       3.923   4.901  19.730  0.00  0.00    +0.000 C 
ATOM     11  O   UNL     1       3.522   6.055  19.738  0.00  0.00    +0.000 OA
ATOM     12  O   UNL     1       3.361   3.906  20.471  0.00  0.00    +0.000 OA
ENDROOT
BRANCH   5  13
ATOM     13  C   UNL     1       6.123   5.080  15.432  0.00  0.00    +0.000 A 
ATOM     14  C   UNL     1       5.573   4.116  14.606  0.00  0.00    +0.000 A 
ATOM     15  S   UNL     1       6.496   3.968  13.173  0.00  0.00    +0.000 S 
ATOM     16  C   UNL     1       7.563   5.183  13.743  0.00  0.00    +0.000 A 
ATOM     17  N   UNL     1       8.616   5.588  13.018  0.00  0.00    +0.000 N 
ATOM     18  N   UNL     1       7.264   5.687  14.915  0.00  0.00    +0.000 NA
ATOM     19  H   UNL     1       8.626   5.384  12.027  0.00  0.00    +0.000 HD
ATOM     20  H   UNL     1       9.022   6.480  13.274  0.00  0.00    +0.000 HD
ENDBRANCH   5  13
BRANCH   1  21
ATOM     21  C   UNL     1       2.871   1.879  19.248  0.00  0.00    +0.000 C 
BRANCH  21  22
ATOM     22  O   UNL     1       1.597   1.938  19.884  0.00  0.00    +0.000 OA
BRANCH  22  23
ATOM     23  C   UNL     1       0.679   2.746  19.148  0.00  0.00    +0.000 C 
BRANCH  23  25
ATOM     24  C   UNL     1       1.182   4.621  17.550  0.00  0.00    +0.000 C 
ATOM     25  C   UNL     1       1.330   3.135  17.829  0.00  0.00    +0.000 C 
ENDBRANCH  23  25
ENDBRANCH  22  23
ENDBRANCH  21  22
ENDBRANCH   1  21
TORSDOF 5
ENDMDL
