MODEL 1
REMARK VINA RESULT:      -7.7      0.000      0.000
REMARK  Name = 
REMARK  5 active torsions:
REMARK  status: ('A' for Active; 'I' for Inactive)
REMARK    1  A    between atoms: C_1  and  C_2
REMARK    2  A    between atoms: C_4  and  C_5
REMARK    3  A    between atoms: C_6  and  C_7
REMARK    4  A    between atoms: N_11  and  C_12
REMARK    5  A    between atoms: C_18  and  C_19
REMARK                            x       y       z     vdW  Elec       q    Type
REMARK                         _______ _______ _______ _____ _____    ______ ____
ROOT
ATOM      1  C   UNL     1       5.364   5.054  18.556  0.00  0.00    +0.000 A 
ATOM      2  C   UNL     1       6.454   5.484  19.284  0.00  0.00    +0.000 A 
ATOM      3  S   UNL     1       7.708   5.984  18.224  0.00  0.00    +0.000 S 
ATOM      4  C   UNL     1       6.750   5.515  16.873  0.00  0.00    +0.000 A 
ATOM      5  N   UNL     1       7.202   5.687  15.609  0.00  0.00    +0.000 N 
ATOM      6  N   UNL     1       5.570   5.024  17.193  0.00  0.00    +0.000 NA
ATOM      7  H   UNL     1       7.994   6.295  15.451  0.00  0.00    +0.000 HD
ENDROOT
BRANCH   5   8
ATOM      8  C   UNL     1       6.800   4.921  14.492  0.00  0.00    +0.000 A 
ATOM      9  C   UNL     1       5.652   4.105  14.560  0.00  0.00    +0.000 A 
ATOM     10  C   UNL     1       5.192   3.388  13.456  0.00  0.00    +0.000 A 
ATOM     11  C   UNL     1       5.866   3.492  12.249  0.00  0.00    +0.000 A 
ATOM     12  C   UNL     1       6.998   4.297  12.162  0.00  0.00    +0.000 A 
ATOM     13  F   UNL     1       7.616   4.391  10.976  0.00  0.00    +0.000 F 
ATOM     14  C   UNL     1       7.490   5.009  13.266  0.00  0.00    +0.000 A 
ATOM     15  C   UNL     1       8.705   5.876  13.099  0.00  0.00    +0.000 C 
ENDBRANCH   5   8
BRANCH   1  21
ATOM     16  C   UNL     1       1.203   2.828  21.044  0.00  0.00    +0.000 C 
ATOM     17  C   UNL     1       2.130   3.713  20.288  0.00  0.00    +0.000 A 
ATOM     18  N   UNL     1       1.833   4.926  19.881  0.00  0.00    +0.000 NA
ATOM     19  C   UNL     1       2.920   5.491  19.220  0.00  0.00    +0.000 A 
ATOM     20  C   UNL     1       2.752   6.873  18.688  0.00  0.00    +0.000 C 
ATOM     21  C   UNL     1       4.040   4.675  19.148  0.00  0.00    +0.000 A 
ATOM     22  S   UNL     1       3.704   3.167  19.889  0.00  0.00    +0.000 S 
ENDBRANCH   1  21
TORSDOF 2
ENDMDL
MODEL 2
REMARK VINA RESULT:      -7.6      2.963      4.820
REMARK  Name = 
REMARK  5 active torsions:
REMARK  status: ('A' for Active; 'I' for Inactive)
REMARK    1  A    between atoms: C_1  and  C_2
REMARK    2  A    between atoms: C_4  and  C_5
REMARK    3  A    between atoms: C_6  and  C_7
REMARK    4  A    between atoms: N_11  and  C_12
REMARK    5  A    between atoms: C_18  and  C_19
REMARK                            x       y       z     vdW  Elec       q    Type
REMARK                         _______ _______ _______ _____ _____    ______ ____
ROOT
ATOM      1  C   UNL     1       2.133   6.274  20.121  0.00  0.00    +0.000 A 
ATOM      2  C   UNL     1       1.557   5.235  20.823  0.00  0.00    +0.000 A 
ATOM      3  S   UNL     1       2.507   3.816  20.654  0.00  0.00    +0.000 S 
ATOM      4  C   UNL     1       3.570   4.655  19.593  0.00  0.00    +0.000 A 
ATOM      5  N   UNL     1       4.657   4.041  19.069  0.00  0.00    +0.000 N 
ATOM      6  N   UNL     1       3.241   5.914  19.383  0.00  0.00    +0.000 NA
ATOM      7  H   UNL     1       4.970   3.171  19.478  0.00  0.00    +0.000 HD
ENDROOT
BRANCH   5   8
ATOM      8  C   UNL     1       5.282   4.394  17.853  0.00  0.00    +0.000 A 
ATOM      9  C   UNL     1       4.759   3.946  16.624  0.00  0.00    +0.000 A 
ATOM     10  C   UNL     1       5.314   4.329  15.403  0.00  0.00    +0.000 A 
ATOM     11  C   UNL     1       6.398   5.193  15.391  0.00  0.00    +0.000 A 
ATOM     12  C   UNL     1       6.924   5.652  16.596  0.00  0.00    +0.000 A 
ATOM     13  F   UNL     1       7.961   6.501  16.550  0.00  0.00    +0.000 F 
ATOM     14  C   UNL     1       6.395   5.259  17.835  0.00  0.00    +0.000 A 
ATOM     15  C   UNL     1       6.997   5.807  19.097  0.00  0.00    +0.000 C 
ENDBRANCH   5   8
BRANCH   1  21
ATOM     16  C   UNL     1       0.348  11.154  21.327  0.00  0.00    +0.000 C 
ATOM     17  C   UNL     1       0.868   9.930  20.661  0.00  0.00    +0.000 A 
ATOM     18  N   UNL     1       1.252   9.873  19.407  0.00  0.00    +0.000 NA
ATOM     19  C   UNL     1       1.701   8.592  19.099  0.00  0.00    +0.000 A 
ATOM     20  C   UNL     1       2.175   8.351  17.706  0.00  0.00    +0.000 C 
ATOM     21  C   UNL     1       1.652   7.693  20.154  0.00  0.00    +0.000 A 
ATOM     22  S   UNL     1       0.996   8.463  21.538  0.00  0.00    +0.000 S 
ENDBRANCH   1  21
TORSDOF 2
ENDMDL
MODEL 3
REMARK VINA RESULT:      -7.6      3.769      7.678
REMARK  Name = 
REMARK  5 active torsions:
REMARK  status: ('A' for Active; 'I' for Inactive)
REMARK    1  A    between atoms: C_1  and  C_2
REMARK    2  A    between atoms: C_4  and  C_5
REMARK    3  A    between atoms: C_6  and  C_7
REMARK    4  A    between atoms: N_11  and  C_12
REMARK    5  A    between atoms: C_18  and  C_19
REMARK                            x       y       z     vdW  Elec       q    Type
REMARK                         _______ _______ _______ _____ _____    ______ ____
ROOT
ATOM      1  C   UNL     1       4.805   5.168  18.093  0.00  0.00    +0.000 A 
ATOM      2  C   UNL     1       4.826   4.221  19.096  0.00  0.00    +0.000 A 
ATOM      3  S   UNL     1       3.518   4.482  20.176  0.00  0.00    +0.000 S 
ATOM      4  C   UNL     1       3.067   5.885  19.287  0.00  0.00    +0.000 A 
ATOM      5  N   UNL     1       1.984   6.614  19.645  0.00  0.00    +0.000 N 
ATOM      6  N   UNL     1       3.837   6.137  18.249  0.00  0.00    +0.000 NA
ATOM      7  H   UNL     1       1.314   6.212  20.286  0.00  0.00    +0.000 HD
ENDROOT
BRANCH   5   8
ATOM      8  C   UNL     1       1.804   7.988  19.370  0.00  0.00    +0.000 A 
ATOM      9  C   UNL     1       2.128   8.512  18.103  0.00  0.00    +0.000 A 
ATOM     10  C   UNL     1       1.902   9.849  17.779  0.00  0.00    +0.000 A 
ATOM     11  C   UNL     1       1.322  10.687  18.718  0.00  0.00    +0.000 A 
ATOM     12  C   UNL     1       0.990  10.186  19.973  0.00  0.00    +0.000 A 
ATOM     13  F   UNL     1       0.414  11.018  20.853  0.00  0.00    +0.000 F 
ATOM     14  C   UNL     1       1.231   8.850  20.327  0.00  0.00    +0.000 A 
ATOM     15  C   UNL     1       0.829   8.368  21.692  0.00  0.00    +0.000 C 
ENDBRANCH   5   8
BRANCH   1  21
ATOM     16  C   UNL     1       7.227   4.583  13.376  0.00  0.00    +0.000 C 
ATOM     17  C   UNL     1       6.839   4.946  14.765  0.00  0.00    +0.000 A 
ATOM     18  N   UNL     1       7.499   5.790  15.525  0.00  0.00    +0.000 NA
ATOM     19  C   UNL     1       6.867   5.923  16.757  0.00  0.00    +0.000 A 
ATOM     20  C   UNL     1       7.490   6.848  17.747  0.00  0.00    +0.000 C 
ATOM     21  C   UNL     1       5.714   5.165  16.901  0.00  0.00    +0.000 A 
ATOM     22  S   UNL     1       5.447   4.246  15.479  0.00  0.00    +0.000 S 
ENDBRANCH   1  21
TORSDOF 2
ENDMDL
MODEL 4
REMARK VINA RESULT:      -7.5      2.949      4.985
REMARK  Name = 
REMARK  5 active torsions:
REMARK  status: ('A' for Active; 'I' for Inactive)
REMARK    1  A    between atoms: C_1  and  C_2
REMARK    2  A    between atoms: C_4  and  C_5
REMARK    3  A    between atoms: C_6  and  C_7
REMARK    4  A    between atoms: N_11  and  C_12
REMARK    5  A    between atoms: C_18  and  C_19
REMARK                            x       y       z     vdW  Elec       q    Type
REMARK                         _______ _______ _______ _____ _____    ______ ____
ROOT
ATOM      1  C   UNL     1       2.100   6.381  20.187  0.00  0.00    +0.000 A 
ATOM      2  C   UNL     1       1.451   5.376  20.872  0.00  0.00    +0.000 A 
ATOM      3  S   UNL     1       2.377   3.932  20.812  0.00  0.00    +0.000 S 
ATOM      4  C   UNL     1       3.533   4.718  19.808  0.00  0.00    +0.000 A 
ATOM      5  N   UNL     1       4.639   4.065  19.381  0.00  0.00    +0.000 N 
ATOM      6  N   UNL     1       3.249   5.977  19.541  0.00  0.00    +0.000 NA
ATOM      7  H   UNL     1       4.902   3.201  19.834  0.00  0.00    +0.000 HD
ENDROOT
BRANCH   5   8
ATOM      8  C   UNL     1       5.359   4.370  18.204  0.00  0.00    +0.000 A 
ATOM      9  C   UNL     1       6.675   4.868  18.280  0.00  0.00    +0.000 A 
ATOM     10  C   UNL     1       7.434   5.118  17.138  0.00  0.00    +0.000 A 
ATOM     11  C   UNL     1       6.893   4.851  15.890  0.00  0.00    +0.000 A 
ATOM     12  C   UNL     1       5.597   4.352  15.796  0.00  0.00    +0.000 A 
ATOM     13  F   UNL     1       5.109   4.086  14.576  0.00  0.00    +0.000 F 
ATOM     14  C   UNL     1       4.808   4.116  16.932  0.00  0.00    +0.000 A 
ATOM     15  C   UNL     1       3.424   3.558  16.762  0.00  0.00    +0.000 C 
ENDBRANCH   5   8
BRANCH   1  21
ATOM     16  C   UNL     1       0.423  11.355  21.139  0.00  0.00    +0.000 C 
ATOM     17  C   UNL     1       0.917  10.088  20.538  0.00  0.00    +0.000 A 
ATOM     18  N   UNL     1       1.304   9.959  19.289  0.00  0.00    +0.000 NA
ATOM     19  C   UNL     1       1.725   8.655  19.048  0.00  0.00    +0.000 A 
ATOM     20  C   UNL     1       2.197   8.333  17.671  0.00  0.00    +0.000 C 
ATOM     21  C   UNL     1       1.651   7.811  20.147  0.00  0.00    +0.000 A 
ATOM     22  S   UNL     1       1.009   8.664  21.487  0.00  0.00    +0.000 S 
ENDBRANCH   1  21
TORSDOF 2
ENDMDL
MODEL 5
REMARK VINA RESULT:      -7.1      3.331      5.376
REMARK  Name = 
REMARK  5 active torsions:
REMARK  status: ('A' for Active; 'I' for Inactive)
REMARK    1  A    between atoms: C_1  and  C_2
REMARK    2  A    between atoms: C_4  and  C_5
REMARK    3  A    between atoms: C_6  and  C_7
REMARK    4  A    between atoms: N_11  and  C_12
REMARK    5  A    between atoms: C_18  and  C_19
REMARK                            x       y       z     vdW  Elec       q    Type
REMARK                         _______ _______ _______ _____ _____    ______ ____
ROOT
ATOM      1  C   UNL     1       1.963   7.134  20.050  0.00  0.00    +0.000 A 
ATOM      2  C   UNL     1       1.306   6.166  20.781  0.00  0.00    +0.000 A 
ATOM      3  S   UNL     1       2.228   4.719  20.799  0.00  0.00    +0.000 S 
ATOM      4  C   UNL     1       3.392   5.449  19.765  0.00  0.00    +0.000 A 
ATOM      5  N   UNL     1       4.500   4.773  19.379  0.00  0.00    +0.000 N 
ATOM      6  N   UNL     1       3.115   6.694  19.433  0.00  0.00    +0.000 NA
ATOM      7  H   UNL     1       4.756   3.932  19.876  0.00  0.00    +0.000 HD
ENDROOT
BRANCH   5   8
ATOM      8  C   UNL     1       5.227   5.016  18.192  0.00  0.00    +0.000 A 
ATOM      9  C   UNL     1       6.405   5.790  18.222  0.00  0.00    +0.000 A 
ATOM     10  C   UNL     1       7.180   5.995  17.082  0.00  0.00    +0.000 A 
ATOM     11  C   UNL     1       6.800   5.405  15.886  0.00  0.00    +0.000 A 
ATOM     12  C   UNL     1       5.643   4.633  15.839  0.00  0.00    +0.000 A 
ATOM     13  F   UNL     1       5.311   4.062  14.672  0.00  0.00    +0.000 F 
ATOM     14  C   UNL     1       4.836   4.434  16.970  0.00  0.00    +0.000 A 
ATOM     15  C   UNL     1       3.611   3.572  16.856  0.00  0.00    +0.000 C 
ENDBRANCH   5   8
BRANCH   1  21
ATOM     16  C   UNL     1       0.362  12.000  18.560  0.00  0.00    +0.000 C 
ATOM     17  C   UNL     1       0.765  10.777  19.305  0.00  0.00    +0.000 A 
ATOM     18  N   UNL     1       0.697  10.645  20.609  0.00  0.00    +0.000 NA
ATOM     19  C   UNL     1       1.131   9.379  20.988  0.00  0.00    +0.000 A 
ATOM     20  C   UNL     1       1.122   9.060  22.444  0.00  0.00    +0.000 C 
ATOM     21  C   UNL     1       1.519   8.562  19.935  0.00  0.00    +0.000 A 
ATOM     22  S   UNL     1       1.369   9.415  18.457  0.00  0.00    +0.000 S 
ENDBRANCH   1  21
TORSDOF 2
ENDMDL
MODEL 6
REMARK VINA RESULT:      -7.0      4.906      7.155
REMARK  Name = 
REMARK  5 active torsions:
REMARK  status: ('A' for Active; 'I' for Inactive)
REMARK    1  A    between atoms: C_1  and  C_2
REMARK    2  A    between atoms: C_4  and  C_5
REMARK    3  A    between atoms: C_6  and  C_7
REMARK    4  A    between atoms: N_11  and  C_12
REMARK    5  A    between atoms: C_18  and  C_19
REMARK                            x       y       z     vdW  Elec       q    Type
REMARK                         _______ _______ _______ _____ _____    ______ ____
ROOT
ATOM      1  C   UNL     1       1.594   8.692  19.210  0.00  0.00    +0.000 A 
ATOM      2  C   UNL     1       2.422   9.192  18.227  0.00  0.00    +0.000 A 
ATOM      3  S   UNL     1       3.205   7.903  17.408  0.00  0.00    +0.000 S 
ATOM      4  C   UNL     1       2.457   6.775  18.471  0.00  0.00    +0.000 A 
ATOM      5  N   UNL     1       2.666   5.445  18.331  0.00  0.00    +0.000 N 
ATOM      6  N   UNL     1       1.670   7.325  19.374  0.00  0.00    +0.000 NA
ATOM      7  H   UNL     1       3.071   5.103  17.471  0.00  0.00    +0.000 HD
ENDROOT
BRANCH   5   8
ATOM      8  C   UNL     1       2.566   4.494  19.371  0.00  0.00    +0.000 A 
ATOM      9  C   UNL     1       1.334   4.266  20.015  0.00  0.00    +0.000 A 
ATOM     10  C   UNL     1       1.187   3.290  21.000  0.00  0.00    +0.000 A 
ATOM     11  C   UNL     1       2.275   2.502  21.343  0.00  0.00    +0.000 A 
ATOM     12  C   UNL     1       3.499   2.709  20.713  0.00  0.00    +0.000 A 
ATOM     13  F   UNL     1       4.527   1.919  21.054  0.00  0.00    +0.000 F 
ATOM     14  C   UNL     1       3.673   3.702  19.737  0.00  0.00    +0.000 A 
ATOM     15  C   UNL     1       5.015   3.859  19.080  0.00  0.00    +0.000 C 
ENDBRANCH   5   8
BRANCH   1  21
ATOM     16  C   UNL     1      -1.029  11.457  22.943  0.00  0.00    +0.000 C 
ATOM     17  C   UNL     1      -0.559  10.808  21.690  0.00  0.00    +0.000 A 
ATOM     18  N   UNL     1      -1.096  10.999  20.507  0.00  0.00    +0.000 NA
ATOM     19  C   UNL     1      -0.414  10.262  19.544  0.00  0.00    +0.000 A 
ATOM     20  C   UNL     1      -0.897  10.362  18.138  0.00  0.00    +0.000 C 
ATOM     21  C   UNL     1       0.652   9.520  20.032  0.00  0.00    +0.000 A 
ATOM     22  S   UNL     1       0.769   9.726  21.729  0.00  0.00    +0.000 S 
ENDBRANCH   1  21
TORSDOF 2
ENDMDL
MODEL 7
REMARK VINA RESULT:      -6.9      5.333      7.862
REMARK  Name = 
REMARK  5 active torsions:
REMARK  status: ('A' for Active; 'I' for Inactive)
REMARK    1  A    between atoms: C_1  and  C_2
REMARK    2  A    between atoms: C_4  and  C_5
REMARK    3  A    between atoms: C_6  and  C_7
REMARK    4  A    between atoms: N_11  and  C_12
REMARK    5  A    between atoms: C_18  and  C_19
REMARK                            x       y       z     vdW  Elec       q    Type
REMARK                         _______ _______ _______ _____ _____    ______ ____
ROOT
ATOM      1  C   UNL     1      -0.001   9.782  20.041  0.00  0.00    +0.000 A 
ATOM      2  C   UNL     1       0.164  10.279  21.317  0.00  0.00    +0.000 A 
ATOM      3  S   UNL     1       1.266   9.296  22.191  0.00  0.00    +0.000 S 
ATOM      4  C   UNL     1       1.380   8.230  20.845  0.00  0.00    +0.000 A 
ATOM      5  N   UNL     1       2.191   7.146  20.884  0.00  0.00    +0.000 N 
ATOM      6  N   UNL     1       0.649   8.588  19.809  0.00  0.00    +0.000 NA
ATOM      7  H   UNL     1       2.896   7.090  21.606  0.00  0.00    +0.000 HD
ENDROOT
BRANCH   5   8
ATOM      8  C   UNL     1       2.006   5.966  20.129  0.00  0.00    +0.000 A 
ATOM      9  C   UNL     1       1.175   4.934  20.608  0.00  0.00    +0.000 A 
ATOM     10  C   UNL     1       0.921   3.786  19.859  0.00  0.00    +0.000 A 
ATOM     11  C   UNL     1       1.482   3.660  18.597  0.00  0.00    +0.000 A 
ATOM     12  C   UNL     1       2.301   4.672  18.105  0.00  0.00    +0.000 A 
ATOM     13  F   UNL     1       2.813   4.528  16.875  0.00  0.00    +0.000 F 
ATOM     14  C   UNL     1       2.588   5.824  18.853  0.00  0.00    +0.000 A 
ATOM     15  C   UNL     1       3.463   6.889  18.255  0.00  0.00    +0.000 C 
ENDBRANCH   5   8
BRANCH   1  21
ATOM     16  C   UNL     1      -3.422  11.303  16.240  0.00  0.00    +0.000 C 
ATOM     17  C   UNL     1      -2.328  11.204  17.244  0.00  0.00    +0.000 A 
ATOM     18  N   UNL     1      -1.522  12.189  17.565  0.00  0.00    +0.000 NA
ATOM     19  C   UNL     1      -0.625  11.777  18.545  0.00  0.00    +0.000 A 
ATOM     20  C   UNL     1       0.370  12.778  19.025  0.00  0.00    +0.000 C 
ATOM     21  C   UNL     1      -0.783  10.462  18.957  0.00  0.00    +0.000 A 
ATOM     22  S   UNL     1      -2.053   9.728  18.071  0.00  0.00    +0.000 S 
ENDBRANCH   1  21
TORSDOF 2
ENDMDL
MODEL 8
REMARK VINA RESULT:      -6.9      3.613      6.923
REMARK  Name = 
REMARK  5 active torsions:
REMARK  status: ('A' for Active; 'I' for Inactive)
REMARK    1  A    between atoms: C_1  and  C_2
REMARK    2  A    between atoms: C_4  and  C_5
REMARK    3  A    between atoms: C_6  and  C_7
REMARK    4  A    between atoms: N_11  and  C_12
REMARK    5  A    between atoms: C_18  and  C_19
REMARK                            x       y       z     vdW  Elec       q    Type
REMARK                         _______ _______ _______ _____ _____    ______ ____
ROOT
ATOM      1  C   UNL     1       6.464   5.398  17.096  0.00  0.00    +0.000 A 
ATOM      2  C   UNL     1       6.832   4.644  16.002  0.00  0.00    +0.000 A 
ATOM      3  S   UNL     1       5.554   3.586  15.562  0.00  0.00    +0.000 S 
ATOM      4  C   UNL     1       4.635   4.141  16.907  0.00  0.00    +0.000 A 
ATOM      5  N   UNL     1       3.389   3.666  17.139  0.00  0.00    +0.000 N 
ATOM      6  N   UNL     1       5.239   5.060  17.632  0.00  0.00    +0.000 NA
ATOM      7  H   UNL     1       2.912   3.164  16.402  0.00  0.00    +0.000 HD
ENDROOT
BRANCH   5   8
ATOM      8  C   UNL     1       2.759   3.621  18.403  0.00  0.00    +0.000 A 
ATOM      9  C   UNL     1       2.802   2.446  19.180  0.00  0.00    +0.000 A 
ATOM     10  C   UNL     1       2.247   2.388  20.458  0.00  0.00    +0.000 A 
ATOM     11  C   UNL     1       1.654   3.521  20.993  0.00  0.00    +0.000 A 
ATOM     12  C   UNL     1       1.608   4.692  20.242  0.00  0.00    +0.000 A 
ATOM     13  F   UNL     1       1.044   5.776  20.795  0.00  0.00    +0.000 F 
ATOM     14  C   UNL     1       2.140   4.764  18.945  0.00  0.00    +0.000 A 
ATOM     15  C   UNL     1       2.075   6.065  18.197  0.00  0.00    +0.000 C 
ENDBRANCH   5   8
BRANCH   1  21
ATOM     16  C   UNL     1       8.831  10.005  18.377  0.00  0.00    +0.000 C 
ATOM     17  C   UNL     1       8.356   8.597  18.300  0.00  0.00    +0.000 A 
ATOM     18  N   UNL     1       8.637   7.669  19.185  0.00  0.00    +0.000 NA
ATOM     19  C   UNL     1       8.028   6.468  18.834  0.00  0.00    +0.000 A 
ATOM     20  C   UNL     1       8.246   5.301  19.734  0.00  0.00    +0.000 C 
ATOM     21  C   UNL     1       7.277   6.521  17.668  0.00  0.00    +0.000 A 
ATOM     22  S   UNL     1       7.373   8.092  16.991  0.00  0.00    +0.000 S 
ENDBRANCH   1  21
TORSDOF 2
ENDMDL
MODEL 9
REMARK VINA RESULT:      -6.9      3.282      5.198
REMARK  Name = 
REMARK  5 active torsions:
REMARK  status: ('A' for Active; 'I' for Inactive)
REMARK    1  A    between atoms: C_1  and  C_2
REMARK    2  A    between atoms: C_4  and  C_5
REMARK    3  A    between atoms: C_6  and  C_7
REMARK    4  A    between atoms: N_11  and  C_12
REMARK    5  A    between atoms: C_18  and  C_19
REMARK                            x       y       z     vdW  Elec       q    Type
REMARK                         _______ _______ _______ _____ _____    ______ ____
ROOT
ATOM      1  C   UNL     1       2.022   6.922  20.009  0.00  0.00    +0.000 A 
ATOM      2  C   UNL     1       1.389   6.010  20.828  0.00  0.00    +0.000 A 
ATOM      3  S   UNL     1       2.249   4.524  20.824  0.00  0.00    +0.000 S 
ATOM      4  C   UNL     1       3.351   5.168  19.669  0.00  0.00    +0.000 A 
ATOM      5  N   UNL     1       4.393   4.430  19.218  0.00  0.00    +0.000 N 
ATOM      6  N   UNL     1       3.098   6.412  19.316  0.00  0.00    +0.000 NA
ATOM      7  H   UNL     1       4.656   3.596  19.724  0.00  0.00    +0.000 HD
ENDROOT
BRANCH   5   8
ATOM      8  C   UNL     1       5.027   4.601  17.967  0.00  0.00    +0.000 A 
ATOM      9  C   UNL     1       4.418   4.131  16.787  0.00  0.00    +0.000 A 
ATOM     10  C   UNL     1       4.986   4.340  15.531  0.00  0.00    +0.000 A 
ATOM     11  C   UNL     1       6.174   5.049  15.432  0.00  0.00    +0.000 A 
ATOM     12  C   UNL     1       6.787   5.526  16.587  0.00  0.00    +0.000 A 
ATOM     13  F   UNL     1       7.924   6.223  16.456  0.00  0.00    +0.000 F 
ATOM     14  C   UNL     1       6.243   5.306  17.862  0.00  0.00    +0.000 A 
ATOM     15  C   UNL     1       6.945   5.866  19.066  0.00  0.00    +0.000 C 
ENDBRANCH   5   8
BRANCH   1  21
ATOM     16  C   UNL     1       0.635  11.836  18.462  0.00  0.00    +0.000 C 
ATOM     17  C   UNL     1       0.971  10.601  19.221  0.00  0.00    +0.000 A 
ATOM     18  N   UNL     1       0.851  10.473  20.522  0.00  0.00    +0.000 NA
ATOM     19  C   UNL     1       1.229   9.194  20.916  0.00  0.00    +0.000 A 
ATOM     20  C   UNL     1       1.156   8.877  22.371  0.00  0.00    +0.000 C 
ATOM     21  C   UNL     1       1.629   8.363  19.879  0.00  0.00    +0.000 A 
ATOM     22  S   UNL     1       1.561   9.220  18.396  0.00  0.00    +0.000 S 
ENDBRANCH   1  21
TORSDOF 2
ENDMDL
