MODEL 1
REMARK VINA RESULT:      -7.6      0.000      0.000
REMARK  Name = 
REMARK  3 active torsions:
REMARK  status: ('A' for Active; 'I' for Inactive)
REMARK    1  A    between atoms: C_4  and  C_5
REMARK    2  A    between atoms: C_5  and  N_6
REMARK    3  A    between atoms: N_6  and  C_7
REMARK                            x       y       z     vdW  Elec       q    Type
REMARK                         _______ _______ _______ _____ _____    ______ ____
ROOT
ATOM      1  C   UNL     1       4.232   4.149  17.692  0.00  0.00    +0.000 C 
ATOM      2  C   UNL     1       2.857   3.579  17.241  0.00  0.00    +0.000 C 
ATOM      3  C   UNL     1       2.673   2.139  17.759  0.00  0.00    +0.000 C 
ATOM      4  C   UNL     1       2.709   2.119  19.294  0.00  0.00    +0.000 C 
ATOM      5  C   UNL     1       1.587   3.023  19.838  0.00  0.00    +0.000 C 
ATOM      6  C   UNL     1       1.791   4.465  19.346  0.00  0.00    +0.000 C 
ATOM      7  C   UNL     1       1.742   4.475  17.812  0.00  0.00    +0.000 C 
ATOM      8  C   UNL     1       3.167   4.976  19.814  0.00  0.00    +0.000 C 
ATOM      9  C   UNL     1       4.297   4.078  19.247  0.00  0.00    +0.000 C 
ATOM     10  C   UNL     1       4.072   2.650  19.772  0.00  0.00    +0.000 C 
ENDROOT
BRANCH   1  11
ATOM     11  N   UNL     1       5.349   3.475  16.977  0.00  0.00    +0.000 NA
ATOM     12  H   UNL     1       5.957   3.012  17.653  0.00  0.00    +0.000 HD
BRANCH  11  13
ATOM     13  C   UNL     1       6.142   4.523  16.299  0.00  0.00    +0.000 C 
BRANCH  13  17
ATOM     14  C   UNL     1       8.009   6.783  18.591  0.00  0.00    +0.000 A 
ATOM     15  C   UNL     1       7.565   7.536  17.526  0.00  0.00    +0.000 A 
ATOM     16  O   UNL     1       6.925   6.745  16.642  0.00  0.00    +0.000 OA
ATOM     17  C   UNL     1       6.938   5.467  17.131  0.00  0.00    +0.000 A 
ATOM     18  C   UNL     1       7.626   5.440  18.327  0.00  0.00    +0.000 A 
ENDBRANCH  13  17
ENDBRANCH  11  13
ENDBRANCH   1  11
TORSDOF 3
ENDMDL
MODEL 2
REMARK VINA RESULT:      -7.6      2.113      5.298
REMARK  Name = 
REMARK  3 active torsions:
REMARK  status: ('A' for Active; 'I' for Inactive)
REMARK    1  A    between atoms: C_4  and  C_5
REMARK    2  A    between atoms: C_5  and  N_6
REMARK    3  A    between atoms: N_6  and  C_7
REMARK                            x       y       z     vdW  Elec       q    Type
REMARK                         _______ _______ _______ _____ _____    ______ ____
ROOT
ATOM      1  C   UNL     1       4.558   4.031  17.227  0.00  0.00    +0.000 C 
ATOM      2  C   UNL     1       4.517   5.176  18.278  0.00  0.00    +0.000 C 
ATOM      3  C   UNL     1       5.866   5.279  19.016  0.00  0.00    +0.000 C 
ATOM      4  C   UNL     1       6.992   5.596  18.021  0.00  0.00    +0.000 C 
ATOM      5  C   UNL     1       6.677   6.924  17.308  0.00  0.00    +0.000 C 
ATOM      6  C   UNL     1       5.346   6.807  16.546  0.00  0.00    +0.000 C 
ATOM      7  C   UNL     1       4.227   6.502  17.552  0.00  0.00    +0.000 C 
ATOM      8  C   UNL     1       5.440   5.658  15.525  0.00  0.00    +0.000 C 
ATOM      9  C   UNL     1       5.735   4.318  16.247  0.00  0.00    +0.000 C 
ATOM     10  C   UNL     1       7.078   4.465  16.982  0.00  0.00    +0.000 C 
ENDROOT
BRANCH   1  11
ATOM     11  N   UNL     1       4.591   2.699  17.889  0.00  0.00    +0.000 NA
ATOM     12  H   UNL     1       5.105   2.040  17.303  0.00  0.00    +0.000 HD
BRANCH  11  13
ATOM     13  C   UNL     1       3.196   2.219  17.995  0.00  0.00    +0.000 C 
BRANCH  13  17
ATOM     14  C   UNL     1       1.207   3.125  21.007  0.00  0.00    +0.000 A 
ATOM     15  C   UNL     1       2.476   2.789  21.425  0.00  0.00    +0.000 A 
ATOM     16  O   UNL     1       3.219   2.404  20.369  0.00  0.00    +0.000 OA
ATOM     17  C   UNL     1       2.440   2.495  19.248  0.00  0.00    +0.000 A 
ATOM     18  C   UNL     1       1.173   2.911  19.602  0.00  0.00    +0.000 A 
ENDBRANCH  13  17
ENDBRANCH  11  13
ENDBRANCH   1  11
TORSDOF 3
ENDMDL
MODEL 3
REMARK VINA RESULT:      -7.6      1.629      2.460
REMARK  Name = 
REMARK  3 active torsions:
REMARK  status: ('A' for Active; 'I' for Inactive)
REMARK    1  A    between atoms: C_4  and  C_5
REMARK    2  A    between atoms: C_5  and  N_6
REMARK    3  A    between atoms: N_6  and  C_7
REMARK                            x       y       z     vdW  Elec       q    Type
REMARK                         _______ _______ _______ _____ _____    ______ ____
ROOT
ATOM      1  C   UNL     1       4.137   3.741  19.799  0.00  0.00    +0.000 C 
ATOM      2  C   UNL     1       3.145   4.718  19.106  0.00  0.00    +0.000 C 
ATOM      3  C   UNL     1       2.394   4.005  17.965  0.00  0.00    +0.000 C 
ATOM      4  C   UNL     1       1.581   2.826  18.520  0.00  0.00    +0.000 C 
ATOM      5  C   UNL     1       0.579   3.351  19.565  0.00  0.00    +0.000 C 
ATOM      6  C   UNL     1       1.333   4.034  20.718  0.00  0.00    +0.000 C 
ATOM      7  C   UNL     1       2.133   5.217  20.153  0.00  0.00    +0.000 C 
ATOM      8  C   UNL     1       2.303   3.026  21.363  0.00  0.00    +0.000 C 
ATOM      9  C   UNL     1       3.326   2.516  20.315  0.00  0.00    +0.000 C 
ATOM     10  C   UNL     1       2.539   1.825  19.188  0.00  0.00    +0.000 C 
ENDROOT
BRANCH   1  11
ATOM     11  N   UNL     1       5.279   3.417  18.903  0.00  0.00    +0.000 NA
ATOM     12  H   UNL     1       5.990   2.907  19.427  0.00  0.00    +0.000 HD
BRANCH  11  13
ATOM     13  C   UNL     1       5.875   4.696  18.458  0.00  0.00    +0.000 C 
BRANCH  13  17
ATOM     14  C   UNL     1       5.845   5.322  14.790  0.00  0.00    +0.000 A 
ATOM     15  C   UNL     1       6.967   4.577  15.081  0.00  0.00    +0.000 A 
ATOM     16  O   UNL     1       7.046   4.369  16.410  0.00  0.00    +0.000 OA
ATOM     17  C   UNL     1       5.966   4.971  16.998  0.00  0.00    +0.000 A 
ATOM     18  C   UNL     1       5.209   5.599  16.030  0.00  0.00    +0.000 A 
ENDBRANCH  13  17
ENDBRANCH  11  13
ENDBRANCH   1  11
TORSDOF 3
ENDMDL
MODEL 4
REMARK VINA RESULT:      -7.6      1.578      2.608
REMARK  Name = 
REMARK  3 active torsions:
REMARK  status: ('A' for Active; 'I' for Inactive)
REMARK    1  A    between atoms: C_4  and  C_5
REMARK    2  A    between atoms: C_5  and  N_6
REMARK    3  A    between atoms: N_6  and  C_7
REMARK                            x       y       z     vdW  Elec       q    Type
REMARK                         _______ _______ _______ _____ _____    ______ ____
ROOT
ATOM      1  C   UNL     1       4.035   3.549  18.676  0.00  0.00    +0.000 C 
ATOM      2  C   UNL     1       3.406   2.311  19.374  0.00  0.00    +0.000 C 
ATOM      3  C   UNL     1       3.090   2.624  20.850  0.00  0.00    +0.000 C 
ATOM      4  C   UNL     1       2.081   3.779  20.943  0.00  0.00    +0.000 C 
ATOM      5  C   UNL     1       0.792   3.383  20.199  0.00  0.00    +0.000 C 
ATOM      6  C   UNL     1       1.104   3.101  18.720  0.00  0.00    +0.000 C 
ATOM      7  C   UNL     1       2.104   1.939  18.639  0.00  0.00    +0.000 C 
ATOM      8  C   UNL     1       1.729   4.356  18.081  0.00  0.00    +0.000 C 
ATOM      9  C   UNL     1       3.039   4.739  18.816  0.00  0.00    +0.000 C 
ATOM     10  C   UNL     1       2.687   5.031  20.285  0.00  0.00    +0.000 C 
ENDROOT
BRANCH   1  11
ATOM     11  N   UNL     1       5.409   3.806  19.184  0.00  0.00    +0.000 NA
ATOM     12  H   UNL     1       5.379   3.952  20.193  0.00  0.00    +0.000 HD
BRANCH  11  13
ATOM     13  C   UNL     1       5.889   5.060  18.560  0.00  0.00    +0.000 C 
BRANCH  13  17
ATOM     14  C   UNL     1       5.824   5.220  14.843  0.00  0.00    +0.000 A 
ATOM     15  C   UNL     1       6.827   4.348  15.210  0.00  0.00    +0.000 A 
ATOM     16  O   UNL     1       6.920   4.298  16.553  0.00  0.00    +0.000 OA
ATOM     17  C   UNL     1       5.968   5.133  17.075  0.00  0.00    +0.000 A 
ATOM     18  C   UNL     1       5.284   5.748  16.046  0.00  0.00    +0.000 A 
ENDBRANCH  13  17
ENDBRANCH  11  13
ENDBRANCH   1  11
TORSDOF 3
ENDMDL
MODEL 5
REMARK VINA RESULT:      -7.5      1.463      2.609
REMARK  Name = 
REMARK  3 active torsions:
REMARK  status: ('A' for Active; 'I' for Inactive)
REMARK    1  A    between atoms: C_4  and  C_5
REMARK    2  A    between atoms: C_5  and  N_6
REMARK    3  A    between atoms: N_6  and  C_7
REMARK                            x       y       z     vdW  Elec       q    Type
REMARK                         _______ _______ _______ _____ _____    ______ ____
ROOT
ATOM      1  C   UNL     1       4.193   3.559  18.058  0.00  0.00    +0.000 C 
ATOM      2  C   UNL     1       3.534   2.380  18.827  0.00  0.00    +0.000 C 
ATOM      3  C   UNL     1       3.457   2.694  20.334  0.00  0.00    +0.000 C 
ATOM      4  C   UNL     1       2.600   3.947  20.572  0.00  0.00    +0.000 C 
ATOM      5  C   UNL     1       1.187   3.706  20.010  0.00  0.00    +0.000 C 
ATOM      6  C   UNL     1       1.264   3.424  18.500  0.00  0.00    +0.000 C 
ATOM      7  C   UNL     1       2.112   2.165  18.275  0.00  0.00    +0.000 C 
ATOM      8  C   UNL     1       1.928   4.619  17.790  0.00  0.00    +0.000 C 
ATOM      9  C   UNL     1       3.360   4.845  18.341  0.00  0.00    +0.000 C 
ATOM     10  C   UNL     1       3.244   5.141  19.846  0.00  0.00    +0.000 C 
ENDROOT
BRANCH   1  11
ATOM     11  N   UNL     1       5.643   3.658  18.374  0.00  0.00    +0.000 NA
ATOM     12  H   UNL     1       5.762   3.897  19.358  0.00  0.00    +0.000 HD
BRANCH  11  13
ATOM     13  C   UNL     1       6.201   4.767  17.568  0.00  0.00    +0.000 C 
BRANCH  13  17
ATOM     14  C   UNL     1       6.367   4.112  13.909  0.00  0.00    +0.000 A 
ATOM     15  C   UNL     1       7.319   5.062  14.211  0.00  0.00    +0.000 A 
ATOM     16  O   UNL     1       7.260   5.368  15.522  0.00  0.00    +0.000 OA
ATOM     17  C   UNL     1       6.271   4.610  16.090  0.00  0.00    +0.000 A 
ATOM     18  C   UNL     1       5.671   3.836  15.117  0.00  0.00    +0.000 A 
ENDBRANCH  13  17
ENDBRANCH  11  13
ENDBRANCH   1  11
TORSDOF 3
ENDMDL
MODEL 6
REMARK VINA RESULT:      -7.5      2.116      5.386
REMARK  Name = 
REMARK  3 active torsions:
REMARK  status: ('A' for Active; 'I' for Inactive)
REMARK    1  A    between atoms: C_4  and  C_5
REMARK    2  A    between atoms: C_5  and  N_6
REMARK    3  A    between atoms: N_6  and  C_7
REMARK                            x       y       z     vdW  Elec       q    Type
REMARK                         _______ _______ _______ _____ _____    ______ ____
ROOT
ATOM      1  C   UNL     1       4.964   3.924  17.709  0.00  0.00    +0.000 C 
ATOM      2  C   UNL     1       5.910   4.274  16.526  0.00  0.00    +0.000 C 
ATOM      3  C   UNL     1       5.409   5.530  15.786  0.00  0.00    +0.000 C 
ATOM      4  C   UNL     1       5.385   6.734  16.740  0.00  0.00    +0.000 C 
ATOM      5  C   UNL     1       6.804   6.974  17.286  0.00  0.00    +0.000 C 
ATOM      6  C   UNL     1       7.290   5.731  18.050  0.00  0.00    +0.000 C 
ATOM      7  C   UNL     1       7.321   4.538  17.085  0.00  0.00    +0.000 C 
ATOM      8  C   UNL     1       6.315   5.427  19.204  0.00  0.00    +0.000 C 
ATOM      9  C   UNL     1       4.891   5.163  18.651  0.00  0.00    +0.000 C 
ATOM     10  C   UNL     1       4.432   6.429  17.909  0.00  0.00    +0.000 C 
ENDROOT
BRANCH   1  11
ATOM     11  N   UNL     1       3.654   3.424  17.214  0.00  0.00    +0.000 NA
ATOM     12  H   UNL     1       2.940   4.140  17.353  0.00  0.00    +0.000 HD
BRANCH  11  13
ATOM     13  C   UNL     1       3.284   2.251  18.036  0.00  0.00    +0.000 C 
BRANCH  13  17
ATOM     14  C   UNL     1       1.178   3.002  21.010  0.00  0.00    +0.000 A 
ATOM     15  C   UNL     1       2.466   2.786  21.449  0.00  0.00    +0.000 A 
ATOM     16  O   UNL     1       3.256   2.459  20.408  0.00  0.00    +0.000 OA
ATOM     17  C   UNL     1       2.488   2.469  19.275  0.00  0.00    +0.000 A 
ATOM     18  C   UNL     1       1.184   2.774  19.608  0.00  0.00    +0.000 A 
ENDBRANCH  13  17
ENDBRANCH  11  13
ENDBRANCH   1  11
TORSDOF 3
ENDMDL
MODEL 7
REMARK VINA RESULT:      -7.5      0.928      1.474
REMARK  Name = 
REMARK  3 active torsions:
REMARK  status: ('A' for Active; 'I' for Inactive)
REMARK    1  A    between atoms: C_4  and  C_5
REMARK    2  A    between atoms: C_5  and  N_6
REMARK    3  A    between atoms: N_6  and  C_7
REMARK                            x       y       z     vdW  Elec       q    Type
REMARK                         _______ _______ _______ _____ _____    ______ ____
ROOT
ATOM      1  C   UNL     1       4.066   3.886  18.878  0.00  0.00    +0.000 C 
ATOM      2  C   UNL     1       2.836   4.799  18.612  0.00  0.00    +0.000 C 
ATOM      3  C   UNL     1       1.792   4.062  17.751  0.00  0.00    +0.000 C 
ATOM      4  C   UNL     1       1.295   2.805  18.480  0.00  0.00    +0.000 C 
ATOM      5  C   UNL     1       0.673   3.216  19.827  0.00  0.00    +0.000 C 
ATOM      6  C   UNL     1       1.725   3.923  20.698  0.00  0.00    +0.000 C 
ATOM      7  C   UNL     1       2.207   5.183  19.964  0.00  0.00    +0.000 C 
ATOM      8  C   UNL     1       2.921   2.978  20.923  0.00  0.00    +0.000 C 
ATOM      9  C   UNL     1       3.560   2.584  19.567  0.00  0.00    +0.000 C 
ATOM     10  C   UNL     1       2.487   1.865  18.732  0.00  0.00    +0.000 C 
ENDROOT
BRANCH   1  11
ATOM     11  N   UNL     1       4.857   3.682  17.635  0.00  0.00    +0.000 NA
ATOM     12  H   UNL     1       5.754   3.254  17.867  0.00  0.00    +0.000 HD
BRANCH  11  13
ATOM     13  C   UNL     1       5.129   5.016  17.054  0.00  0.00    +0.000 C 
BRANCH  13  17
ATOM     14  C   UNL     1       8.014   6.870  18.499  0.00  0.00    +0.000 A 
ATOM     15  C   UNL     1       7.514   7.615  17.453  0.00  0.00    +0.000 A 
ATOM     16  O   UNL     1       6.497   6.956  16.867  0.00  0.00    +0.000 OA
ATOM     17  C   UNL     1       6.317   5.774  17.533  0.00  0.00    +0.000 A 
ATOM     18  C   UNL     1       7.258   5.667  18.538  0.00  0.00    +0.000 A 
ENDBRANCH  13  17
ENDBRANCH  11  13
ENDBRANCH   1  11
TORSDOF 3
ENDMDL
MODEL 8
REMARK VINA RESULT:      -7.4      0.762      1.599
REMARK  Name = 
REMARK  3 active torsions:
REMARK  status: ('A' for Active; 'I' for Inactive)
REMARK    1  A    between atoms: C_4  and  C_5
REMARK    2  A    between atoms: C_5  and  N_6
REMARK    3  A    between atoms: N_6  and  C_7
REMARK                            x       y       z     vdW  Elec       q    Type
REMARK                         _______ _______ _______ _____ _____    ______ ____
ROOT
ATOM      1  C   UNL     1       3.826   3.415  17.544  0.00  0.00    +0.000 C 
ATOM      2  C   UNL     1       3.388   2.322  18.560  0.00  0.00    +0.000 C 
ATOM      3  C   UNL     1       3.700   2.769  20.001  0.00  0.00    +0.000 C 
ATOM      4  C   UNL     1       2.931   4.057  20.336  0.00  0.00    +0.000 C 
ATOM      5  C   UNL     1       1.422   3.799  20.178  0.00  0.00    +0.000 C 
ATOM      6  C   UNL     1       1.109   3.383  18.731  0.00  0.00    +0.000 C 
ATOM      7  C   UNL     1       1.873   2.091  18.412  0.00  0.00    +0.000 C 
ATOM      8  C   UNL     1       1.567   4.496  17.769  0.00  0.00    +0.000 C 
ATOM      9  C   UNL     1       3.092   4.738  17.913  0.00  0.00    +0.000 C 
ATOM     10  C   UNL     1       3.365   5.168  19.364  0.00  0.00    +0.000 C 
ENDROOT
BRANCH   1  11
ATOM     11  N   UNL     1       5.308   3.509  17.468  0.00  0.00    +0.000 NA
ATOM     12  H   UNL     1       5.693   3.597  18.408  0.00  0.00    +0.000 HD
BRANCH  11  13
ATOM     13  C   UNL     1       5.640   4.745  16.726  0.00  0.00    +0.000 C 
BRANCH  13  17
ATOM     14  C   UNL     1       8.036   7.019  18.439  0.00  0.00    +0.000 A 
ATOM     15  C   UNL     1       7.402   7.741  17.451  0.00  0.00    +0.000 A 
ATOM     16  O   UNL     1       6.559   6.941  16.769  0.00  0.00    +0.000 OA
ATOM     17  C   UNL     1       6.629   5.688  17.315  0.00  0.00    +0.000 A 
ATOM     18  C   UNL     1       7.557   5.685  18.337  0.00  0.00    +0.000 A 
ENDBRANCH  13  17
ENDBRANCH  11  13
ENDBRANCH   1  11
TORSDOF 3
ENDMDL
MODEL 9
REMARK VINA RESULT:      -7.4      1.085      1.838
REMARK  Name = 
REMARK  3 active torsions:
REMARK  status: ('A' for Active; 'I' for Inactive)
REMARK    1  A    between atoms: C_4  and  C_5
REMARK    2  A    between atoms: C_5  and  N_6
REMARK    3  A    between atoms: N_6  and  C_7
REMARK                            x       y       z     vdW  Elec       q    Type
REMARK                         _______ _______ _______ _____ _____    ______ ____
ROOT
ATOM      1  C   UNL     1       4.171   3.952  18.090  0.00  0.00    +0.000 C 
ATOM      2  C   UNL     1       3.094   5.025  18.420  0.00  0.00    +0.000 C 
ATOM      3  C   UNL     1       1.740   4.642  17.791  0.00  0.00    +0.000 C 
ATOM      4  C   UNL     1       1.253   3.299  18.356  0.00  0.00    +0.000 C 
ATOM      5  C   UNL     1       1.111   3.417  19.885  0.00  0.00    +0.000 C 
ATOM      6  C   UNL     1       2.471   3.768  20.513  0.00  0.00    +0.000 C 
ATOM      7  C   UNL     1       2.941   5.116  19.949  0.00  0.00    +0.000 C 
ATOM      8  C   UNL     1       3.498   2.678  20.150  0.00  0.00    +0.000 C 
ATOM      9  C   UNL     1       3.656   2.577  18.611  0.00  0.00    +0.000 C 
ATOM     10  C   UNL     1       2.285   2.209  18.020  0.00  0.00    +0.000 C 
ENDROOT
BRANCH   1  11
ATOM     11  N   UNL     1       4.537   3.990  16.649  0.00  0.00    +0.000 NA
ATOM     12  H   UNL     1       4.272   3.110  16.206  0.00  0.00    +0.000 HD
BRANCH  11  13
ATOM     13  C   UNL     1       6.009   4.113  16.566  0.00  0.00    +0.000 C 
BRANCH  13  17
ATOM     14  C   UNL     1       7.801   6.859  18.325  0.00  0.00    +0.000 A 
ATOM     15  C   UNL     1       7.971   5.705  19.060  0.00  0.00    +0.000 A 
ATOM     16  O   UNL     1       7.295   4.692  18.484  0.00  0.00    +0.000 OA
ATOM     17  C   UNL     1       6.683   5.176  17.360  0.00  0.00    +0.000 A 
ATOM     18  C   UNL     1       6.947   6.526  17.238  0.00  0.00    +0.000 A 
ENDBRANCH  13  17
ENDBRANCH  11  13
ENDBRANCH   1  11
TORSDOF 3
ENDMDL
