MODEL 1
REMARK VINA RESULT:      -7.3      0.000      0.000
REMARK  Name = 
REMARK  7 active torsions:
REMARK  status: ('A' for Active; 'I' for Inactive)
REMARK    1  A    between atoms: C_2  and  O_3
REMARK    2  A    between atoms: C_2  and  C_4
REMARK    3  A    between atoms: C_4  and  C_5
REMARK    4  A    between atoms: C_5  and  C_6
REMARK    5  A    between atoms: C_6  and  C_7
REMARK    6  A    between atoms: C_6  and  N_10
REMARK    7  A    between atoms: C_7  and  O_9
REMARK                            x       y       z     vdW  Elec       q    Type
REMARK                         _______ _______ _______ _____ _____    ______ ____
ROOT
ATOM      1  C   UNL     1       6.231   5.220  17.806  0.00  0.00    +0.000 C 
ENDROOT
BRANCH   1   2
ATOM      2  N   UNL     1       4.956   4.781  18.422  0.00  0.00    +0.000 N 
ATOM      3  C   UNL     1       4.255   5.532  19.461  0.00  0.00    +0.000 C 
ATOM      4  C   UNL     1       3.011   4.739  19.664  0.00  0.00    +0.000 A 
ATOM      5  C   UNL     1       1.971   4.941  20.548  0.00  0.00    +0.000 A 
ATOM      6  C   UNL     1       0.903   4.039  20.526  0.00  0.00    +0.000 A 
ATOM      7  C   UNL     1       0.889   2.957  19.625  0.00  0.00    +0.000 A 
ATOM      8  C   UNL     1       1.940   2.761  18.729  0.00  0.00    +0.000 A 
ATOM      9  C   UNL     1       2.979   3.669  18.770  0.00  0.00    +0.000 A 
ATOM     10  C   UNL     1       4.198   3.719  17.964  0.00  0.00    +0.000 C 
ATOM     11  O   UNL     1       4.521   2.931  17.094  0.00  0.00    +0.000 OA
ENDBRANCH   1   2
BRANCH   1  12
ATOM     12  C   UNL     1       7.201   5.747  18.893  0.00  0.00    +0.000 C 
ATOM     13  O   UNL     1       7.270   5.288  20.028  0.00  0.00    +0.000 OA
BRANCH  12  14
ATOM     14  O   UNL     1       7.910   6.845  18.555  0.00  0.00    +0.000 OA
ATOM     15  H   UNL     1       7.527   7.361  17.800  0.00  0.00    +0.000 HD
ENDBRANCH  12  14
ENDBRANCH   1  12
BRANCH   1  16
ATOM     16  C   UNL     1       5.993   6.271  16.695  0.00  0.00    +0.000 C 
BRANCH  16  17
ATOM     17  C   UNL     1       5.593   5.765  15.306  0.00  0.00    +0.000 C 
BRANCH  17  19
ATOM     18  O   UNL     1       7.728   5.262  14.302  0.00  0.00    +0.000 OA
ATOM     19  C   UNL     1       6.636   4.873  14.686  0.00  0.00    +0.000 C 
BRANCH  19  20
ATOM     20  O   UNL     1       6.262   3.578  14.630  0.00  0.00    +0.000 OA
ATOM     21  H   UNL     1       5.549   3.390  13.987  0.00  0.00    +0.000 HD
ENDBRANCH  19  20
ENDBRANCH  17  19
ENDBRANCH  16  17
ENDBRANCH   1  16
TORSDOF 7
ENDMDL
MODEL 2
REMARK VINA RESULT:      -7.2      1.610      2.187
REMARK  Name = 
REMARK  7 active torsions:
REMARK  status: ('A' for Active; 'I' for Inactive)
REMARK    1  A    between atoms: C_2  and  O_3
REMARK    2  A    between atoms: C_2  and  C_4
REMARK    3  A    between atoms: C_4  and  C_5
REMARK    4  A    between atoms: C_5  and  C_6
REMARK    5  A    between atoms: C_6  and  C_7
REMARK    6  A    between atoms: C_6  and  N_10
REMARK    7  A    between atoms: C_7  and  O_9
REMARK                            x       y       z     vdW  Elec       q    Type
REMARK                         _______ _______ _______ _____ _____    ______ ____
ROOT
ATOM      1  C   UNL     1       5.889   4.126  16.472  0.00  0.00    +0.000 C 
ENDROOT
BRANCH   1   2
ATOM      2  N   UNL     1       4.737   4.181  17.403  0.00  0.00    +0.000 N 
ATOM      3  C   UNL     1       4.054   2.999  17.922  0.00  0.00    +0.000 C 
ATOM      4  C   UNL     1       3.059   3.575  18.869  0.00  0.00    +0.000 A 
ATOM      5  C   UNL     1       2.102   2.943  19.636  0.00  0.00    +0.000 A 
ATOM      6  C   UNL     1       1.292   3.731  20.458  0.00  0.00    +0.000 A 
ATOM      7  C   UNL     1       1.449   5.130  20.503  0.00  0.00    +0.000 A 
ATOM      8  C   UNL     1       2.422   5.764  19.730  0.00  0.00    +0.000 A 
ATOM      9  C   UNL     1       3.211   4.961  18.930  0.00  0.00    +0.000 A 
ATOM     10  C   UNL     1       4.296   5.336  18.025  0.00  0.00    +0.000 C 
ATOM     11  O   UNL     1       4.696   6.464  17.806  0.00  0.00    +0.000 OA
ENDBRANCH   1   2
BRANCH   1  12
ATOM     12  C   UNL     1       7.116   4.843  17.089  0.00  0.00    +0.000 C 
ATOM     13  O   UNL     1       7.703   4.453  18.092  0.00  0.00    +0.000 OA
BRANCH  12  14
ATOM     14  O   UNL     1       7.446   6.021  16.517  0.00  0.00    +0.000 OA
ATOM     15  H   UNL     1       7.738   6.718  17.158  0.00  0.00    +0.000 HD
ENDBRANCH  12  14
ENDBRANCH   1  12
BRANCH   1  16
ATOM     16  C   UNL     1       5.525   4.706  15.084  0.00  0.00    +0.000 C 
BRANCH  16  17
ATOM     17  C   UNL     1       6.053   3.978  13.844  0.00  0.00    +0.000 C 
BRANCH  17  19
ATOM     18  O   UNL     1       7.900   5.526  13.728  0.00  0.00    +0.000 OA
ATOM     19  C   UNL     1       7.177   4.716  13.168  0.00  0.00    +0.000 C 
BRANCH  19  20
ATOM     20  O   UNL     1       7.341   4.366  11.875  0.00  0.00    +0.000 OA
ATOM     21  H   UNL     1       6.514   4.118  11.415  0.00  0.00    +0.000 HD
ENDBRANCH  19  20
ENDBRANCH  17  19
ENDBRANCH  16  17
ENDBRANCH   1  16
TORSDOF 7
ENDMDL
MODEL 3
REMARK VINA RESULT:      -7.1      1.388      1.826
REMARK  Name = 
REMARK  7 active torsions:
REMARK  status: ('A' for Active; 'I' for Inactive)
REMARK    1  A    between atoms: C_2  and  O_3
REMARK    2  A    between atoms: C_2  and  C_4
REMARK    3  A    between atoms: C_4  and  C_5
REMARK    4  A    between atoms: C_5  and  C_6
REMARK    5  A    between atoms: C_6  and  C_7
REMARK    6  A    between atoms: C_6  and  N_10
REMARK    7  A    between atoms: C_7  and  O_9
REMARK                            x       y       z     vdW  Elec       q    Type
REMARK                         _______ _______ _______ _____ _____    ______ ____
ROOT
ATOM      1  C   UNL     1       5.954   4.169  16.638  0.00  0.00    +0.000 C 
ENDROOT
BRANCH   1   2
ATOM      2  N   UNL     1       4.869   4.354  17.629  0.00  0.00    +0.000 N 
ATOM      3  C   UNL     1       4.555   5.634  18.260  0.00  0.00    +0.000 C 
ATOM      4  C   UNL     1       3.352   5.318  19.079  0.00  0.00    +0.000 A 
ATOM      5  C   UNL     1       2.622   6.128  19.925  0.00  0.00    +0.000 A 
ATOM      6  C   UNL     1       1.515   5.574  20.575  0.00  0.00    +0.000 A 
ATOM      7  C   UNL     1       1.155   4.228  20.370  0.00  0.00    +0.000 A 
ATOM      8  C   UNL     1       1.892   3.415  19.509  0.00  0.00    +0.000 A 
ATOM      9  C   UNL     1       2.977   3.989  18.877  0.00  0.00    +0.000 A 
ATOM     10  C   UNL     1       3.922   3.393  17.934  0.00  0.00    +0.000 C 
ATOM     11  O   UNL     1       3.918   2.242  17.538  0.00  0.00    +0.000 OA
ENDBRANCH   1   2
BRANCH   1  12
ATOM     12  C   UNL     1       7.265   4.821  17.144  0.00  0.00    +0.000 C 
ATOM     13  O   UNL     1       7.603   5.970  16.880  0.00  0.00    +0.000 OA
BRANCH  12  14
ATOM     14  O   UNL     1       8.098   4.000  17.818  0.00  0.00    +0.000 OA
ATOM     15  H   UNL     1       8.289   4.286  18.747  0.00  0.00    +0.000 HD
ENDBRANCH  12  14
ENDBRANCH   1  12
BRANCH   1  16
ATOM     16  C   UNL     1       5.548   4.708  15.244  0.00  0.00    +0.000 C 
BRANCH  16  17
ATOM     17  C   UNL     1       5.980   3.905  14.014  0.00  0.00    +0.000 C 
BRANCH  17  19
ATOM     18  O   UNL     1       7.281   4.372  12.036  0.00  0.00    +0.000 OA
ATOM     19  C   UNL     1       7.058   4.592  13.217  0.00  0.00    +0.000 C 
BRANCH  19  20
ATOM     20  O   UNL     1       7.738   5.514  13.928  0.00  0.00    +0.000 OA
ATOM     21  H   UNL     1       7.962   5.238  14.839  0.00  0.00    +0.000 HD
ENDBRANCH  19  20
ENDBRANCH  17  19
ENDBRANCH  16  17
ENDBRANCH   1  16
TORSDOF 7
ENDMDL
MODEL 4
REMARK VINA RESULT:      -7.1      1.349      2.668
REMARK  Name = 
REMARK  7 active torsions:
REMARK  status: ('A' for Active; 'I' for Inactive)
REMARK    1  A    between atoms: C_2  and  O_3
REMARK    2  A    between atoms: C_2  and  C_4
REMARK    3  A    between atoms: C_4  and  C_5
REMARK    4  A    between atoms: C_5  and  C_6
REMARK    5  A    between atoms: C_6  and  C_7
REMARK    6  A    between atoms: C_6  and  N_10
REMARK    7  A    between atoms: C_7  and  O_9
REMARK                            x       y       z     vdW  Elec       q    Type
REMARK                         _______ _______ _______ _____ _____    ______ ____
ROOT
ATOM      1  C   UNL     1       5.901   5.598  17.159  0.00  0.00    +0.000 C 
ENDROOT
BRANCH   1   2
ATOM      2  N   UNL     1       4.759   5.059  17.935  0.00  0.00    +0.000 N 
ATOM      3  C   UNL     1       4.361   5.559  19.249  0.00  0.00    +0.000 C 
ATOM      4  C   UNL     1       3.131   4.774  19.548  0.00  0.00    +0.000 A 
ATOM      5  C   UNL     1       2.327   4.787  20.669  0.00  0.00    +0.000 A 
ATOM      6  C   UNL     1       1.211   3.945  20.689  0.00  0.00    +0.000 A 
ATOM      7  C   UNL     1       0.917   3.109  19.595  0.00  0.00    +0.000 A 
ATOM      8  C   UNL     1       1.730   3.104  18.461  0.00  0.00    +0.000 A 
ATOM      9  C   UNL     1       2.822   3.948  18.467  0.00  0.00    +0.000 A 
ATOM     10  C   UNL     1       3.837   4.156  17.436  0.00  0.00    +0.000 C 
ATOM     11  O   UNL     1       3.901   3.590  16.360  0.00  0.00    +0.000 OA
ENDBRANCH   1   2
BRANCH   1  12
ATOM     12  C   UNL     1       7.164   4.730  17.386  0.00  0.00    +0.000 C 
ATOM     13  O   UNL     1       7.622   4.467  18.492  0.00  0.00    +0.000 OA
BRANCH  12  14
ATOM     14  O   UNL     1       7.822   4.361  16.266  0.00  0.00    +0.000 OA
ATOM     15  H   UNL     1       8.508   5.010  15.965  0.00  0.00    +0.000 HD
ENDBRANCH  12  14
ENDBRANCH   1  12
BRANCH   1  16
ATOM     16  C   UNL     1       6.162   7.087  17.493  0.00  0.00    +0.000 C 
BRANCH  16  17
ATOM     17  C   UNL     1       7.516   7.681  17.096  0.00  0.00    +0.000 C 
BRANCH  17  19
ATOM     18  O   UNL     1       8.541   9.414  18.426  0.00  0.00    +0.000 OA
ATOM     19  C   UNL     1       8.281   8.230  18.271  0.00  0.00    +0.000 C 
BRANCH  19  20
ATOM     20  O   UNL     1       8.623   7.285  19.171  0.00  0.00    +0.000 OA
ATOM     21  H   UNL     1       8.648   6.376  18.813  0.00  0.00    +0.000 HD
ENDBRANCH  19  20
ENDBRANCH  17  19
ENDBRANCH  16  17
ENDBRANCH   1  16
TORSDOF 7
ENDMDL
MODEL 5
REMARK VINA RESULT:      -7.1      1.774      2.316
REMARK  Name = 
REMARK  7 active torsions:
REMARK  status: ('A' for Active; 'I' for Inactive)
REMARK    1  A    between atoms: C_2  and  O_3
REMARK    2  A    between atoms: C_2  and  C_4
REMARK    3  A    between atoms: C_4  and  C_5
REMARK    4  A    between atoms: C_5  and  C_6
REMARK    5  A    between atoms: C_6  and  C_7
REMARK    6  A    between atoms: C_6  and  N_10
REMARK    7  A    between atoms: C_7  and  O_9
REMARK                            x       y       z     vdW  Elec       q    Type
REMARK                         _______ _______ _______ _____ _____    ______ ____
ROOT
ATOM      1  C   UNL     1       5.909   3.998  16.243  0.00  0.00    +0.000 C 
ENDROOT
BRANCH   1   2
ATOM      2  N   UNL     1       4.893   4.274  17.285  0.00  0.00    +0.000 N 
ATOM      3  C   UNL     1       4.624   5.604  17.826  0.00  0.00    +0.000 C 
ATOM      4  C   UNL     1       3.477   5.366  18.747  0.00  0.00    +0.000 A 
ATOM      5  C   UNL     1       2.807   6.249  19.568  0.00  0.00    +0.000 A 
ATOM      6  C   UNL     1       1.745   5.759  20.334  0.00  0.00    +0.000 A 
ATOM      7  C   UNL     1       1.370   4.403  20.267  0.00  0.00    +0.000 A 
ATOM      8  C   UNL     1       2.047   3.516  19.430  0.00  0.00    +0.000 A 
ATOM      9  C   UNL     1       3.089   4.027  18.682  0.00  0.00    +0.000 A 
ATOM     10  C   UNL     1       3.967   3.348  17.732  0.00  0.00    +0.000 C 
ATOM     11  O   UNL     1       3.936   2.168  17.435  0.00  0.00    +0.000 OA
ENDBRANCH   1   2
BRANCH   1  12
ATOM     12  C   UNL     1       7.216   4.775  16.545  0.00  0.00    +0.000 C 
ATOM     13  O   UNL     1       7.501   5.856  16.041  0.00  0.00    +0.000 OA
BRANCH  12  14
ATOM     14  O   UNL     1       8.107   4.129  17.328  0.00  0.00    +0.000 OA
ATOM     15  H   UNL     1       8.644   3.445  16.853  0.00  0.00    +0.000 HD
ENDBRANCH  12  14
ENDBRANCH   1  12
BRANCH   1  16
ATOM     16  C   UNL     1       5.371   4.315  14.826  0.00  0.00    +0.000 C 
BRANCH  16  17
ATOM     17  C   UNL     1       6.311   4.095  13.638  0.00  0.00    +0.000 C 
BRANCH  17  19
ATOM     18  O   UNL     1       4.562   3.536  12.073  0.00  0.00    +0.000 OA
ATOM     19  C   UNL     1       5.673   3.306  12.526  0.00  0.00    +0.000 C 
BRANCH  19  20
ATOM     20  O   UNL     1       6.470   2.331  12.041  0.00  0.00    +0.000 OA
ATOM     21  H   UNL     1       6.135   1.903  11.228  0.00  0.00    +0.000 HD
ENDBRANCH  19  20
ENDBRANCH  17  19
ENDBRANCH  16  17
ENDBRANCH   1  16
TORSDOF 7
ENDMDL
MODEL 6
REMARK VINA RESULT:      -7.1      2.069      2.927
REMARK  Name = 
REMARK  7 active torsions:
REMARK  status: ('A' for Active; 'I' for Inactive)
REMARK    1  A    between atoms: C_2  and  O_3
REMARK    2  A    between atoms: C_2  and  C_4
REMARK    3  A    between atoms: C_4  and  C_5
REMARK    4  A    between atoms: C_5  and  C_6
REMARK    5  A    between atoms: C_6  and  C_7
REMARK    6  A    between atoms: C_6  and  N_10
REMARK    7  A    between atoms: C_7  and  O_9
REMARK                            x       y       z     vdW  Elec       q    Type
REMARK                         _______ _______ _______ _____ _____    ______ ____
ROOT
ATOM      1  C   UNL     1       5.926   3.987  15.816  0.00  0.00    +0.000 C 
ENDROOT
BRANCH   1   2
ATOM      2  N   UNL     1       4.897   4.353  16.817  0.00  0.00    +0.000 N 
ATOM      3  C   UNL     1       4.258   3.394  17.714  0.00  0.00    +0.000 C 
ATOM      4  C   UNL     1       3.396   4.256  18.569  0.00  0.00    +0.000 A 
ATOM      5  C   UNL     1       2.527   3.907  19.582  0.00  0.00    +0.000 A 
ATOM      6  C   UNL     1       1.836   4.929  20.239  0.00  0.00    +0.000 A 
ATOM      7  C   UNL     1       2.025   6.277  19.878  0.00  0.00    +0.000 A 
ATOM      8  C   UNL     1       2.910   6.626  18.857  0.00  0.00    +0.000 A 
ATOM      9  C   UNL     1       3.581   5.596  18.228  0.00  0.00    +0.000 A 
ATOM     10  C   UNL     1       4.556   5.655  17.140  0.00  0.00    +0.000 C 
ATOM     11  O   UNL     1       4.948   6.658  16.575  0.00  0.00    +0.000 OA
ENDBRANCH   1   2
BRANCH   1  12
ATOM     12  C   UNL     1       7.281   4.650  16.169  0.00  0.00    +0.000 C 
ATOM     13  O   UNL     1       8.044   4.228  17.032  0.00  0.00    +0.000 OA
BRANCH  12  14
ATOM     14  O   UNL     1       7.537   5.817  15.540  0.00  0.00    +0.000 OA
ATOM     15  H   UNL     1       8.300   6.324  15.917  0.00  0.00    +0.000 HD
ENDBRANCH  12  14
ENDBRANCH   1  12
BRANCH   1  16
ATOM     16  C   UNL     1       5.473   4.343  14.378  0.00  0.00    +0.000 C 
BRANCH  16  17
ATOM     17  C   UNL     1       6.331   3.842  13.214  0.00  0.00    +0.000 C 
BRANCH  17  19
ATOM     18  O   UNL     1       4.459   3.434  11.747  0.00  0.00    +0.000 OA
ATOM     19  C   UNL     1       5.537   3.071  12.192  0.00  0.00    +0.000 C 
BRANCH  19  20
ATOM     20  O   UNL     1       6.155   1.946  11.777  0.00  0.00    +0.000 OA
ATOM     21  H   UNL     1       6.708   2.059  10.979  0.00  0.00    +0.000 HD
ENDBRANCH  19  20
ENDBRANCH  17  19
ENDBRANCH  16  17
ENDBRANCH   1  16
TORSDOF 7
ENDMDL
MODEL 7
REMARK VINA RESULT:      -7.1      1.526      2.273
REMARK  Name = 
REMARK  7 active torsions:
REMARK  status: ('A' for Active; 'I' for Inactive)
REMARK    1  A    between atoms: C_2  and  O_3
REMARK    2  A    between atoms: C_2  and  C_4
REMARK    3  A    between atoms: C_4  and  C_5
REMARK    4  A    between atoms: C_5  and  C_6
REMARK    5  A    between atoms: C_6  and  C_7
REMARK    6  A    between atoms: C_6  and  N_10
REMARK    7  A    between atoms: C_7  and  O_9
REMARK                            x       y       z     vdW  Elec       q    Type
REMARK                         _______ _______ _______ _____ _____    ______ ____
ROOT
ATOM      1  C   UNL     1       6.005   4.583  16.944  0.00  0.00    +0.000 C 
ENDROOT
BRANCH   1   2
ATOM      2  N   UNL     1       4.749   4.380  17.703  0.00  0.00    +0.000 N 
ATOM      3  C   UNL     1       3.595   3.649  17.185  0.00  0.00    +0.000 C 
ATOM      4  C   UNL     1       2.656   3.644  18.340  0.00  0.00    +0.000 A 
ATOM      5  C   UNL     1       1.381   3.125  18.438  0.00  0.00    +0.000 A 
ATOM      6  C   UNL     1       0.711   3.250  19.659  0.00  0.00    +0.000 A 
ATOM      7  C   UNL     1       1.322   3.885  20.758  0.00  0.00    +0.000 A 
ATOM      8  C   UNL     1       2.614   4.402  20.655  0.00  0.00    +0.000 A 
ATOM      9  C   UNL     1       3.253   4.262  19.440  0.00  0.00    +0.000 A 
ATOM     10  C   UNL     1       4.590   4.697  19.040  0.00  0.00    +0.000 C 
ATOM     11  O   UNL     1       5.394   5.290  19.736  0.00  0.00    +0.000 OA
ENDBRANCH   1   2
BRANCH   1  12
ATOM     12  C   UNL     1       6.202   6.085  16.618  0.00  0.00    +0.000 C 
ATOM     13  O   UNL     1       5.280   6.884  16.498  0.00  0.00    +0.000 OA
BRANCH  12  14
ATOM     14  O   UNL     1       7.472   6.459  16.352  0.00  0.00    +0.000 OA
ATOM     15  H   UNL     1       8.068   5.714  16.085  0.00  0.00    +0.000 HD
ENDBRANCH  12  14
ENDBRANCH   1  12
BRANCH   1  16
ATOM     16  C   UNL     1       6.043   3.711  15.665  0.00  0.00    +0.000 C 
BRANCH  16  17
ATOM     17  C   UNL     1       5.614   4.358  14.345  0.00  0.00    +0.000 C 
BRANCH  17  19
ATOM     18  O   UNL     1       7.656   5.357  13.539  0.00  0.00    +0.000 OA
ATOM     19  C   UNL     1       6.759   4.543  13.385  0.00  0.00    +0.000 C 
BRANCH  19  20
ATOM     20  O   UNL     1       6.723   3.686  12.344  0.00  0.00    +0.000 OA
ATOM     21  H   UNL     1       6.551   2.755  12.592  0.00  0.00    +0.000 HD
ENDBRANCH  19  20
ENDBRANCH  17  19
ENDBRANCH  16  17
ENDBRANCH   1  16
TORSDOF 7
ENDMDL
MODEL 8
REMARK VINA RESULT:      -7.1      1.526      2.277
REMARK  Name = 
REMARK  7 active torsions:
REMARK  status: ('A' for Active; 'I' for Inactive)
REMARK    1  A    between atoms: C_2  and  O_3
REMARK    2  A    between atoms: C_2  and  C_4
REMARK    3  A    between atoms: C_4  and  C_5
REMARK    4  A    between atoms: C_5  and  C_6
REMARK    5  A    between atoms: C_6  and  C_7
REMARK    6  A    between atoms: C_6  and  N_10
REMARK    7  A    between atoms: C_7  and  O_9
REMARK                            x       y       z     vdW  Elec       q    Type
REMARK                         _______ _______ _______ _____ _____    ______ ____
ROOT
ATOM      1  C   UNL     1       5.817   4.127  16.522  0.00  0.00    +0.000 C 
ENDROOT
BRANCH   1   2
ATOM      2  N   UNL     1       4.624   4.061  17.399  0.00  0.00    +0.000 N 
ATOM      3  C   UNL     1       3.956   2.816  17.768  0.00  0.00    +0.000 C 
ATOM      4  C   UNL     1       2.903   3.270  18.718  0.00  0.00    +0.000 A 
ATOM      5  C   UNL     1       1.933   2.540  19.375  0.00  0.00    +0.000 A 
ATOM      6  C   UNL     1       1.062   3.222  20.229  0.00  0.00    +0.000 A 
ATOM      7  C   UNL     1       1.173   4.614  20.416  0.00  0.00    +0.000 A 
ATOM      8  C   UNL     1       2.159   5.346  19.754  0.00  0.00    +0.000 A 
ATOM      9  C   UNL     1       3.008   4.647  18.919  0.00  0.00    +0.000 A 
ATOM     10  C   UNL     1       4.120   5.137  18.107  0.00  0.00    +0.000 C 
ATOM     11  O   UNL     1       4.494   6.292  18.016  0.00  0.00    +0.000 OA
ENDBRANCH   1   2
BRANCH   1  12
ATOM     12  C   UNL     1       6.985   4.836  17.254  0.00  0.00    +0.000 C 
ATOM     13  O   UNL     1       7.543   5.844  16.835  0.00  0.00    +0.000 OA
BRANCH  12  14
ATOM     14  O   UNL     1       7.450   4.202  18.352  0.00  0.00    +0.000 OA
ATOM     15  H   UNL     1       7.098   4.559  19.207  0.00  0.00    +0.000 HD
ENDBRANCH  12  14
ENDBRANCH   1  12
BRANCH   1  16
ATOM     16  C   UNL     1       5.492   4.809  15.170  0.00  0.00    +0.000 C 
BRANCH  16  17
ATOM     17  C   UNL     1       5.840   4.052  13.886  0.00  0.00    +0.000 C 
BRANCH  17  19
ATOM     18  O   UNL     1       7.320   4.389  12.011  0.00  0.00    +0.000 OA
ATOM     19  C   UNL     1       7.037   4.626  13.175  0.00  0.00    +0.000 C 
BRANCH  19  20
ATOM     20  O   UNL     1       7.756   5.471  13.942  0.00  0.00    +0.000 OA
ATOM     21  H   UNL     1       8.208   6.183  13.446  0.00  0.00    +0.000 HD
ENDBRANCH  19  20
ENDBRANCH  17  19
ENDBRANCH  16  17
ENDBRANCH   1  16
TORSDOF 7
ENDMDL
MODEL 9
REMARK VINA RESULT:      -7.0      2.776      3.594
REMARK  Name = 
REMARK  7 active torsions:
REMARK  status: ('A' for Active; 'I' for Inactive)
REMARK    1  A    between atoms: C_2  and  O_3
REMARK    2  A    between atoms: C_2  and  C_4
REMARK    3  A    between atoms: C_4  and  C_5
REMARK    4  A    between atoms: C_5  and  C_6
REMARK    5  A    between atoms: C_6  and  C_7
REMARK    6  A    between atoms: C_6  and  N_10
REMARK    7  A    between atoms: C_7  and  O_9
REMARK                            x       y       z     vdW  Elec       q    Type
REMARK                         _______ _______ _______ _____ _____    ______ ____
ROOT
ATOM      1  C   UNL     1       4.112   4.614  18.009  0.00  0.00    +0.000 C 
ENDROOT
BRANCH   1   2
ATOM      2  N   UNL     1       3.405   5.814  18.514  0.00  0.00    +0.000 N 
ATOM      3  C   UNL     1       3.168   7.014  17.715  0.00  0.00    +0.000 C 
ATOM      4  C   UNL     1       2.353   7.867  18.624  0.00  0.00    +0.000 A 
ATOM      5  C   UNL     1       1.855   9.139  18.430  0.00  0.00    +0.000 A 
ATOM      6  C   UNL     1       1.102   9.716  19.457  0.00  0.00    +0.000 A 
ATOM      7  C   UNL     1       0.858   9.016  20.655  0.00  0.00    +0.000 A 
ATOM      8  C   UNL     1       1.358   7.727  20.844  0.00  0.00    +0.000 A 
ATOM      9  C   UNL     1       2.095   7.181  19.812  0.00  0.00    +0.000 A 
ATOM     10  C   UNL     1       2.735   5.870  19.724  0.00  0.00    +0.000 C 
ATOM     11  O   UNL     1       2.738   5.009  20.583  0.00  0.00    +0.000 OA
ENDBRANCH   1   2
BRANCH   1  12
ATOM     12  C   UNL     1       5.199   4.165  19.018  0.00  0.00    +0.000 C 
ATOM     13  O   UNL     1       6.154   4.860  19.348  0.00  0.00    +0.000 OA
BRANCH  12  14
ATOM     14  O   UNL     1       5.104   2.887  19.443  0.00  0.00    +0.000 OA
ATOM     15  H   UNL     1       4.184   2.605  19.682  0.00  0.00    +0.000 HD
ENDBRANCH  12  14
ENDBRANCH   1  12
BRANCH   1  16
ATOM     16  C   UNL     1       4.705   4.855  16.599  0.00  0.00    +0.000 C 
BRANCH  16  17
ATOM     17  C   UNL     1       5.817   3.918  16.122  0.00  0.00    +0.000 C 
BRANCH  17  19
ATOM     18  O   UNL     1       7.440   5.475  15.248  0.00  0.00    +0.000 OA
ATOM     19  C   UNL     1       7.160   4.595  16.047  0.00  0.00    +0.000 C 
BRANCH  19  20
ATOM     20  O   UNL     1       8.027   4.161  16.986  0.00  0.00    +0.000 OA
ATOM     21  H   UNL     1       8.720   3.558  16.649  0.00  0.00    +0.000 HD
ENDBRANCH  19  20
ENDBRANCH  17  19
ENDBRANCH  16  17
ENDBRANCH   1  16
TORSDOF 7
ENDMDL
