MODEL 1
REMARK VINA RESULT:      -6.9      0.000      0.000
REMARK  Name = 
REMARK  12 active torsions:
REMARK  status: ('A' for Active; 'I' for Inactive)
REMARK    1  A    between atoms: C_1  and  O_2
REMARK    2  A    between atoms: O_2  and  C_3
REMARK    3  A    between atoms: C_6  and  C_7
REMARK    4  A    between atoms: C_7  and  C_8
REMARK    5  A    between atoms: C_8  and  N_9
REMARK    6  A    between atoms: C_10  and  C_12
REMARK    7  A    between atoms: C_12  and  O_13
REMARK    8  A    between atoms: O_13  and  C_14
REMARK    9  A    between atoms: C_14  and  C_16
REMARK   10  A    between atoms: C_16  and  C_17
REMARK   11  A    between atoms: C_20  and  O_21
REMARK   12  A    between atoms: O_21  and  C_22
REMARK                            x       y       z     vdW  Elec       q    Type
REMARK                         _______ _______ _______ _____ _____    ______ ____
ROOT
ATOM      1  N   UNL     1       4.428   3.649  18.083  0.00  0.00    +0.000 N 
ATOM      2  C   UNL     1       3.818   2.527  18.618  0.00  0.00    +0.000 C 
ATOM      3  O   UNL     1       3.469   1.563  17.940  0.00  0.00    +0.000 OA
ATOM      4  H   UNL     1       4.452   4.490  18.649  0.00  0.00    +0.000 HD
ENDROOT
BRANCH   1   5
ATOM      5  C   UNL     1       4.647   3.740  16.651  0.00  0.00    +0.000 C 
BRANCH   5   6
ATOM      6  C   UNL     1       6.120   3.893  16.271  0.00  0.00    +0.000 C 
BRANCH   6  10
ATOM      7  C   UNL     1       8.012   7.196  18.342  0.00  0.00    +0.000 A 
ATOM      8  C   UNL     1       7.283   7.414  17.172  0.00  0.00    +0.000 A 
ATOM      9  C   UNL     1       6.659   6.353  16.512  0.00  0.00    +0.000 A 
ATOM     10  C   UNL     1       6.779   5.046  16.998  0.00  0.00    +0.000 A 
ATOM     11  C   UNL     1       7.524   4.832  18.169  0.00  0.00    +0.000 A 
ATOM     12  C   UNL     1       8.143   5.899  18.833  0.00  0.00    +0.000 A 
BRANCH   7  14
ATOM     13  C   UNL     1       8.429   9.513  18.146  0.00  0.00    +0.000 C 
ATOM     14  O   UNL     1       8.574   8.312  18.898  0.00  0.00    +0.000 OA
ENDBRANCH   7  14
ENDBRANCH   6  10
ENDBRANCH   5   6
ENDBRANCH   1   5
BRANCH   2  15
ATOM     15  C   UNL     1       3.542   2.592  20.120  0.00  0.00    +0.000 C 
BRANCH  15  16
ATOM     16  O   UNL     1       2.159   2.461  20.455  0.00  0.00    +0.000 OA
BRANCH  16  17
ATOM     17  C   UNL     1       1.469   3.633  20.373  0.00  0.00    +0.000 C 
ATOM     18  O   UNL     1       0.384   3.768  19.820  0.00  0.00    +0.000 OA
BRANCH  17  19
ATOM     19  C   UNL     1       2.236   4.758  21.035  0.00  0.00    +0.000 C 
BRANCH  19  20
ATOM     20  C   UNL     1       2.116   6.081  20.315  0.00  0.00    +0.000 A 
ATOM     21  C   UNL     1       2.597   6.227  19.004  0.00  0.00    +0.000 A 
ATOM     22  C   UNL     1       2.478   7.453  18.342  0.00  0.00    +0.000 A 
ATOM     23  C   UNL     1       1.859   8.538  18.960  0.00  0.00    +0.000 A 
ATOM     24  C   UNL     1       1.383   8.404  20.262  0.00  0.00    +0.000 A 
ATOM     25  C   UNL     1       1.507   7.183  20.931  0.00  0.00    +0.000 A 
BRANCH  23  26
ATOM     26  O   UNL     1       1.805   9.689  18.222  0.00  0.00    +0.000 OA
ATOM     27  C   UNL     1       0.801  10.621  18.613  0.00  0.00    +0.000 C 
ENDBRANCH  23  26
ENDBRANCH  19  20
ENDBRANCH  17  19
ENDBRANCH  16  17
ENDBRANCH  15  16
ENDBRANCH   2  15
TORSDOF 10
ENDMDL
MODEL 2
REMARK VINA RESULT:      -6.8      3.311      6.418
REMARK  Name = 
REMARK  12 active torsions:
REMARK  status: ('A' for Active; 'I' for Inactive)
REMARK    1  A    between atoms: C_1  and  O_2
REMARK    2  A    between atoms: O_2  and  C_3
REMARK    3  A    between atoms: C_6  and  C_7
REMARK    4  A    between atoms: C_7  and  C_8
REMARK    5  A    between atoms: C_8  and  N_9
REMARK    6  A    between atoms: C_10  and  C_12
REMARK    7  A    between atoms: C_12  and  O_13
REMARK    8  A    between atoms: O_13  and  C_14
REMARK    9  A    between atoms: C_14  and  C_16
REMARK   10  A    between atoms: C_16  and  C_17
REMARK   11  A    between atoms: C_20  and  O_21
REMARK   12  A    between atoms: O_21  and  C_22
REMARK                            x       y       z     vdW  Elec       q    Type
REMARK                         _______ _______ _______ _____ _____    ______ ____
ROOT
ATOM      1  N   UNL     1       8.290   7.915  17.956  0.00  0.00    +0.000 N 
ATOM      2  C   UNL     1       7.254   7.150  17.446  0.00  0.00    +0.000 C 
ATOM      3  O   UNL     1       6.193   7.630  17.055  0.00  0.00    +0.000 OA
ATOM      4  H   UNL     1       9.014   7.439  18.484  0.00  0.00    +0.000 HD
ENDROOT
BRANCH   1   5
ATOM      5  C   UNL     1       8.134   9.352  18.081  0.00  0.00    +0.000 C 
BRANCH   5   6
ATOM      6  C   UNL     1       9.081   9.978  19.104  0.00  0.00    +0.000 C 
BRANCH   6  10
ATOM      7  C   UNL     1      10.981  13.571  17.599  0.00  0.00    +0.000 A 
ATOM      8  C   UNL     1      11.738  12.436  17.893  0.00  0.00    +0.000 A 
ATOM      9  C   UNL     1      11.125  11.271  18.363  0.00  0.00    +0.000 A 
ATOM     10  C   UNL     1       9.743  11.233  18.575  0.00  0.00    +0.000 A 
ATOM     11  C   UNL     1       8.988  12.382  18.289  0.00  0.00    +0.000 A 
ATOM     12  C   UNL     1       9.604  13.547  17.811  0.00  0.00    +0.000 A 
BRANCH   7  14
ATOM     13  C   UNL     1      10.918  15.704  16.587  0.00  0.00    +0.000 C 
ATOM     14  O   UNL     1      11.692  14.646  17.143  0.00  0.00    +0.000 OA
ENDBRANCH   7  14
ENDBRANCH   6  10
ENDBRANCH   5   6
ENDBRANCH   1   5
BRANCH   2  15
ATOM     15  C   UNL     1       7.492   5.640  17.464  0.00  0.00    +0.000 C 
BRANCH  15  16
ATOM     16  O   UNL     1       6.291   4.870  17.553  0.00  0.00    +0.000 OA
BRANCH  16  17
ATOM     17  C   UNL     1       5.942   4.277  16.377  0.00  0.00    +0.000 C 
ATOM     18  O   UNL     1       6.727   3.737  15.607  0.00  0.00    +0.000 OA
BRANCH  17  19
ATOM     19  C   UNL     1       4.452   4.395  16.135  0.00  0.00    +0.000 C 
BRANCH  19  20
ATOM     20  C   UNL     1       3.608   3.883  17.280  0.00  0.00    +0.000 A 
ATOM     21  C   UNL     1       3.507   2.505  17.532  0.00  0.00    +0.000 A 
ATOM     22  C   UNL     1       2.730   2.040  18.597  0.00  0.00    +0.000 A 
ATOM     23  C   UNL     1       2.066   2.932  19.437  0.00  0.00    +0.000 A 
ATOM     24  C   UNL     1       2.157   4.300  19.192  0.00  0.00    +0.000 A 
ATOM     25  C   UNL     1       2.927   4.770  18.124  0.00  0.00    +0.000 A 
BRANCH  23  26
ATOM     26  O   UNL     1       1.329   2.364  20.441  0.00  0.00    +0.000 OA
ATOM     27  C   UNL     1       1.619   2.834  21.754  0.00  0.00    +0.000 C 
ENDBRANCH  23  26
ENDBRANCH  19  20
ENDBRANCH  17  19
ENDBRANCH  16  17
ENDBRANCH  15  16
ENDBRANCH   2  15
TORSDOF 10
ENDMDL
MODEL 3
REMARK VINA RESULT:      -6.7      1.667      5.916
REMARK  Name = 
REMARK  12 active torsions:
REMARK  status: ('A' for Active; 'I' for Inactive)
REMARK    1  A    between atoms: C_1  and  O_2
REMARK    2  A    between atoms: O_2  and  C_3
REMARK    3  A    between atoms: C_6  and  C_7
REMARK    4  A    between atoms: C_7  and  C_8
REMARK    5  A    between atoms: C_8  and  N_9
REMARK    6  A    between atoms: C_10  and  C_12
REMARK    7  A    between atoms: C_12  and  O_13
REMARK    8  A    between atoms: O_13  and  C_14
REMARK    9  A    between atoms: C_14  and  C_16
REMARK   10  A    between atoms: C_16  and  C_17
REMARK   11  A    between atoms: C_20  and  O_21
REMARK   12  A    between atoms: O_21  and  C_22
REMARK                            x       y       z     vdW  Elec       q    Type
REMARK                         _______ _______ _______ _____ _____    ______ ____
ROOT
ATOM      1  N   UNL     1       1.101   4.516  20.121  0.00  0.00    +0.000 N 
ATOM      2  C   UNL     1       1.867   3.453  20.570  0.00  0.00    +0.000 C 
ATOM      3  O   UNL     1       2.738   3.566  21.430  0.00  0.00    +0.000 OA
ATOM      4  H   UNL     1       0.595   4.400  19.250  0.00  0.00    +0.000 HD
ENDROOT
BRANCH   1   5
ATOM      5  C   UNL     1       1.339   5.849  20.644  0.00  0.00    +0.000 C 
BRANCH   5   6
ATOM      6  C   UNL     1       2.283   6.681  19.777  0.00  0.00    +0.000 C 
BRANCH   6  10
ATOM      7  C   UNL     1       0.837  10.724  19.190  0.00  0.00    +0.000 A 
ATOM      8  C   UNL     1       1.551  10.072  18.185  0.00  0.00    +0.000 A 
ATOM      9  C   UNL     1       2.005   8.762  18.366  0.00  0.00    +0.000 A 
ATOM     10  C   UNL     1       1.775   8.093  19.572  0.00  0.00    +0.000 A 
ATOM     11  C   UNL     1       1.065   8.759  20.584  0.00  0.00    +0.000 A 
ATOM     12  C   UNL     1       0.606  10.070  20.398  0.00  0.00    +0.000 A 
BRANCH   7  14
ATOM     13  C   UNL     1       1.468  12.861  18.405  0.00  0.00    +0.000 C 
ATOM     14  O   UNL     1       0.445  12.001  18.895  0.00  0.00    +0.000 OA
ENDBRANCH   7  14
ENDBRANCH   6  10
ENDBRANCH   5   6
ENDBRANCH   1   5
BRANCH   2  15
ATOM     15  C   UNL     1       1.601   2.120  19.870  0.00  0.00    +0.000 C 
BRANCH  15  16
ATOM     16  O   UNL     1       1.623   2.208  18.443  0.00  0.00    +0.000 OA
BRANCH  16  17
ATOM     17  C   UNL     1       2.878   2.336  17.929  0.00  0.00    +0.000 C 
ATOM     18  O   UNL     1       3.864   1.733  18.335  0.00  0.00    +0.000 OA
BRANCH  17  19
ATOM     19  C   UNL     1       2.898   3.344  16.799  0.00  0.00    +0.000 C 
BRANCH  19  20
ATOM     20  C   UNL     1       4.171   4.155  16.732  0.00  0.00    +0.000 A 
ATOM     21  C   UNL     1       4.274   5.381  17.409  0.00  0.00    +0.000 A 
ATOM     22  C   UNL     1       5.457   6.124  17.346  0.00  0.00    +0.000 A 
ATOM     23  C   UNL     1       6.558   5.649  16.636  0.00  0.00    +0.000 A 
ATOM     24  C   UNL     1       6.464   4.436  15.958  0.00  0.00    +0.000 A 
ATOM     25  C   UNL     1       5.280   3.694  16.011  0.00  0.00    +0.000 A 
BRANCH  23  26
ATOM     26  O   UNL     1       7.659   6.462  16.637  0.00  0.00    +0.000 OA
ATOM     27  C   UNL     1       7.615   7.551  17.555  0.00  0.00    +0.000 C 
ENDBRANCH  23  26
ENDBRANCH  19  20
ENDBRANCH  17  19
ENDBRANCH  16  17
ENDBRANCH  15  16
ENDBRANCH   2  15
TORSDOF 10
ENDMDL
MODEL 4
REMARK VINA RESULT:      -6.6      1.658      5.940
REMARK  Name = 
REMARK  12 active torsions:
REMARK  status: ('A' for Active; 'I' for Inactive)
REMARK    1  A    between atoms: C_1  and  O_2
REMARK    2  A    between atoms: O_2  and  C_3
REMARK    3  A    between atoms: C_6  and  C_7
REMARK    4  A    between atoms: C_7  and  C_8
REMARK    5  A    between atoms: C_8  and  N_9
REMARK    6  A    between atoms: C_10  and  C_12
REMARK    7  A    between atoms: C_12  and  O_13
REMARK    8  A    between atoms: O_13  and  C_14
REMARK    9  A    between atoms: C_14  and  C_16
REMARK   10  A    between atoms: C_16  and  C_17
REMARK   11  A    between atoms: C_20  and  O_21
REMARK   12  A    between atoms: O_21  and  C_22
REMARK                            x       y       z     vdW  Elec       q    Type
REMARK                         _______ _______ _______ _____ _____    ______ ____
ROOT
ATOM      1  N   UNL     1       1.256   4.625  19.857  0.00  0.00    +0.000 N 
ATOM      2  C   UNL     1       1.477   3.306  20.215  0.00  0.00    +0.000 C 
ATOM      3  O   UNL     1       2.212   2.974  21.142  0.00  0.00    +0.000 OA
ATOM      4  H   UNL     1       0.852   4.807  18.945  0.00  0.00    +0.000 HD
ENDROOT
BRANCH   1   5
ATOM      5  C   UNL     1       1.940   5.691  20.566  0.00  0.00    +0.000 C 
BRANCH   5   6
ATOM      6  C   UNL     1       2.741   6.614  19.647  0.00  0.00    +0.000 C 
BRANCH   6  10
ATOM      7  C   UNL     1       0.713  10.382  18.964  0.00  0.00    +0.000 A 
ATOM      8  C   UNL     1       0.730   9.804  20.234  0.00  0.00    +0.000 A 
ATOM      9  C   UNL     1       1.397   8.597  20.460  0.00  0.00    +0.000 A 
ATOM     10  C   UNL     1       2.036   7.932  19.407  0.00  0.00    +0.000 A 
ATOM     11  C   UNL     1       2.006   8.514  18.130  0.00  0.00    +0.000 A 
ATOM     12  C   UNL     1       1.342   9.727  17.908  0.00  0.00    +0.000 A 
BRANCH   7  14
ATOM     13  C   UNL     1      -1.297  11.469  18.366  0.00  0.00    +0.000 C 
ATOM     14  O   UNL     1       0.032  11.564  18.869  0.00  0.00    +0.000 OA
ENDBRANCH   7  14
ENDBRANCH   6  10
ENDBRANCH   5   6
ENDBRANCH   1   5
BRANCH   2  15
ATOM     15  C   UNL     1       0.788   2.269  19.329  0.00  0.00    +0.000 C 
BRANCH  15  16
ATOM     16  O   UNL     1       1.558   1.888  18.186  0.00  0.00    +0.000 OA
BRANCH  16  17
ATOM     17  C   UNL     1       2.367   2.883  17.724  0.00  0.00    +0.000 C 
ATOM     18  O   UNL     1       1.976   3.882  17.132  0.00  0.00    +0.000 OA
BRANCH  17  19
ATOM     19  C   UNL     1       3.820   2.577  18.017  0.00  0.00    +0.000 C 
BRANCH  19  20
ATOM     20  C   UNL     1       4.769   3.674  17.594  0.00  0.00    +0.000 A 
ATOM     21  C   UNL     1       5.524   4.373  18.550  0.00  0.00    +0.000 A 
ATOM     22  C   UNL     1       6.404   5.383  18.150  0.00  0.00    +0.000 A 
ATOM     23  C   UNL     1       6.567   5.693  16.801  0.00  0.00    +0.000 A 
ATOM     24  C   UNL     1       5.819   5.008  15.847  0.00  0.00    +0.000 A 
ATOM     25  C   UNL     1       4.931   4.003  16.242  0.00  0.00    +0.000 A 
BRANCH  23  26
ATOM     26  O   UNL     1       7.449   6.703  16.527  0.00  0.00    +0.000 OA
ATOM     27  C   UNL     1       7.574   7.697  17.540  0.00  0.00    +0.000 C 
ENDBRANCH  23  26
ENDBRANCH  19  20
ENDBRANCH  17  19
ENDBRANCH  16  17
ENDBRANCH  15  16
ENDBRANCH   2  15
TORSDOF 10
ENDMDL
MODEL 5
REMARK VINA RESULT:      -6.5      1.598      5.893
REMARK  Name = 
REMARK  12 active torsions:
REMARK  status: ('A' for Active; 'I' for Inactive)
REMARK    1  A    between atoms: C_1  and  O_2
REMARK    2  A    between atoms: O_2  and  C_3
REMARK    3  A    between atoms: C_6  and  C_7
REMARK    4  A    between atoms: C_7  and  C_8
REMARK    5  A    between atoms: C_8  and  N_9
REMARK    6  A    between atoms: C_10  and  C_12
REMARK    7  A    between atoms: C_12  and  O_13
REMARK    8  A    between atoms: O_13  and  C_14
REMARK    9  A    between atoms: C_14  and  C_16
REMARK   10  A    between atoms: C_16  and  C_17
REMARK   11  A    between atoms: C_20  and  O_21
REMARK   12  A    between atoms: O_21  and  C_22
REMARK                            x       y       z     vdW  Elec       q    Type
REMARK                         _______ _______ _______ _____ _____    ______ ____
ROOT
ATOM      1  N   UNL     1       1.850   4.214  20.405  0.00  0.00    +0.000 N 
ATOM      2  C   UNL     1       1.475   3.620  19.212  0.00  0.00    +0.000 C 
ATOM      3  O   UNL     1       0.956   4.239  18.286  0.00  0.00    +0.000 OA
ATOM      4  H   UNL     1       2.030   3.610  21.199  0.00  0.00    +0.000 HD
ENDROOT
BRANCH   1   5
ATOM      5  C   UNL     1       1.597   5.627  20.620  0.00  0.00    +0.000 C 
BRANCH   5   6
ATOM      6  C   UNL     1       2.565   6.538  19.864  0.00  0.00    +0.000 C 
BRANCH   6  10
ATOM      7  C   UNL     1       0.848  10.430  19.034  0.00  0.00    +0.000 A 
ATOM      8  C   UNL     1       1.577   9.751  18.057  0.00  0.00    +0.000 A 
ATOM      9  C   UNL     1       2.118   8.489  18.317  0.00  0.00    +0.000 A 
ATOM     10  C   UNL     1       1.962   7.896  19.575  0.00  0.00    +0.000 A 
ATOM     11  C   UNL     1       1.237   8.590  20.558  0.00  0.00    +0.000 A 
ATOM     12  C   UNL     1       0.690   9.852  20.292  0.00  0.00    +0.000 A 
BRANCH   7  14
ATOM     13  C   UNL     1       1.329  12.702  18.604  0.00  0.00    +0.000 C 
ATOM     14  O   UNL     1       0.367  11.654  18.660  0.00  0.00    +0.000 OA
ENDBRANCH   7  14
ENDBRANCH   6  10
ENDBRANCH   5   6
ENDBRANCH   1   5
BRANCH   2  15
ATOM     15  C   UNL     1       1.691   2.108  19.144  0.00  0.00    +0.000 C 
BRANCH  15  16
ATOM     16  O   UNL     1       2.607   1.705  18.124  0.00  0.00    +0.000 OA
BRANCH  16  17
ATOM     17  C   UNL     1       3.737   2.465  18.080  0.00  0.00    +0.000 C 
ATOM     18  O   UNL     1       4.484   2.661  19.032  0.00  0.00    +0.000 OA
BRANCH  17  19
ATOM     19  C   UNL     1       3.936   3.058  16.702  0.00  0.00    +0.000 C 
BRANCH  19  20
ATOM     20  C   UNL     1       4.986   4.144  16.654  0.00  0.00    +0.000 A 
ATOM     21  C   UNL     1       4.778   5.369  17.309  0.00  0.00    +0.000 A 
ATOM     22  C   UNL     1       5.756   6.366  17.265  0.00  0.00    +0.000 A 
ATOM     23  C   UNL     1       6.960   6.154  16.595  0.00  0.00    +0.000 A 
ATOM     24  C   UNL     1       7.174   4.944  15.939  0.00  0.00    +0.000 A 
ATOM     25  C   UNL     1       6.195   3.946  15.973  0.00  0.00    +0.000 A 
BRANCH  23  26
ATOM     26  O   UNL     1       7.840   7.202  16.611  0.00  0.00    +0.000 OA
ATOM     27  C   UNL     1       7.590   8.195  17.600  0.00  0.00    +0.000 C 
ENDBRANCH  23  26
ENDBRANCH  19  20
ENDBRANCH  17  19
ENDBRANCH  16  17
ENDBRANCH  15  16
ENDBRANCH   2  15
TORSDOF 10
ENDMDL
MODEL 6
REMARK VINA RESULT:      -6.5      2.602      4.405
REMARK  Name = 
REMARK  12 active torsions:
REMARK  status: ('A' for Active; 'I' for Inactive)
REMARK    1  A    between atoms: C_1  and  O_2
REMARK    2  A    between atoms: O_2  and  C_3
REMARK    3  A    between atoms: C_6  and  C_7
REMARK    4  A    between atoms: C_7  and  C_8
REMARK    5  A    between atoms: C_8  and  N_9
REMARK    6  A    between atoms: C_10  and  C_12
REMARK    7  A    between atoms: C_12  and  O_13
REMARK    8  A    between atoms: O_13  and  C_14
REMARK    9  A    between atoms: C_14  and  C_16
REMARK   10  A    between atoms: C_16  and  C_17
REMARK   11  A    between atoms: C_20  and  O_21
REMARK   12  A    between atoms: O_21  and  C_22
REMARK                            x       y       z     vdW  Elec       q    Type
REMARK                         _______ _______ _______ _____ _____    ______ ____
ROOT
ATOM      1  N   UNL     1       6.786   7.050  17.595  0.00  0.00    +0.000 N 
ATOM      2  C   UNL     1       6.768   5.996  16.697  0.00  0.00    +0.000 C 
ATOM      3  O   UNL     1       7.527   5.920  15.734  0.00  0.00    +0.000 OA
ATOM      4  H   UNL     1       5.981   7.170  18.200  0.00  0.00    +0.000 HD
ENDROOT
BRANCH   1   5
ATOM      5  C   UNL     1       7.709   8.152  17.398  0.00  0.00    +0.000 C 
BRANCH   5   6
ATOM      6  C   UNL     1       8.539   8.478  18.640  0.00  0.00    +0.000 C 
BRANCH   6  10
ATOM      7  C   UNL     1       9.566  12.683  18.852  0.00  0.00    +0.000 A 
ATOM      8  C   UNL     1       8.793  12.192  17.799  0.00  0.00    +0.000 A 
ATOM      9  C   UNL     1       8.448  10.839  17.737  0.00  0.00    +0.000 A 
ATOM     10  C   UNL     1       8.897   9.947  18.717  0.00  0.00    +0.000 A 
ATOM     11  C   UNL     1       9.683  10.446  19.768  0.00  0.00    +0.000 A 
ATOM     12  C   UNL     1      10.022  11.804  19.832  0.00  0.00    +0.000 A 
BRANCH   7  14
ATOM     13  C   UNL     1       8.977  14.851  19.583  0.00  0.00    +0.000 C 
ATOM     14  O   UNL     1       9.835  14.023  18.805  0.00  0.00    +0.000 OA
ENDBRANCH   7  14
ENDBRANCH   6  10
ENDBRANCH   5   6
ENDBRANCH   1   5
BRANCH   2  15
ATOM     15  C   UNL     1       5.682   4.950  16.946  0.00  0.00    +0.000 C 
BRANCH  15  16
ATOM     16  O   UNL     1       5.149   4.979  18.272  0.00  0.00    +0.000 OA
BRANCH  16  17
ATOM     17  C   UNL     1       3.792   4.863  18.312  0.00  0.00    +0.000 C 
ATOM     18  O   UNL     1       3.115   4.293  17.465  0.00  0.00    +0.000 OA
BRANCH  17  19
ATOM     19  C   UNL     1       3.227   5.556  19.533  0.00  0.00    +0.000 C 
BRANCH  19  20
ATOM     20  C   UNL     1       2.611   6.903  19.237  0.00  0.00    +0.000 A 
ATOM     21  C   UNL     1       1.870   7.582  20.218  0.00  0.00    +0.000 A 
ATOM     22  C   UNL     1       1.308   8.831  19.939  0.00  0.00    +0.000 A 
ATOM     23  C   UNL     1       1.494   9.433  18.695  0.00  0.00    +0.000 A 
ATOM     24  C   UNL     1       2.224   8.765  17.714  0.00  0.00    +0.000 A 
ATOM     25  C   UNL     1       2.781   7.513  17.986  0.00  0.00    +0.000 A 
BRANCH  23  26
ATOM     26  O   UNL     1       0.893  10.651  18.531  0.00  0.00    +0.000 OA
ATOM     27  C   UNL     1       0.796  11.449  19.707  0.00  0.00    +0.000 C 
ENDBRANCH  23  26
ENDBRANCH  19  20
ENDBRANCH  17  19
ENDBRANCH  16  17
ENDBRANCH  15  16
ENDBRANCH   2  15
TORSDOF 10
ENDMDL
MODEL 7
REMARK VINA RESULT:      -6.4      3.801      6.952
REMARK  Name = 
REMARK  12 active torsions:
REMARK  status: ('A' for Active; 'I' for Inactive)
REMARK    1  A    between atoms: C_1  and  O_2
REMARK    2  A    between atoms: O_2  and  C_3
REMARK    3  A    between atoms: C_6  and  C_7
REMARK    4  A    between atoms: C_7  and  C_8
REMARK    5  A    between atoms: C_8  and  N_9
REMARK    6  A    between atoms: C_10  and  C_12
REMARK    7  A    between atoms: C_12  and  O_13
REMARK    8  A    between atoms: O_13  and  C_14
REMARK    9  A    between atoms: C_14  and  C_16
REMARK   10  A    between atoms: C_16  and  C_17
REMARK   11  A    between atoms: C_20  and  O_21
REMARK   12  A    between atoms: O_21  and  C_22
REMARK                            x       y       z     vdW  Elec       q    Type
REMARK                         _______ _______ _______ _____ _____    ______ ____
ROOT
ATOM      1  N   UNL     1       8.794   8.679  18.935  0.00  0.00    +0.000 N 
ATOM      2  C   UNL     1       7.995   8.073  17.980  0.00  0.00    +0.000 C 
ATOM      3  O   UNL     1       7.505   8.679  17.030  0.00  0.00    +0.000 OA
ATOM      4  H   UNL     1       8.946   8.185  19.808  0.00  0.00    +0.000 HD
ENDROOT
BRANCH   1   5
ATOM      5  C   UNL     1       9.055  10.104  18.860  0.00  0.00    +0.000 C 
BRANCH   5   6
ATOM      6  C   UNL     1      10.062  10.592  19.903  0.00  0.00    +0.000 C 
BRANCH   6  10
ATOM      7  C   UNL     1      11.668  14.496  18.922  0.00  0.00    +0.000 A 
ATOM      8  C   UNL     1      11.551  13.508  17.943  0.00  0.00    +0.000 A 
ATOM      9  C   UNL     1      11.019  12.254  18.253  0.00  0.00    +0.000 A 
ATOM     10  C   UNL     1      10.620  11.958  19.561  0.00  0.00    +0.000 A 
ATOM     11  C   UNL     1      10.751  12.952  20.544  0.00  0.00    +0.000 A 
ATOM     12  C   UNL     1      11.279  14.210  20.228  0.00  0.00    +0.000 A 
BRANCH   7  14
ATOM     13  C   UNL     1      11.868  16.062  17.165  0.00  0.00    +0.000 C 
ATOM     14  O   UNL     1      12.200  15.681  18.496  0.00  0.00    +0.000 OA
ENDBRANCH   7  14
ENDBRANCH   6  10
ENDBRANCH   5   6
ENDBRANCH   1   5
BRANCH   2  15
ATOM     15  C   UNL     1       7.701   6.593  18.223  0.00  0.00    +0.000 C 
BRANCH  15  16
ATOM     16  O   UNL     1       6.409   6.182  17.771  0.00  0.00    +0.000 OA
BRANCH  16  17
ATOM     17  C   UNL     1       6.433   5.562  16.558  0.00  0.00    +0.000 C 
ATOM     18  O   UNL     1       7.365   5.617  15.764  0.00  0.00    +0.000 OA
BRANCH  17  19
ATOM     19  C   UNL     1       5.142   4.812  16.309  0.00  0.00    +0.000 C 
BRANCH  19  20
ATOM     20  C   UNL     1       4.295   4.635  17.548  0.00  0.00    +0.000 A 
ATOM     21  C   UNL     1       4.597   3.632  18.483  0.00  0.00    +0.000 A 
ATOM     22  C   UNL     1       3.811   3.479  19.630  0.00  0.00    +0.000 A 
ATOM     23  C   UNL     1       2.736   4.330  19.875  0.00  0.00    +0.000 A 
ATOM     24  C   UNL     1       2.426   5.325  18.950  0.00  0.00    +0.000 A 
ATOM     25  C   UNL     1       3.203   5.477  17.798  0.00  0.00    +0.000 A 
BRANCH  23  26
ATOM     26  O   UNL     1       2.033   4.083  21.023  0.00  0.00    +0.000 OA
ATOM     27  C   UNL     1       2.285   2.820  21.633  0.00  0.00    +0.000 C 
ENDBRANCH  23  26
ENDBRANCH  19  20
ENDBRANCH  17  19
ENDBRANCH  16  17
ENDBRANCH  15  16
ENDBRANCH   2  15
TORSDOF 10
ENDMDL
MODEL 8
REMARK VINA RESULT:      -6.4      2.999      5.059
REMARK  Name = 
REMARK  12 active torsions:
REMARK  status: ('A' for Active; 'I' for Inactive)
REMARK    1  A    between atoms: C_1  and  O_2
REMARK    2  A    between atoms: O_2  and  C_3
REMARK    3  A    between atoms: C_6  and  C_7
REMARK    4  A    between atoms: C_7  and  C_8
REMARK    5  A    between atoms: C_8  and  N_9
REMARK    6  A    between atoms: C_10  and  C_12
REMARK    7  A    between atoms: C_12  and  O_13
REMARK    8  A    between atoms: O_13  and  C_14
REMARK    9  A    between atoms: C_14  and  C_16
REMARK   10  A    between atoms: C_16  and  C_17
REMARK   11  A    between atoms: C_20  and  O_21
REMARK   12  A    between atoms: O_21  and  C_22
REMARK                            x       y       z     vdW  Elec       q    Type
REMARK                         _______ _______ _______ _____ _____    ______ ____
ROOT
ATOM      1  N   UNL     1       7.257   7.698  18.114  0.00  0.00    +0.000 N 
ATOM      2  C   UNL     1       7.030   6.621  17.274  0.00  0.00    +0.000 C 
ATOM      3  O   UNL     1       7.536   6.520  16.159  0.00  0.00    +0.000 OA
ATOM      4  H   UNL     1       6.620   7.834  18.892  0.00  0.00    +0.000 HD
ENDROOT
BRANCH   1   5
ATOM      5  C   UNL     1       8.098   8.795  17.673  0.00  0.00    +0.000 C 
BRANCH   5   6
ATOM      6  C   UNL     1       8.914   9.427  18.801  0.00  0.00    +0.000 C 
BRANCH   6  10
ATOM      7  C   UNL     1      10.339  13.390  17.778  0.00  0.00    +0.000 A 
ATOM      8  C   UNL     1      11.189  12.462  18.381  0.00  0.00    +0.000 A 
ATOM      9  C   UNL     1      10.736  11.178  18.697  0.00  0.00    +0.000 A 
ATOM     10  C   UNL     1       9.411  10.811  18.440  0.00  0.00    +0.000 A 
ATOM     11  C   UNL     1       8.557  11.753  17.843  0.00  0.00    +0.000 A 
ATOM     12  C   UNL     1       9.016  13.037  17.521  0.00  0.00    +0.000 A 
BRANCH   7  14
ATOM     13  C   UNL     1      12.112  14.892  18.201  0.00  0.00    +0.000 C 
ATOM     14  O   UNL     1      10.897  14.610  17.514  0.00  0.00    +0.000 OA
ENDBRANCH   7  14
ENDBRANCH   6  10
ENDBRANCH   5   6
ENDBRANCH   1   5
BRANCH   2  15
ATOM     15  C   UNL     1       6.043   5.582  17.803  0.00  0.00    +0.000 C 
BRANCH  15  16
ATOM     16  O   UNL     1       4.899   5.399  16.967  0.00  0.00    +0.000 OA
BRANCH  16  17
ATOM     17  C   UNL     1       3.778   5.042  17.655  0.00  0.00    +0.000 C 
ATOM     18  O   UNL     1       2.927   4.261  17.246  0.00  0.00    +0.000 OA
BRANCH  17  19
ATOM     19  C   UNL     1       3.710   5.760  18.986  0.00  0.00    +0.000 C 
BRANCH  19  20
ATOM     20  C   UNL     1       2.844   6.998  18.966  0.00  0.00    +0.000 A 
ATOM     21  C   UNL     1       2.118   7.381  20.105  0.00  0.00    +0.000 A 
ATOM     22  C   UNL     1       1.324   8.531  20.080  0.00  0.00    +0.000 A 
ATOM     23  C   UNL     1       1.260   9.328  18.938  0.00  0.00    +0.000 A 
ATOM     24  C   UNL     1       1.973   8.953  17.802  0.00  0.00    +0.000 A 
ATOM     25  C   UNL     1       2.763   7.800  17.819  0.00  0.00    +0.000 A 
BRANCH  23  26
ATOM     26  O   UNL     1       0.445  10.424  19.025  0.00  0.00    +0.000 OA
ATOM     27  C   UNL     1       1.096  11.683  18.874  0.00  0.00    +0.000 C 
ENDBRANCH  23  26
ENDBRANCH  19  20
ENDBRANCH  17  19
ENDBRANCH  16  17
ENDBRANCH  15  16
ENDBRANCH   2  15
TORSDOF 10
ENDMDL
MODEL 9
REMARK VINA RESULT:      -6.4      1.829      6.568
REMARK  Name = 
REMARK  12 active torsions:
REMARK  status: ('A' for Active; 'I' for Inactive)
REMARK    1  A    between atoms: C_1  and  O_2
REMARK    2  A    between atoms: O_2  and  C_3
REMARK    3  A    between atoms: C_6  and  C_7
REMARK    4  A    between atoms: C_7  and  C_8
REMARK    5  A    between atoms: C_8  and  N_9
REMARK    6  A    between atoms: C_10  and  C_12
REMARK    7  A    between atoms: C_12  and  O_13
REMARK    8  A    between atoms: O_13  and  C_14
REMARK    9  A    between atoms: C_14  and  C_16
REMARK   10  A    between atoms: C_16  and  C_17
REMARK   11  A    between atoms: C_20  and  O_21
REMARK   12  A    between atoms: O_21  and  C_22
REMARK                            x       y       z     vdW  Elec       q    Type
REMARK                         _______ _______ _______ _____ _____    ______ ____
ROOT
ATOM      1  N   UNL     1       2.632   5.516  20.475  0.00  0.00    +0.000 N 
ATOM      2  C   UNL     1       1.944   4.314  20.476  0.00  0.00    +0.000 C 
ATOM      3  O   UNL     1       0.723   4.238  20.582  0.00  0.00    +0.000 OA
ATOM      4  H   UNL     1       3.632   5.490  20.639  0.00  0.00    +0.000 HD
ENDROOT
BRANCH   1   5
ATOM      5  C   UNL     1       1.908   6.763  20.641  0.00  0.00    +0.000 C 
BRANCH   5   6
ATOM      6  C   UNL     1       2.083   7.728  19.468  0.00  0.00    +0.000 C 
BRANCH   6  10
ATOM      7  C   UNL     1      -0.396  11.260  19.864  0.00  0.00    +0.000 A 
ATOM      8  C   UNL     1       0.113  10.884  18.621  0.00  0.00    +0.000 A 
ATOM      9  C   UNL     1       0.899   9.737  18.488  0.00  0.00    +0.000 A 
ATOM     10  C   UNL     1       1.214   8.960  19.608  0.00  0.00    +0.000 A 
ATOM     11  C   UNL     1       0.708   9.349  20.858  0.00  0.00    +0.000 A 
ATOM     12  C   UNL     1      -0.086  10.497  20.987  0.00  0.00    +0.000 A 
BRANCH   7  14
ATOM     13  C   UNL     1      -2.557  12.204  19.716  0.00  0.00    +0.000 C 
ATOM     14  O   UNL     1      -1.154  12.398  19.866  0.00  0.00    +0.000 OA
ENDBRANCH   7  14
ENDBRANCH   6  10
ENDBRANCH   5   6
ENDBRANCH   1   5
BRANCH   2  15
ATOM     15  C   UNL     1       2.822   3.065  20.404  0.00  0.00    +0.000 C 
BRANCH  15  16
ATOM     16  O   UNL     1       2.380   2.109  19.438  0.00  0.00    +0.000 OA
BRANCH  16  17
ATOM     17  C   UNL     1       3.276   1.903  18.432  0.00  0.00    +0.000 C 
ATOM     18  O   UNL     1       4.135   1.030  18.429  0.00  0.00    +0.000 OA
BRANCH  17  19
ATOM     19  C   UNL     1       3.085   2.917  17.324  0.00  0.00    +0.000 C 
BRANCH  19  20
ATOM     20  C   UNL     1       4.271   3.833  17.128  0.00  0.00    +0.000 A 
ATOM     21  C   UNL     1       5.107   4.161  18.207  0.00  0.00    +0.000 A 
ATOM     22  C   UNL     1       6.206   5.004  18.017  0.00  0.00    +0.000 A 
ATOM     23  C   UNL     1       6.503   5.512  16.753  0.00  0.00    +0.000 A 
ATOM     24  C   UNL     1       5.676   5.196  15.677  0.00  0.00    +0.000 A 
ATOM     25  C   UNL     1       4.572   4.359  15.864  0.00  0.00    +0.000 A 
BRANCH  23  26
ATOM     26  O   UNL     1       7.596   6.333  16.686  0.00  0.00    +0.000 OA
ATOM     27  C   UNL     1       7.556   7.474  17.538  0.00  0.00    +0.000 C 
ENDBRANCH  23  26
ENDBRANCH  19  20
ENDBRANCH  17  19
ENDBRANCH  16  17
ENDBRANCH  15  16
ENDBRANCH   2  15
TORSDOF 10
ENDMDL
