MODEL 1
REMARK VINA RESULT:      -7.9      0.000      0.000
REMARK  Name = 
REMARK  9 active torsions:
REMARK  status: ('A' for Active; 'I' for Inactive)
REMARK    1  A    between atoms: N_1  and  C_2
REMARK    2  A    between atoms: C_3  and  N_4
REMARK    3  A    between atoms: N_4  and  C_5
REMARK    4  A    between atoms: C_5  and  C_6
REMARK    5  A    between atoms: C_6  and  C_7
REMARK    6  A    between atoms: C_13  and  C_15
REMARK    7  A    between atoms: C_15  and  C_16
REMARK    8  A    between atoms: N_28  and  C_29
REMARK    9  A    between atoms: C_29  and  C_30
REMARK                            x       y       z     vdW  Elec       q    Type
REMARK                         _______ _______ _______ _____ _____    ______ ____
ROOT
ATOM      1  C   UNL     1      -2.034  12.696  20.642  0.00  0.00    +0.000 A 
ATOM      2  C   UNL     1      -1.048  11.882  21.129  0.00  0.00    +0.000 A 
ATOM      3  C   UNL     1      -1.194  11.389  22.542  0.00  0.00    +0.000 A 
ATOM      4  O   UNL     1      -0.360  10.678  23.100  0.00  0.00    +0.000 OA
ATOM      5  N   UNL     1      -2.262  11.860  23.243  0.00  0.00    +0.000 N 
ATOM      6  C   UNL     1      -3.349  12.473  22.703  0.00  0.00    +0.000 A 
ATOM      7  O   UNL     1      -4.364  12.603  23.384  0.00  0.00    +0.000 OA
ATOM      8  N   UNL     1      -3.209  12.892  21.387  0.00  0.00    +0.000 N 
ATOM      9  H   UNL     1      -2.362  11.533  24.190  0.00  0.00    +0.000 HD
ENDROOT
BRANCH   1  10
ATOM     10  N   UNL     1      -1.897  13.303  19.399  0.00  0.00    +0.000 N 
ATOM     11  H   UNL     1      -2.146  14.289  19.447  0.00  0.00    +0.000 HD
ATOM     12  H   UNL     1      -0.968  13.185  19.005  0.00  0.00    +0.000 HD
ENDBRANCH   1  10
BRANCH   2  13
ATOM     13  N   UNL     1       0.125  11.492  20.431  0.00  0.00    +0.000 N 
ATOM     14  C   UNL     1      -0.008  10.536  19.386  0.00  0.00    +0.000 C 
ATOM     15  O   UNL     1      -1.099  10.050  19.074  0.00  0.00    +0.000 OA
BRANCH  13  16
ATOM     16  C   UNL     1       1.402  12.188  20.646  0.00  0.00    +0.000 C 
BRANCH  16  17
ATOM     17  C   UNL     1       1.375  13.665  21.045  0.00  0.00    +0.000 C 
BRANCH  17  18
ATOM     18  C   UNL     1       1.633  14.656  19.930  0.00  0.00    +0.000 C 
ATOM     19  C   UNL     1       2.681  14.477  19.107  0.00  0.00    +0.000 C 
ATOM     20  C   UNL     1       3.093  15.443  18.043  0.00  0.00    +0.000 C 
ATOM     21  C   UNL     1       2.445  16.813  18.211  0.00  0.00    +0.000 C 
ATOM     22  C   UNL     1       0.959  16.672  18.519  0.00  0.00    +0.000 C 
ATOM     23  C   UNL     1       0.732  15.868  19.806  0.00  0.00    +0.000 C 
ENDBRANCH  17  18
ENDBRANCH  16  17
ENDBRANCH  13  16
BRANCH  14  24
ATOM     24  C   UNL     1       1.276  10.175  18.609  0.00  0.00    +0.000 C 
BRANCH  24  25
ATOM     25  C   UNL     1       1.853   8.790  18.841  0.00  0.00    +0.000 A 
ATOM     26  C   UNL     1       1.581   8.105  20.042  0.00  0.00    +0.000 A 
ATOM     27  C   UNL     1       2.104   6.831  20.269  0.00  0.00    +0.000 A 
ATOM     28  C   UNL     1       2.888   6.233  19.294  0.00  0.00    +0.000 A 
ATOM     29  F   UNL     1       3.404   5.017  19.517  0.00  0.00    +0.000 F 
ATOM     30  C   UNL     1       3.142   6.875  18.088  0.00  0.00    +0.000 A 
ATOM     31  C   UNL     1       2.619   8.150  17.858  0.00  0.00    +0.000 A 
ENDBRANCH  24  25
ENDBRANCH  14  24
ENDBRANCH   2  13
BRANCH   8  32
ATOM     32  C   UNL     1      -4.448  13.383  20.759  0.00  0.00    +0.000 C 
BRANCH  32  33
ATOM     33  C   UNL     1      -5.308  12.352  20.058  0.00  0.00    +0.000 A 
ATOM     34  C   UNL     1      -5.017  11.855  18.783  0.00  0.00    +0.000 A 
ATOM     35  C   UNL     1      -5.790  10.838  18.221  0.00  0.00    +0.000 A 
ATOM     36  C   UNL     1      -6.880  10.319  18.917  0.00  0.00    +0.000 A 
ATOM     37  C   UNL     1      -7.223  10.846  20.158  0.00  0.00    +0.000 A 
ATOM     38  C   UNL     1      -6.448  11.861  20.723  0.00  0.00    +0.000 A 
ENDBRANCH  32  33
ENDBRANCH   8  32
TORSDOF 9
ENDMDL
MODEL 2
REMARK VINA RESULT:      -7.6      3.322      5.600
REMARK  Name = 
REMARK  9 active torsions:
REMARK  status: ('A' for Active; 'I' for Inactive)
REMARK    1  A    between atoms: N_1  and  C_2
REMARK    2  A    between atoms: C_3  and  N_4
REMARK    3  A    between atoms: N_4  and  C_5
REMARK    4  A    between atoms: C_5  and  C_6
REMARK    5  A    between atoms: C_6  and  C_7
REMARK    6  A    between atoms: C_13  and  C_15
REMARK    7  A    between atoms: C_15  and  C_16
REMARK    8  A    between atoms: N_28  and  C_29
REMARK    9  A    between atoms: C_29  and  C_30
REMARK                            x       y       z     vdW  Elec       q    Type
REMARK                         _______ _______ _______ _____ _____    ______ ____
ROOT
ATOM      1  C   UNL     1      -2.210  13.752  21.712  0.00  0.00    +0.000 A 
ATOM      2  C   UNL     1      -1.161  12.875  21.733  0.00  0.00    +0.000 A 
ATOM      3  C   UNL     1      -1.202  11.773  22.755  0.00  0.00    +0.000 A 
ATOM      4  O   UNL     1      -0.304  10.943  22.893  0.00  0.00    +0.000 OA
ATOM      5  N   UNL     1      -2.248  11.789  23.627  0.00  0.00    +0.000 N 
ATOM      6  C   UNL     1      -3.393  12.507  23.467  0.00  0.00    +0.000 A 
ATOM      7  O   UNL     1      -4.372  12.235  24.158  0.00  0.00    +0.000 OA
ATOM      8  N   UNL     1      -3.349  13.498  22.496  0.00  0.00    +0.000 N 
ATOM      9  H   UNL     1      -2.278  11.054  24.313  0.00  0.00    +0.000 HD
ENDROOT
BRANCH   1  10
ATOM     10  N   UNL     1      -2.175  14.875  20.893  0.00  0.00    +0.000 N 
ATOM     11  H   UNL     1      -2.868  15.560  21.187  0.00  0.00    +0.000 HD
ATOM     12  H   UNL     1      -1.251  15.295  20.845  0.00  0.00    +0.000 HD
ENDBRANCH   1  10
BRANCH   2  13
ATOM     13  N   UNL     1      -0.013  12.935  20.901  0.00  0.00    +0.000 N 
ATOM     14  C   UNL     1       1.090  13.719  21.342  0.00  0.00    +0.000 C 
ATOM     15  O   UNL     1       1.074  14.332  22.412  0.00  0.00    +0.000 OA
BRANCH  13  16
ATOM     16  C   UNL     1       0.113  12.069  19.719  0.00  0.00    +0.000 C 
BRANCH  16  17
ATOM     17  C   UNL     1      -0.605  12.476  18.431  0.00  0.00    +0.000 C 
BRANCH  17  18
ATOM     18  C   UNL     1      -1.729  11.566  17.985  0.00  0.00    +0.000 C 
ATOM     19  C   UNL     1      -3.000  11.865  18.310  0.00  0.00    +0.000 C 
ATOM     20  C   UNL     1      -4.175  10.989  18.015  0.00  0.00    +0.000 C 
ATOM     21  C   UNL     1      -3.768   9.567  17.643  0.00  0.00    +0.000 C 
ATOM     22  C   UNL     1      -2.613   9.580  16.649  0.00  0.00    +0.000 C 
ATOM     23  C   UNL     1      -1.387  10.297  17.231  0.00  0.00    +0.000 C 
ENDBRANCH  17  18
ENDBRANCH  16  17
ENDBRANCH  13  16
BRANCH  14  24
ATOM     24  C   UNL     1       2.344  13.718  20.442  0.00  0.00    +0.000 C 
BRANCH  24  25
ATOM     25  C   UNL     1       2.421  14.789  19.370  0.00  0.00    +0.000 A 
ATOM     26  C   UNL     1       3.428  14.731  18.386  0.00  0.00    +0.000 A 
ATOM     27  C   UNL     1       3.512  15.708  17.393  0.00  0.00    +0.000 A 
ATOM     28  C   UNL     1       2.582  16.738  17.371  0.00  0.00    +0.000 A 
ATOM     29  F   UNL     1       2.670  17.685  16.429  0.00  0.00    +0.000 F 
ATOM     30  C   UNL     1       1.559  16.797  18.311  0.00  0.00    +0.000 A 
ATOM     31  C   UNL     1       1.473  15.819  19.305  0.00  0.00    +0.000 A 
ENDBRANCH  24  25
ENDBRANCH  14  24
ENDBRANCH   2  13
BRANCH   8  32
ATOM     32  C   UNL     1      -4.644  14.138  22.207  0.00  0.00    +0.000 C 
BRANCH  32  33
ATOM     33  C   UNL     1      -5.469  13.526  21.093  0.00  0.00    +0.000 A 
ATOM     34  C   UNL     1      -6.125  12.296  21.218  0.00  0.00    +0.000 A 
ATOM     35  C   UNL     1      -6.948  11.822  20.195  0.00  0.00    +0.000 A 
ATOM     36  C   UNL     1      -7.110  12.560  19.025  0.00  0.00    +0.000 A 
ATOM     37  C   UNL     1      -6.415  13.754  18.858  0.00  0.00    +0.000 A 
ATOM     38  C   UNL     1      -5.593  14.231  19.881  0.00  0.00    +0.000 A 
ENDBRANCH  32  33
ENDBRANCH   8  32
TORSDOF 9
ENDMDL
MODEL 3
REMARK VINA RESULT:      -7.6      3.225      5.437
REMARK  Name = 
REMARK  9 active torsions:
REMARK  status: ('A' for Active; 'I' for Inactive)
REMARK    1  A    between atoms: N_1  and  C_2
REMARK    2  A    between atoms: C_3  and  N_4
REMARK    3  A    between atoms: N_4  and  C_5
REMARK    4  A    between atoms: C_5  and  C_6
REMARK    5  A    between atoms: C_6  and  C_7
REMARK    6  A    between atoms: C_13  and  C_15
REMARK    7  A    between atoms: C_15  and  C_16
REMARK    8  A    between atoms: N_28  and  C_29
REMARK    9  A    between atoms: C_29  and  C_30
REMARK                            x       y       z     vdW  Elec       q    Type
REMARK                         _______ _______ _______ _____ _____    ______ ____
ROOT
ATOM      1  C   UNL     1      -2.245  13.422  21.214  0.00  0.00    +0.000 A 
ATOM      2  C   UNL     1      -1.201  12.539  21.244  0.00  0.00    +0.000 A 
ATOM      3  C   UNL     1      -1.151  11.567  22.390  0.00  0.00    +0.000 A 
ATOM      4  O   UNL     1      -0.248  10.746  22.543  0.00  0.00    +0.000 OA
ATOM      5  N   UNL     1      -2.113  11.701  23.345  0.00  0.00    +0.000 N 
ATOM      6  C   UNL     1      -3.265  12.412  23.205  0.00  0.00    +0.000 A 
ATOM      7  O   UNL     1      -4.177  12.237  24.010  0.00  0.00    +0.000 OA
ATOM      8  N   UNL     1      -3.308  13.279  22.123  0.00  0.00    +0.000 N 
ATOM      9  H   UNL     1      -2.082  11.053  24.113  0.00  0.00    +0.000 HD
ENDROOT
BRANCH   1  10
ATOM     10  N   UNL     1      -2.281  14.439  20.267  0.00  0.00    +0.000 N 
ATOM     11  H   UNL     1      -1.371  14.889  20.182  0.00  0.00    +0.000 HD
ATOM     12  H   UNL     1      -2.609  14.119  19.360  0.00  0.00    +0.000 HD
ENDBRANCH   1  10
BRANCH   2  13
ATOM     13  N   UNL     1      -0.134  12.483  20.310  0.00  0.00    +0.000 N 
ATOM     14  C   UNL     1       1.073  13.161  20.636  0.00  0.00    +0.000 C 
ATOM     15  O   UNL     1       1.215  13.780  21.694  0.00  0.00    +0.000 OA
BRANCH  13  16
ATOM     16  C   UNL     1      -0.200  11.601  19.135  0.00  0.00    +0.000 C 
BRANCH  16  17
ATOM     17  C   UNL     1      -1.251  10.490  19.110  0.00  0.00    +0.000 C 
BRANCH  17  18
ATOM     18  C   UNL     1      -2.215  10.518  17.944  0.00  0.00    +0.000 C 
ATOM     19  C   UNL     1      -1.957   9.784  16.846  0.00  0.00    +0.000 C 
ATOM     20  C   UNL     1      -2.779   9.815  15.598  0.00  0.00    +0.000 C 
ATOM     21  C   UNL     1      -3.720  11.014  15.544  0.00  0.00    +0.000 C 
ATOM     22  C   UNL     1      -4.431  11.201  16.879  0.00  0.00    +0.000 C 
ATOM     23  C   UNL     1      -3.426  11.426  18.017  0.00  0.00    +0.000 C 
ENDBRANCH  17  18
ENDBRANCH  16  17
ENDBRANCH  13  16
BRANCH  14  24
ATOM     24  C   UNL     1       2.234  13.034  19.626  0.00  0.00    +0.000 C 
BRANCH  24  25
ATOM     25  C   UNL     1       3.130  14.247  19.453  0.00  0.00    +0.000 A 
ATOM     26  C   UNL     1       2.926  15.125  18.369  0.00  0.00    +0.000 A 
ATOM     27  C   UNL     1       3.741  16.245  18.197  0.00  0.00    +0.000 A 
ATOM     28  C   UNL     1       4.752  16.499  19.113  0.00  0.00    +0.000 A 
ATOM     29  F   UNL     1       5.544  17.565  18.941  0.00  0.00    +0.000 F 
ATOM     30  C   UNL     1       4.948  15.667  20.209  0.00  0.00    +0.000 A 
ATOM     31  C   UNL     1       4.134  14.546  20.383  0.00  0.00    +0.000 A 
ENDBRANCH  24  25
ENDBRANCH  14  24
ENDBRANCH   2  13
BRANCH   8  32
ATOM     32  C   UNL     1      -4.621  13.899  21.878  0.00  0.00    +0.000 C 
BRANCH  32  33
ATOM     33  C   UNL     1      -5.491  13.251  20.820  0.00  0.00    +0.000 A 
ATOM     34  C   UNL     1      -5.944  11.930  20.909  0.00  0.00    +0.000 A 
ATOM     35  C   UNL     1      -6.818  11.411  19.953  0.00  0.00    +0.000 A 
ATOM     36  C   UNL     1      -7.235  12.199  18.882  0.00  0.00    +0.000 A 
ATOM     37  C   UNL     1      -6.743  13.493  18.742  0.00  0.00    +0.000 A 
ATOM     38  C   UNL     1      -5.870  14.015  19.700  0.00  0.00    +0.000 A 
ENDBRANCH  32  33
ENDBRANCH   8  32
TORSDOF 9
ENDMDL
MODEL 4
REMARK VINA RESULT:      -7.6      0.710      1.406
REMARK  Name = 
REMARK  9 active torsions:
REMARK  status: ('A' for Active; 'I' for Inactive)
REMARK    1  A    between atoms: N_1  and  C_2
REMARK    2  A    between atoms: C_3  and  N_4
REMARK    3  A    between atoms: N_4  and  C_5
REMARK    4  A    between atoms: C_5  and  C_6
REMARK    5  A    between atoms: C_6  and  C_7
REMARK    6  A    between atoms: C_13  and  C_15
REMARK    7  A    between atoms: C_15  and  C_16
REMARK    8  A    between atoms: N_28  and  C_29
REMARK    9  A    between atoms: C_29  and  C_30
REMARK                            x       y       z     vdW  Elec       q    Type
REMARK                         _______ _______ _______ _____ _____    ______ ____
ROOT
ATOM      1  C   UNL     1      -2.045  12.668  20.690  0.00  0.00    +0.000 A 
ATOM      2  C   UNL     1      -1.053  11.843  21.145  0.00  0.00    +0.000 A 
ATOM      3  C   UNL     1      -1.173  11.328  22.553  0.00  0.00    +0.000 A 
ATOM      4  O   UNL     1      -0.331  10.606  23.084  0.00  0.00    +0.000 OA
ATOM      5  N   UNL     1      -2.226  11.792  23.282  0.00  0.00    +0.000 N 
ATOM      6  C   UNL     1      -3.321  12.417  22.773  0.00  0.00    +0.000 A 
ATOM      7  O   UNL     1      -4.322  12.539  23.476  0.00  0.00    +0.000 OA
ATOM      8  N   UNL     1      -3.206  12.856  21.461  0.00  0.00    +0.000 N 
ATOM      9  H   UNL     1      -2.308  11.450  24.225  0.00  0.00    +0.000 HD
ENDROOT
BRANCH   1  10
ATOM     10  N   UNL     1      -1.931  13.293  19.454  0.00  0.00    +0.000 N 
ATOM     11  H   UNL     1      -1.651  12.628  18.735  0.00  0.00    +0.000 HD
ATOM     12  H   UNL     1      -2.780  13.781  19.182  0.00  0.00    +0.000 HD
ENDBRANCH   1  10
BRANCH   2  13
ATOM     13  N   UNL     1       0.104  11.460  20.419  0.00  0.00    +0.000 N 
ATOM     14  C   UNL     1      -0.056  10.539  19.346  0.00  0.00    +0.000 C 
ATOM     15  O   UNL     1      -1.157  10.078  19.034  0.00  0.00    +0.000 OA
BRANCH  13  16
ATOM     16  C   UNL     1       1.394  12.132  20.637  0.00  0.00    +0.000 C 
BRANCH  16  17
ATOM     17  C   UNL     1       1.764  13.318  19.744  0.00  0.00    +0.000 C 
BRANCH  17  18
ATOM     18  C   UNL     1       1.207  14.661  20.164  0.00  0.00    +0.000 C 
ATOM     19  C   UNL     1       0.928  15.589  19.231  0.00  0.00    +0.000 C 
ATOM     20  C   UNL     1       0.475  16.981  19.534  0.00  0.00    +0.000 C 
ATOM     21  C   UNL     1       0.707  17.369  20.992  0.00  0.00    +0.000 C 
ATOM     22  C   UNL     1       0.263  16.249  21.924  0.00  0.00    +0.000 C 
ATOM     23  C   UNL     1       1.033  14.951  21.640  0.00  0.00    +0.000 C 
ENDBRANCH  17  18
ENDBRANCH  16  17
ENDBRANCH  13  16
BRANCH  14  24
ATOM     24  C   UNL     1       1.212  10.186  18.539  0.00  0.00    +0.000 C 
BRANCH  24  25
ATOM     25  C   UNL     1       1.813   8.812  18.770  0.00  0.00    +0.000 A 
ATOM     26  C   UNL     1       2.620   8.219  17.779  0.00  0.00    +0.000 A 
ATOM     27  C   UNL     1       3.179   6.956  17.977  0.00  0.00    +0.000 A 
ATOM     28  C   UNL     1       2.947   6.288  19.170  0.00  0.00    +0.000 A 
ATOM     29  F   UNL     1       3.470   5.069  19.355  0.00  0.00    +0.000 F 
ATOM     30  C   UNL     1       2.183   6.867  20.177  0.00  0.00    +0.000 A 
ATOM     31  C   UNL     1       1.622   8.132  19.981  0.00  0.00    +0.000 A 
ENDBRANCH  24  25
ENDBRANCH  14  24
ENDBRANCH   2  13
BRANCH   8  32
ATOM     32  C   UNL     1      -4.455  13.361  20.865  0.00  0.00    +0.000 C 
BRANCH  32  33
ATOM     33  C   UNL     1      -5.320  12.349  20.143  0.00  0.00    +0.000 A 
ATOM     34  C   UNL     1      -5.049  11.902  18.844  0.00  0.00    +0.000 A 
ATOM     35  C   UNL     1      -5.824  10.900  18.260  0.00  0.00    +0.000 A 
ATOM     36  C   UNL     1      -6.895  10.344  18.957  0.00  0.00    +0.000 A 
ATOM     37  C   UNL     1      -7.219  10.822  20.224  0.00  0.00    +0.000 A 
ATOM     38  C   UNL     1      -6.442  11.823  20.811  0.00  0.00    +0.000 A 
ENDBRANCH  32  33
ENDBRANCH   8  32
TORSDOF 9
ENDMDL
MODEL 5
REMARK VINA RESULT:      -7.6      3.335      5.439
REMARK  Name = 
REMARK  9 active torsions:
REMARK  status: ('A' for Active; 'I' for Inactive)
REMARK    1  A    between atoms: N_1  and  C_2
REMARK    2  A    between atoms: C_3  and  N_4
REMARK    3  A    between atoms: N_4  and  C_5
REMARK    4  A    between atoms: C_5  and  C_6
REMARK    5  A    between atoms: C_6  and  C_7
REMARK    6  A    between atoms: C_13  and  C_15
REMARK    7  A    between atoms: C_15  and  C_16
REMARK    8  A    between atoms: N_28  and  C_29
REMARK    9  A    between atoms: C_29  and  C_30
REMARK                            x       y       z     vdW  Elec       q    Type
REMARK                         _______ _______ _______ _____ _____    ______ ____
ROOT
ATOM      1  C   UNL     1      -2.347  13.606  21.678  0.00  0.00    +0.000 A 
ATOM      2  C   UNL     1      -1.363  12.657  21.623  0.00  0.00    +0.000 A 
ATOM      3  C   UNL     1      -1.417  11.548  22.637  0.00  0.00    +0.000 A 
ATOM      4  O   UNL     1      -0.574  10.654  22.708  0.00  0.00    +0.000 OA
ATOM      5  N   UNL     1      -2.401  11.628  23.575  0.00  0.00    +0.000 N 
ATOM      6  C   UNL     1      -3.499  12.427  23.496  0.00  0.00    +0.000 A 
ATOM      7  O   UNL     1      -4.448  12.216  24.248  0.00  0.00    +0.000 OA
ATOM      8  N   UNL     1      -3.448  13.424  22.532  0.00  0.00    +0.000 N 
ATOM      9  H   UNL     1      -2.439  10.887  24.256  0.00  0.00    +0.000 HD
ENDROOT
BRANCH   1  10
ATOM     10  N   UNL     1      -2.284  14.734  20.867  0.00  0.00    +0.000 N 
ATOM     11  H   UNL     1      -2.420  14.486  19.889  0.00  0.00    +0.000 HD
ATOM     12  H   UNL     1      -2.939  15.457  21.150  0.00  0.00    +0.000 HD
ENDBRANCH   1  10
BRANCH   2  13
ATOM     13  N   UNL     1      -0.271  12.646  20.718  0.00  0.00    +0.000 N 
ATOM     14  C   UNL     1       0.923  13.315  21.106  0.00  0.00    +0.000 C 
ATOM     15  O   UNL     1       1.031  13.890  22.192  0.00  0.00    +0.000 OA
BRANCH  13  16
ATOM     16  C   UNL     1      -0.298  11.813  19.506  0.00  0.00    +0.000 C 
BRANCH  16  17
ATOM     17  C   UNL     1      -0.890  12.402  18.224  0.00  0.00    +0.000 C 
BRANCH  17  18
ATOM     18  C   UNL     1      -2.156  11.747  17.718  0.00  0.00    +0.000 C 
ATOM     19  C   UNL     1      -2.215  11.298  16.451  0.00  0.00    +0.000 C 
ATOM     20  C   UNL     1      -3.443  10.732  15.814  0.00  0.00    +0.000 C 
ATOM     21  C   UNL     1      -4.712  11.041  16.604  0.00  0.00    +0.000 C 
ATOM     22  C   UNL     1      -4.493  10.792  18.091  0.00  0.00    +0.000 C 
ATOM     23  C   UNL     1      -3.356  11.666  18.639  0.00  0.00    +0.000 C 
ENDBRANCH  17  18
ENDBRANCH  16  17
ENDBRANCH  13  16
BRANCH  14  24
ATOM     24  C   UNL     1       2.113  13.237  20.125  0.00  0.00    +0.000 C 
BRANCH  24  25
ATOM     25  C   UNL     1       2.311  14.416  19.190  0.00  0.00    +0.000 A 
ATOM     26  C   UNL     1       3.391  14.424  18.285  0.00  0.00    +0.000 A 
ATOM     27  C   UNL     1       3.586  15.501  17.418  0.00  0.00    +0.000 A 
ATOM     28  C   UNL     1       2.696  16.566  17.444  0.00  0.00    +0.000 A 
ATOM     29  F   UNL     1       2.891  17.607  16.625  0.00  0.00    +0.000 F 
ATOM     30  C   UNL     1       1.604  16.564  18.304  0.00  0.00    +0.000 A 
ATOM     31  C   UNL     1       1.407  15.486  19.172  0.00  0.00    +0.000 A 
ENDBRANCH  24  25
ENDBRANCH  14  24
ENDBRANCH   2  13
BRANCH   8  32
ATOM     32  C   UNL     1      -4.709  14.158  22.333  0.00  0.00    +0.000 C 
BRANCH  32  33
ATOM     33  C   UNL     1      -5.634  13.637  21.253  0.00  0.00    +0.000 A 
ATOM     34  C   UNL     1      -5.764  14.247  20.000  0.00  0.00    +0.000 A 
ATOM     35  C   UNL     1      -6.560  13.673  19.008  0.00  0.00    +0.000 A 
ATOM     36  C   UNL     1      -7.256  12.493  19.261  0.00  0.00    +0.000 A 
ATOM     37  C   UNL     1      -7.190  11.907  20.523  0.00  0.00    +0.000 A 
ATOM     38  C   UNL     1      -6.391  12.479  21.515  0.00  0.00    +0.000 A 
ENDBRANCH  32  33
ENDBRANCH   8  32
TORSDOF 9
ENDMDL
MODEL 6
REMARK VINA RESULT:      -7.2      0.761      1.220
REMARK  Name = 
REMARK  9 active torsions:
REMARK  status: ('A' for Active; 'I' for Inactive)
REMARK    1  A    between atoms: N_1  and  C_2
REMARK    2  A    between atoms: C_3  and  N_4
REMARK    3  A    between atoms: N_4  and  C_5
REMARK    4  A    between atoms: C_5  and  C_6
REMARK    5  A    between atoms: C_6  and  C_7
REMARK    6  A    between atoms: C_13  and  C_15
REMARK    7  A    between atoms: C_15  and  C_16
REMARK    8  A    between atoms: N_28  and  C_29
REMARK    9  A    between atoms: C_29  and  C_30
REMARK                            x       y       z     vdW  Elec       q    Type
REMARK                         _______ _______ _______ _____ _____    ______ ____
ROOT
ATOM      1  C   UNL     1      -1.798  12.800  20.521  0.00  0.00    +0.000 A 
ATOM      2  C   UNL     1      -0.788  11.954  20.884  0.00  0.00    +0.000 A 
ATOM      3  C   UNL     1      -0.768  11.473  22.309  0.00  0.00    +0.000 A 
ATOM      4  O   UNL     1       0.106  10.735  22.763  0.00  0.00    +0.000 OA
ATOM      5  N   UNL     1      -1.719  11.986  23.137  0.00  0.00    +0.000 N 
ATOM      6  C   UNL     1      -2.845  12.635  22.735  0.00  0.00    +0.000 A 
ATOM      7  O   UNL     1      -3.759  12.804  23.540  0.00  0.00    +0.000 OA
ATOM      8  N   UNL     1      -2.861  13.042  21.408  0.00  0.00    +0.000 N 
ATOM      9  H   UNL     1      -1.708  11.667  24.092  0.00  0.00    +0.000 HD
ENDROOT
BRANCH   1  10
ATOM     10  N   UNL     1      -1.802  13.396  19.264  0.00  0.00    +0.000 N 
ATOM     11  H   UNL     1      -1.699  14.406  19.341  0.00  0.00    +0.000 HD
ATOM     12  H   UNL     1      -1.095  13.008  18.645  0.00  0.00    +0.000 HD
ENDBRANCH   1  10
BRANCH   2  13
ATOM     13  N   UNL     1       0.271  11.518  20.046  0.00  0.00    +0.000 N 
ATOM     14  C   UNL     1       0.067  10.344  19.269  0.00  0.00    +0.000 C 
ATOM     15  O   UNL     1      -0.991   9.710  19.302  0.00  0.00    +0.000 OA
BRANCH  13  16
ATOM     16  C   UNL     1       1.466  12.351  19.837  0.00  0.00    +0.000 C 
BRANCH  16  17
ATOM     17  C   UNL     1       1.570  13.174  18.553  0.00  0.00    +0.000 C 
BRANCH  17  18
ATOM     18  C   UNL     1       2.456  14.400  18.622  0.00  0.00    +0.000 C 
ATOM     19  C   UNL     1       3.769  14.291  18.349  0.00  0.00    +0.000 C 
ATOM     20  C   UNL     1       4.754  15.407  18.488  0.00  0.00    +0.000 C 
ATOM     21  C   UNL     1       4.211  16.572  19.310  0.00  0.00    +0.000 C 
ATOM     22  C   UNL     1       2.789  16.916  18.881  0.00  0.00    +0.000 C 
ATOM     23  C   UNL     1       1.849  15.717  19.061  0.00  0.00    +0.000 C 
ENDBRANCH  17  18
ENDBRANCH  16  17
ENDBRANCH  13  16
BRANCH  14  24
ATOM     24  C   UNL     1       1.215   9.929  18.324  0.00  0.00    +0.000 C 
BRANCH  24  25
ATOM     25  C   UNL     1       1.911   8.614  18.626  0.00  0.00    +0.000 A 
ATOM     26  C   UNL     1       1.689   7.965  19.857  0.00  0.00    +0.000 A 
ATOM     27  C   UNL     1       2.321   6.755  20.148  0.00  0.00    +0.000 A 
ATOM     28  C   UNL     1       3.164   6.183  19.206  0.00  0.00    +0.000 A 
ATOM     29  F   UNL     1       3.783   5.030  19.490  0.00  0.00    +0.000 F 
ATOM     30  C   UNL     1       3.369   6.787  17.971  0.00  0.00    +0.000 A 
ATOM     31  C   UNL     1       2.738   7.997  17.677  0.00  0.00    +0.000 A 
ENDBRANCH  24  25
ENDBRANCH  14  24
ENDBRANCH   2  13
BRANCH   8  32
ATOM     32  C   UNL     1      -4.152  13.574  20.940  0.00  0.00    +0.000 C 
BRANCH  32  33
ATOM     33  C   UNL     1      -5.143  12.567  20.394  0.00  0.00    +0.000 A 
ATOM     34  C   UNL     1      -6.272  12.145  21.105  0.00  0.00    +0.000 A 
ATOM     35  C   UNL     1      -7.203  11.286  20.518  0.00  0.00    +0.000 A 
ATOM     36  C   UNL     1      -7.007  10.818  19.221  0.00  0.00    +0.000 A 
ATOM     37  C   UNL     1      -5.857  11.176  18.523  0.00  0.00    +0.000 A 
ATOM     38  C   UNL     1      -4.927  12.038  19.107  0.00  0.00    +0.000 A 
ENDBRANCH  32  33
ENDBRANCH   8  32
TORSDOF 9
ENDMDL
MODEL 7
REMARK VINA RESULT:      -7.2      5.633     11.269
REMARK  Name = 
REMARK  9 active torsions:
REMARK  status: ('A' for Active; 'I' for Inactive)
REMARK    1  A    between atoms: N_1  and  C_2
REMARK    2  A    between atoms: C_3  and  N_4
REMARK    3  A    between atoms: N_4  and  C_5
REMARK    4  A    between atoms: C_5  and  C_6
REMARK    5  A    between atoms: C_6  and  C_7
REMARK    6  A    between atoms: C_13  and  C_15
REMARK    7  A    between atoms: C_15  and  C_16
REMARK    8  A    between atoms: N_28  and  C_29
REMARK    9  A    between atoms: C_29  and  C_30
REMARK                            x       y       z     vdW  Elec       q    Type
REMARK                         _______ _______ _______ _____ _____    ______ ____
ROOT
ATOM      1  C   UNL     1       5.239   5.755  16.471  0.00  0.00    +0.000 A 
ATOM      2  C   UNL     1       4.532   5.898  17.634  0.00  0.00    +0.000 A 
ATOM      3  C   UNL     1       5.122   5.297  18.879  0.00  0.00    +0.000 A 
ATOM      4  O   UNL     1       4.568   5.333  19.977  0.00  0.00    +0.000 OA
ATOM      5  N   UNL     1       6.278   4.592  18.726  0.00  0.00    +0.000 N 
ATOM      6  C   UNL     1       7.090   4.641  17.636  0.00  0.00    +0.000 A 
ATOM      7  O   UNL     1       8.231   4.190  17.719  0.00  0.00    +0.000 OA
ATOM      8  N   UNL     1       6.542   5.230  16.505  0.00  0.00    +0.000 N 
ATOM      9  H   UNL     1       6.675   4.187  19.558  0.00  0.00    +0.000 HD
ENDROOT
BRANCH   1  10
ATOM     10  N   UNL     1       4.691   6.159  15.259  0.00  0.00    +0.000 N 
ATOM     11  H   UNL     1       4.064   5.447  14.888  0.00  0.00    +0.000 HD
ATOM     12  H   UNL     1       4.218   7.056  15.323  0.00  0.00    +0.000 HD
ENDBRANCH   1  10
BRANCH   2  13
ATOM     13  N   UNL     1       3.268   6.530  17.764  0.00  0.00    +0.000 N 
ATOM     14  C   UNL     1       3.241   7.948  17.876  0.00  0.00    +0.000 C 
ATOM     15  O   UNL     1       4.269   8.629  17.859  0.00  0.00    +0.000 OA
BRANCH  13  16
ATOM     16  C   UNL     1       2.020   5.772  17.595  0.00  0.00    +0.000 C 
BRANCH  16  17
ATOM     17  C   UNL     1       2.069   4.246  17.694  0.00  0.00    +0.000 C 
BRANCH  17  18
ATOM     18  C   UNL     1       2.036   3.672  19.094  0.00  0.00    +0.000 C 
ATOM     19  C   UNL     1       2.410   2.397  19.302  0.00  0.00    +0.000 C 
ATOM     20  C   UNL     1       2.317   1.694  20.618  0.00  0.00    +0.000 C 
ATOM     21  C   UNL     1       1.428   2.430  21.616  0.00  0.00    +0.000 C 
ATOM     22  C   UNL     1       1.739   3.922  21.615  0.00  0.00    +0.000 C 
ATOM     23  C   UNL     1       1.519   4.536  20.226  0.00  0.00    +0.000 C 
ENDBRANCH  17  18
ENDBRANCH  16  17
ENDBRANCH  13  16
BRANCH  14  24
ATOM     24  C   UNL     1       1.849   8.610  17.959  0.00  0.00    +0.000 C 
BRANCH  24  25
ATOM     25  C   UNL     1       1.358   9.008  19.339  0.00  0.00    +0.000 A 
ATOM     26  C   UNL     1       0.599  10.184  19.505  0.00  0.00    +0.000 A 
ATOM     27  C   UNL     1       0.140  10.563  20.767  0.00  0.00    +0.000 A 
ATOM     28  C   UNL     1       0.426   9.763  21.865  0.00  0.00    +0.000 A 
ATOM     29  F   UNL     1      -0.000  10.133  23.079  0.00  0.00    +0.000 F 
ATOM     30  C   UNL     1       1.142   8.581  21.719  0.00  0.00    +0.000 A 
ATOM     31  C   UNL     1       1.602   8.199  20.456  0.00  0.00    +0.000 A 
ENDBRANCH  24  25
ENDBRANCH  14  24
ENDBRANCH   2  13
BRANCH   8  32
ATOM     32  C   UNL     1       7.489   5.443  15.398  0.00  0.00    +0.000 C 
BRANCH  32  33
ATOM     33  C   UNL     1       7.172   4.748  14.090  0.00  0.00    +0.000 A 
ATOM     34  C   UNL     1       6.267   3.685  13.991  0.00  0.00    +0.000 A 
ATOM     35  C   UNL     1       5.941   3.141  12.748  0.00  0.00    +0.000 A 
ATOM     36  C   UNL     1       6.532   3.637  11.588  0.00  0.00    +0.000 A 
ATOM     37  C   UNL     1       7.482   4.650  11.674  0.00  0.00    +0.000 A 
ATOM     38  C   UNL     1       7.807   5.197  12.917  0.00  0.00    +0.000 A 
ENDBRANCH  32  33
ENDBRANCH   8  32
TORSDOF 9
ENDMDL
MODEL 8
REMARK VINA RESULT:      -7.1      3.164      5.402
REMARK  Name = 
REMARK  9 active torsions:
REMARK  status: ('A' for Active; 'I' for Inactive)
REMARK    1  A    between atoms: N_1  and  C_2
REMARK    2  A    between atoms: C_3  and  N_4
REMARK    3  A    between atoms: N_4  and  C_5
REMARK    4  A    between atoms: C_5  and  C_6
REMARK    5  A    between atoms: C_6  and  C_7
REMARK    6  A    between atoms: C_13  and  C_15
REMARK    7  A    between atoms: C_15  and  C_16
REMARK    8  A    between atoms: N_28  and  C_29
REMARK    9  A    between atoms: C_29  and  C_30
REMARK                            x       y       z     vdW  Elec       q    Type
REMARK                         _______ _______ _______ _____ _____    ______ ____
ROOT
ATOM      1  C   UNL     1      -2.224  13.273  21.119  0.00  0.00    +0.000 A 
ATOM      2  C   UNL     1      -1.156  12.426  21.011  0.00  0.00    +0.000 A 
ATOM      3  C   UNL     1      -0.921  11.464  22.142  0.00  0.00    +0.000 A 
ATOM      4  O   UNL     1       0.023  10.674  22.175  0.00  0.00    +0.000 OA
ATOM      5  N   UNL     1      -1.751  11.573  23.217  0.00  0.00    +0.000 N 
ATOM      6  C   UNL     1      -2.934  12.243  23.231  0.00  0.00    +0.000 A 
ATOM      7  O   UNL     1      -3.724  12.044  24.151  0.00  0.00    +0.000 OA
ATOM      8  N   UNL     1      -3.151  13.102  22.162  0.00  0.00    +0.000 N 
ATOM      9  H   UNL     1      -1.595  10.931  23.976  0.00  0.00    +0.000 HD
ENDROOT
BRANCH   1  10
ATOM     10  N   UNL     1      -2.421  14.282  20.182  0.00  0.00    +0.000 N 
ATOM     11  H   UNL     1      -3.173  14.040  19.541  0.00  0.00    +0.000 HD
ATOM     12  H   UNL     1      -2.592  15.187  20.612  0.00  0.00    +0.000 HD
ENDBRANCH   1  10
BRANCH   2  13
ATOM     13  N   UNL     1      -0.223  12.400  19.942  0.00  0.00    +0.000 N 
ATOM     14  C   UNL     1       0.835  13.351  19.957  0.00  0.00    +0.000 C 
ATOM     15  O   UNL     1       0.961  14.180  20.863  0.00  0.00    +0.000 OA
BRANCH  13  16
ATOM     16  C   UNL     1      -0.230  11.309  18.955  0.00  0.00    +0.000 C 
BRANCH  16  17
ATOM     17  C   UNL     1      -1.423  10.352  18.928  0.00  0.00    +0.000 C 
BRANCH  17  18
ATOM     18  C   UNL     1      -2.318  10.444  17.711  0.00  0.00    +0.000 C 
ATOM     19  C   UNL     1      -2.116   9.616  16.671  0.00  0.00    +0.000 C 
ATOM     20  C   UNL     1      -2.866   9.685  15.379  0.00  0.00    +0.000 C 
ATOM     21  C   UNL     1      -3.623  10.999  15.209  0.00  0.00    +0.000 C 
ATOM     22  C   UNL     1      -4.361  11.365  16.491  0.00  0.00    +0.000 C 
ATOM     23  C   UNL     1      -3.388  11.515  17.669  0.00  0.00    +0.000 C 
ENDBRANCH  17  18
ENDBRANCH  16  17
ENDBRANCH  13  16
BRANCH  14  24
ATOM     24  C   UNL     1       1.866  13.260  18.812  0.00  0.00    +0.000 C 
BRANCH  24  25
ATOM     25  C   UNL     1       2.895  14.372  18.725  0.00  0.00    +0.000 A 
ATOM     26  C   UNL     1       2.521  15.702  18.997  0.00  0.00    +0.000 A 
ATOM     27  C   UNL     1       3.456  16.736  18.921  0.00  0.00    +0.000 A 
ATOM     28  C   UNL     1       4.771  16.441  18.587  0.00  0.00    +0.000 A 
ATOM     29  F   UNL     1       5.666  17.433  18.499  0.00  0.00    +0.000 F 
ATOM     30  C   UNL     1       5.171  15.132  18.349  0.00  0.00    +0.000 A 
ATOM     31  C   UNL     1       4.236  14.096  18.424  0.00  0.00    +0.000 A 
ENDBRANCH  24  25
ENDBRANCH  14  24
ENDBRANCH   2  13
BRANCH   8  32
ATOM     32  C   UNL     1      -4.505  13.675  22.093  0.00  0.00    +0.000 C 
BRANCH  32  33
ATOM     33  C   UNL     1      -5.587  12.794  21.503  0.00  0.00    +0.000 A 
ATOM     34  C   UNL     1      -5.486  12.209  20.236  0.00  0.00    +0.000 A 
ATOM     35  C   UNL     1      -6.469  11.330  19.778  0.00  0.00    +0.000 A 
ATOM     36  C   UNL     1      -7.577  11.041  20.571  0.00  0.00    +0.000 A 
ATOM     37  C   UNL     1      -7.726  11.663  21.807  0.00  0.00    +0.000 A 
ATOM     38  C   UNL     1      -6.741  12.541  22.268  0.00  0.00    +0.000 A 
ENDBRANCH  32  33
ENDBRANCH   8  32
TORSDOF 9
ENDMDL
MODEL 9
REMARK VINA RESULT:      -7.1      3.259      5.621
REMARK  Name = 
REMARK  9 active torsions:
REMARK  status: ('A' for Active; 'I' for Inactive)
REMARK    1  A    between atoms: N_1  and  C_2
REMARK    2  A    between atoms: C_3  and  N_4
REMARK    3  A    between atoms: N_4  and  C_5
REMARK    4  A    between atoms: C_5  and  C_6
REMARK    5  A    between atoms: C_6  and  C_7
REMARK    6  A    between atoms: C_13  and  C_15
REMARK    7  A    between atoms: C_15  and  C_16
REMARK    8  A    between atoms: N_28  and  C_29
REMARK    9  A    between atoms: C_29  and  C_30
REMARK                            x       y       z     vdW  Elec       q    Type
REMARK                         _______ _______ _______ _____ _____    ______ ____
ROOT
ATOM      1  C   UNL     1      -2.487  12.205  19.245  0.00  0.00    +0.000 A 
ATOM      2  C   UNL     1      -1.134  12.005  19.256  0.00  0.00    +0.000 A 
ATOM      3  C   UNL     1      -0.609  10.791  18.542  0.00  0.00    +0.000 A 
ATOM      4  O   UNL     1       0.583  10.487  18.508  0.00  0.00    +0.000 OA
ATOM      5  N   UNL     1      -1.538   9.949  18.008  0.00  0.00    +0.000 N 
ATOM      6  C   UNL     1      -2.846  10.256  17.796  0.00  0.00    +0.000 A 
ATOM      7  O   UNL     1      -3.519   9.535  17.062  0.00  0.00    +0.000 OA
ATOM      8  N   UNL     1      -3.306  11.399  18.436  0.00  0.00    +0.000 N 
ATOM      9  H   UNL     1      -1.190   9.135  17.530  0.00  0.00    +0.000 HD
ENDROOT
BRANCH   1  10
ATOM     10  N   UNL     1      -3.056  13.224  20.001  0.00  0.00    +0.000 N 
ATOM     11  H   UNL     1      -3.973  13.477  19.637  0.00  0.00    +0.000 HD
ATOM     12  H   UNL     1      -3.111  12.995  20.989  0.00  0.00    +0.000 HD
ENDBRANCH   1  10
BRANCH   2  13
ATOM     13  N   UNL     1      -0.181  12.822  19.918  0.00  0.00    +0.000 N 
ATOM     14  C   UNL     1       0.081  14.112  19.378  0.00  0.00    +0.000 C 
ATOM     15  O   UNL     1      -0.494  14.532  18.371  0.00  0.00    +0.000 OA
BRANCH  13  16
ATOM     16  C   UNL     1       0.377  12.432  21.222  0.00  0.00    +0.000 C 
BRANCH  16  17
ATOM     17  C   UNL     1      -0.509  11.651  22.195  0.00  0.00    +0.000 C 
BRANCH  17  18
ATOM     18  C   UNL     1      -1.489  12.473  23.003  0.00  0.00    +0.000 C 
ATOM     19  C   UNL     1      -2.666  11.936  23.371  0.00  0.00    +0.000 C 
ATOM     20  C   UNL     1      -3.751  12.685  24.077  0.00  0.00    +0.000 C 
ATOM     21  C   UNL     1      -3.554  14.197  24.020  0.00  0.00    +0.000 C 
ATOM     22  C   UNL     1      -2.107  14.563  24.329  0.00  0.00    +0.000 C 
ATOM     23  C   UNL     1      -1.143  13.911  23.329  0.00  0.00    +0.000 C 
ENDBRANCH  17  18
ENDBRANCH  16  17
ENDBRANCH  13  16
BRANCH  14  24
ATOM     24  C   UNL     1       1.080  14.998  20.153  0.00  0.00    +0.000 C 
BRANCH  24  25
ATOM     25  C   UNL     1       2.476  15.128  19.573  0.00  0.00    +0.000 A 
ATOM     26  C   UNL     1       2.658  15.682  18.291  0.00  0.00    +0.000 A 
ATOM     27  C   UNL     1       3.936  15.809  17.744  0.00  0.00    +0.000 A 
ATOM     28  C   UNL     1       5.036  15.395  18.481  0.00  0.00    +0.000 A 
ATOM     29  F   UNL     1       6.261  15.502  17.952  0.00  0.00    +0.000 F 
ATOM     30  C   UNL     1       4.884  14.878  19.762  0.00  0.00    +0.000 A 
ATOM     31  C   UNL     1       3.606  14.750  20.312  0.00  0.00    +0.000 A 
ENDBRANCH  24  25
ENDBRANCH  14  24
ENDBRANCH   2  13
BRANCH   8  32
ATOM     32  C   UNL     1      -4.665  11.819  18.050  0.00  0.00    +0.000 C 
BRANCH  32  33
ATOM     33  C   UNL     1      -5.792  11.394  18.969  0.00  0.00    +0.000 A 
ATOM     34  C   UNL     1      -6.399  10.134  18.899  0.00  0.00    +0.000 A 
ATOM     35  C   UNL     1      -7.370   9.760  19.829  0.00  0.00    +0.000 A 
ATOM     36  C   UNL     1      -7.764  10.647  20.828  0.00  0.00    +0.000 A 
ATOM     37  C   UNL     1      -7.218  11.926  20.873  0.00  0.00    +0.000 A 
ATOM     38  C   UNL     1      -6.244  12.301  19.945  0.00  0.00    +0.000 A 
ENDBRANCH  32  33
ENDBRANCH   8  32
TORSDOF 9
ENDMDL
