MODEL 1
REMARK VINA RESULT:      -6.6      0.000      0.000
REMARK  Name = 
REMARK  4 active torsions:
REMARK  status: ('A' for Active; 'I' for Inactive)
REMARK    1  A    between atoms: N_1  and  C_2
REMARK    2  A    between atoms: C_2  and  C_3
REMARK    3  A    between atoms: C_3  and  C_5
REMARK    4  A    between atoms: C_10  and  N_11
REMARK                            x       y       z     vdW  Elec       q    Type
REMARK                         _______ _______ _______ _____ _____    ______ ____
ROOT
ATOM      1  C   UNL     1       5.974   4.447  17.977  0.00  0.00    +0.000 A 
ATOM      2  C   UNL     1       5.088   4.401  19.062  0.00  0.00    +0.000 A 
ATOM      3  C   UNL     1       3.739   4.127  18.849  0.00  0.00    +0.000 A 
ATOM      4  C   UNL     1       3.274   3.857  17.561  0.00  0.00    +0.000 A 
ATOM      5  C   UNL     1       4.148   3.912  16.479  0.00  0.00    +0.000 A 
ATOM      6  C   UNL     1       5.499   4.244  16.661  0.00  0.00    +0.000 A 
ATOM      7  O   UNL     1       1.969   3.537  17.286  0.00  0.00    +0.000 OA
ATOM      8  C   UNL     1       1.256   3.176  18.473  0.00  0.00    +0.000 C 
ATOM      9  C   UNL     1       1.546   4.160  19.594  0.00  0.00    +0.000 C 
ATOM     10  O   UNL     1       2.932   4.120  19.958  0.00  0.00    +0.000 OA
ENDROOT
BRANCH   6  11
ATOM     11  N   UNL     1       6.372   4.121  15.564  0.00  0.00    +0.000 N 
ATOM     12  H   UNL     1       6.682   3.173  15.377  0.00  0.00    +0.000 HD
ATOM     13  H   UNL     1       5.988   4.569  14.725  0.00  0.00    +0.000 HD
ENDBRANCH   6  11
BRANCH   1  14
ATOM     14  C   UNL     1       7.415   4.772  18.208  0.00  0.00    +0.000 C 
ATOM     15  O   UNL     1       8.286   4.130  17.612  0.00  0.00    +0.000 OA
BRANCH  14  16
ATOM     16  C   UNL     1       7.750   5.942  19.133  0.00  0.00    +0.000 C 
BRANCH  16  17
ATOM     17  N   UNL     1       8.144   5.442  20.457  0.00  0.00    +0.000 NA
ATOM     18  H   UNL     1       7.326   5.377  21.058  0.00  0.00    +0.000 HD
ATOM     19  H   UNL     1       8.776   6.126  20.881  0.00  0.00    +0.000 HD
ENDBRANCH  16  17
ENDBRANCH  14  16
ENDBRANCH   1  14
TORSDOF 4
ENDMDL
MODEL 2
REMARK VINA RESULT:      -6.4      1.187      2.880
REMARK  Name = 
REMARK  4 active torsions:
REMARK  status: ('A' for Active; 'I' for Inactive)
REMARK    1  A    between atoms: N_1  and  C_2
REMARK    2  A    between atoms: C_2  and  C_3
REMARK    3  A    between atoms: C_3  and  C_5
REMARK    4  A    between atoms: C_10  and  N_11
REMARK                            x       y       z     vdW  Elec       q    Type
REMARK                         _______ _______ _______ _____ _____    ______ ____
ROOT
ATOM      1  C   UNL     1       5.660   4.423  17.322  0.00  0.00    +0.000 A 
ATOM      2  C   UNL     1       4.486   3.782  16.903  0.00  0.00    +0.000 A 
ATOM      3  C   UNL     1       3.414   3.648  17.781  0.00  0.00    +0.000 A 
ATOM      4  C   UNL     1       3.490   4.186  19.068  0.00  0.00    +0.000 A 
ATOM      5  C   UNL     1       4.659   4.813  19.492  0.00  0.00    +0.000 A 
ATOM      6  C   UNL     1       5.773   4.909  18.645  0.00  0.00    +0.000 A 
ATOM      7  O   UNL     1       2.458   4.129  19.969  0.00  0.00    +0.000 OA
ATOM      8  C   UNL     1       1.224   3.785  19.330  0.00  0.00    +0.000 C 
ATOM      9  C   UNL     1       1.420   2.624  18.370  0.00  0.00    +0.000 C 
ATOM     10  O   UNL     1       2.308   2.992  17.305  0.00  0.00    +0.000 OA
ENDROOT
BRANCH   6  11
ATOM     11  N   UNL     1       6.864   5.696  19.059  0.00  0.00    +0.000 N 
ATOM     12  H   UNL     1       7.268   5.421  19.948  0.00  0.00    +0.000 HD
ATOM     13  H   UNL     1       7.575   5.769  18.323  0.00  0.00    +0.000 HD
ENDBRANCH   6  11
BRANCH   1  14
ATOM     14  C   UNL     1       6.819   4.537  16.384  0.00  0.00    +0.000 C 
ATOM     15  O   UNL     1       7.964   4.354  16.807  0.00  0.00    +0.000 OA
BRANCH  14  16
ATOM     16  C   UNL     1       6.527   4.816  14.909  0.00  0.00    +0.000 C 
BRANCH  16  17
ATOM     17  N   UNL     1       7.694   5.439  14.271  0.00  0.00    +0.000 NA
ATOM     18  H   UNL     1       8.540   5.182  14.775  0.00  0.00    +0.000 HD
ATOM     19  H   UNL     1       7.595   6.455  14.348  0.00  0.00    +0.000 HD
ENDBRANCH  16  17
ENDBRANCH  14  16
ENDBRANCH   1  14
TORSDOF 4
ENDMDL
MODEL 3
REMARK VINA RESULT:      -6.4      1.516      1.555
REMARK  Name = 
REMARK  4 active torsions:
REMARK  status: ('A' for Active; 'I' for Inactive)
REMARK    1  A    between atoms: N_1  and  C_2
REMARK    2  A    between atoms: C_2  and  C_3
REMARK    3  A    between atoms: C_3  and  C_5
REMARK    4  A    between atoms: C_10  and  N_11
REMARK                            x       y       z     vdW  Elec       q    Type
REMARK                         _______ _______ _______ _____ _____    ______ ____
ROOT
ATOM      1  C   UNL     1       5.490   4.679  18.332  0.00  0.00    +0.000 A 
ATOM      2  C   UNL     1       4.701   4.964  19.455  0.00  0.00    +0.000 A 
ATOM      3  C   UNL     1       3.387   4.507  19.517  0.00  0.00    +0.000 A 
ATOM      4  C   UNL     1       2.865   3.731  18.480  0.00  0.00    +0.000 A 
ATOM      5  C   UNL     1       3.642   3.455  17.358  0.00  0.00    +0.000 A 
ATOM      6  C   UNL     1       4.949   3.953  17.246  0.00  0.00    +0.000 A 
ATOM      7  O   UNL     1       1.596   3.212  18.496  0.00  0.00    +0.000 OA
ATOM      8  C   UNL     1       1.026   3.260  19.808  0.00  0.00    +0.000 C 
ATOM      9  C   UNL     1       1.269   4.616  20.450  0.00  0.00    +0.000 C 
ATOM     10  O   UNL     1       2.672   4.843  20.638  0.00  0.00    +0.000 OA
ENDROOT
BRANCH   6  11
ATOM     11  N   UNL     1       5.746   3.508  16.176  0.00  0.00    +0.000 N 
ATOM     12  H   UNL     1       6.040   2.539  16.244  0.00  0.00    +0.000 HD
ATOM     13  H   UNL     1       5.308   3.711  15.270  0.00  0.00    +0.000 HD
ENDBRANCH   6  11
BRANCH   1  14
ATOM     14  C   UNL     1       6.891   5.198  18.257  0.00  0.00    +0.000 C 
ATOM     15  O   UNL     1       7.819   4.506  18.684  0.00  0.00    +0.000 OA
BRANCH  14  16
ATOM     16  C   UNL     1       7.121   6.553  17.588  0.00  0.00    +0.000 C 
BRANCH  16  17
ATOM     17  N   UNL     1       7.478   6.365  16.175  0.00  0.00    +0.000 NA
ATOM     18  H   UNL     1       8.476   6.519  16.049  0.00  0.00    +0.000 HD
ATOM     19  H   UNL     1       6.991   7.077  15.625  0.00  0.00    +0.000 HD
ENDBRANCH  16  17
ENDBRANCH  14  16
ENDBRANCH   1  14
TORSDOF 4
ENDMDL
MODEL 4
REMARK VINA RESULT:      -6.3      1.238      1.268
REMARK  Name = 
REMARK  4 active torsions:
REMARK  status: ('A' for Active; 'I' for Inactive)
REMARK    1  A    between atoms: N_1  and  C_2
REMARK    2  A    between atoms: C_2  and  C_3
REMARK    3  A    between atoms: C_3  and  C_5
REMARK    4  A    between atoms: C_10  and  N_11
REMARK                            x       y       z     vdW  Elec       q    Type
REMARK                         _______ _______ _______ _____ _____    ______ ____
ROOT
ATOM      1  C   UNL     1       5.660   4.796  18.234  0.00  0.00    +0.000 A 
ATOM      2  C   UNL     1       5.167   3.867  19.162  0.00  0.00    +0.000 A 
ATOM      3  C   UNL     1       3.794   3.674  19.292  0.00  0.00    +0.000 A 
ATOM      4  C   UNL     1       2.907   4.375  18.473  0.00  0.00    +0.000 A 
ATOM      5  C   UNL     1       3.392   5.306  17.558  0.00  0.00    +0.000 A 
ATOM      6  C   UNL     1       4.767   5.560  17.449  0.00  0.00    +0.000 A 
ATOM      7  O   UNL     1       1.547   4.203  18.517  0.00  0.00    +0.000 OA
ATOM      8  C   UNL     1       1.193   3.008  19.221  0.00  0.00    +0.000 C 
ATOM      9  C   UNL     1       1.987   2.890  20.511  0.00  0.00    +0.000 C 
ATOM     10  O   UNL     1       3.388   2.765  20.234  0.00  0.00    +0.000 OA
ENDROOT
BRANCH   6  11
ATOM     11  N   UNL     1       5.215   6.382  16.398  0.00  0.00    +0.000 N 
ATOM     12  H   UNL     1       6.206   6.301  16.193  0.00  0.00    +0.000 HD
ATOM     13  H   UNL     1       4.641   6.263  15.556  0.00  0.00    +0.000 HD
ENDBRANCH   6  11
BRANCH   1  14
ATOM     14  C   UNL     1       7.134   5.020  18.120  0.00  0.00    +0.000 C 
ATOM     15  O   UNL     1       7.771   4.437  17.239  0.00  0.00    +0.000 OA
BRANCH  14  16
ATOM     16  C   UNL     1       7.784   6.027  19.070  0.00  0.00    +0.000 C 
BRANCH  16  17
ATOM     17  N   UNL     1       8.065   5.391  20.364  0.00  0.00    +0.000 NA
ATOM     18  H   UNL     1       8.958   5.723  20.723  0.00  0.00    +0.000 HD
ATOM     19  H   UNL     1       8.157   4.384  20.211  0.00  0.00    +0.000 HD
ENDBRANCH  16  17
ENDBRANCH  14  16
ENDBRANCH   1  14
TORSDOF 4
ENDMDL
MODEL 5
REMARK VINA RESULT:      -6.3      1.867      2.889
REMARK  Name = 
REMARK  4 active torsions:
REMARK  status: ('A' for Active; 'I' for Inactive)
REMARK    1  A    between atoms: N_1  and  C_2
REMARK    2  A    between atoms: C_2  and  C_3
REMARK    3  A    between atoms: C_3  and  C_5
REMARK    4  A    between atoms: C_10  and  N_11
REMARK                            x       y       z     vdW  Elec       q    Type
REMARK                         _______ _______ _______ _____ _____    ______ ____
ROOT
ATOM      1  C   UNL     1       4.678   4.070  17.097  0.00  0.00    +0.000 A 
ATOM      2  C   UNL     1       3.303   3.820  16.982  0.00  0.00    +0.000 A 
ATOM      3  C   UNL     1       2.575   3.406  18.094  0.00  0.00    +0.000 A 
ATOM      4  C   UNL     1       3.203   3.276  19.335  0.00  0.00    +0.000 A 
ATOM      5  C   UNL     1       4.570   3.512  19.451  0.00  0.00    +0.000 A 
ATOM      6  C   UNL     1       5.336   3.874  18.333  0.00  0.00    +0.000 A 
ATOM      7  O   UNL     1       2.539   2.915  20.479  0.00  0.00    +0.000 OA
ATOM      8  C   UNL     1       1.121   3.034  20.322  0.00  0.00    +0.000 C 
ATOM      9  C   UNL     1       0.675   2.436  18.998  0.00  0.00    +0.000 C 
ATOM     10  O   UNL     1       1.240   3.162  17.898  0.00  0.00    +0.000 OA
ENDROOT
BRANCH   6  11
ATOM     11  N   UNL     1       6.673   4.264  18.534  0.00  0.00    +0.000 N 
ATOM     12  H   UNL     1       7.148   4.588  17.698  0.00  0.00    +0.000 HD
ATOM     13  H   UNL     1       6.757   4.937  19.305  0.00  0.00    +0.000 HD
ENDBRANCH   6  11
BRANCH   1  14
ATOM     14  C   UNL     1       5.461   4.485  15.893  0.00  0.00    +0.000 C 
ATOM     15  O   UNL     1       6.095   3.638  15.257  0.00  0.00    +0.000 OA
BRANCH  14  16
ATOM     16  C   UNL     1       5.387   5.949  15.457  0.00  0.00    +0.000 C 
BRANCH  16  17
ATOM     17  N   UNL     1       6.161   6.791  16.380  0.00  0.00    +0.000 NA
ATOM     18  H   UNL     1       6.777   7.404  15.852  0.00  0.00    +0.000 HD
ATOM     19  H   UNL     1       6.755   6.180  16.946  0.00  0.00    +0.000 HD
ENDBRANCH  16  17
ENDBRANCH  14  16
ENDBRANCH   1  14
TORSDOF 4
ENDMDL
MODEL 6
REMARK VINA RESULT:      -6.2      1.729      3.039
REMARK  Name = 
REMARK  4 active torsions:
REMARK  status: ('A' for Active; 'I' for Inactive)
REMARK    1  A    between atoms: N_1  and  C_2
REMARK    2  A    between atoms: C_2  and  C_3
REMARK    3  A    between atoms: C_3  and  C_5
REMARK    4  A    between atoms: C_10  and  N_11
REMARK                            x       y       z     vdW  Elec       q    Type
REMARK                         _______ _______ _______ _____ _____    ______ ____
ROOT
ATOM      1  C   UNL     1       4.865   4.792  17.225  0.00  0.00    +0.000 A 
ATOM      2  C   UNL     1       3.508   4.484  17.055  0.00  0.00    +0.000 A 
ATOM      3  C   UNL     1       2.835   3.743  18.023  0.00  0.00    +0.000 A 
ATOM      4  C   UNL     1       3.498   3.340  19.184  0.00  0.00    +0.000 A 
ATOM      5  C   UNL     1       4.849   3.634  19.352  0.00  0.00    +0.000 A 
ATOM      6  C   UNL     1       5.563   4.329  18.364  0.00  0.00    +0.000 A 
ATOM      7  O   UNL     1       2.886   2.647  20.197  0.00  0.00    +0.000 OA
ATOM      8  C   UNL     1       1.461   2.702  20.083  0.00  0.00    +0.000 C 
ATOM      9  C   UNL     1       1.026   2.439  18.651  0.00  0.00    +0.000 C 
ATOM     10  O   UNL     1       1.515   3.464  17.776  0.00  0.00    +0.000 OA
ENDROOT
BRANCH   6  11
ATOM     11  N   UNL     1       6.875   4.746  18.654  0.00  0.00    +0.000 N 
ATOM     12  H   UNL     1       7.225   5.485  18.053  0.00  0.00    +0.000 HD
ATOM     13  H   UNL     1       6.985   4.979  19.648  0.00  0.00    +0.000 HD
ENDBRANCH   6  11
BRANCH   1  14
ATOM     14  C   UNL     1       5.590   5.561  16.168  0.00  0.00    +0.000 C 
ATOM     15  O   UNL     1       5.824   6.760  16.341  0.00  0.00    +0.000 OA
BRANCH  14  16
ATOM     16  C   UNL     1       6.075   4.803  14.931  0.00  0.00    +0.000 C 
BRANCH  16  17
ATOM     17  N   UNL     1       7.450   5.201  14.601  0.00  0.00    +0.000 NA
ATOM     18  H   UNL     1       7.898   5.604  15.421  0.00  0.00    +0.000 HD
ATOM     19  H   UNL     1       7.408   5.935  13.889  0.00  0.00    +0.000 HD
ENDBRANCH  16  17
ENDBRANCH  14  16
ENDBRANCH   1  14
TORSDOF 4
ENDMDL
MODEL 7
REMARK VINA RESULT:      -6.2      1.570      1.650
REMARK  Name = 
REMARK  4 active torsions:
REMARK  status: ('A' for Active; 'I' for Inactive)
REMARK    1  A    between atoms: N_1  and  C_2
REMARK    2  A    between atoms: C_2  and  C_3
REMARK    3  A    between atoms: C_3  and  C_5
REMARK    4  A    between atoms: C_10  and  N_11
REMARK                            x       y       z     vdW  Elec       q    Type
REMARK                         _______ _______ _______ _____ _____    ______ ____
ROOT
ATOM      1  C   UNL     1       5.122   4.991  18.088  0.00  0.00    +0.000 A 
ATOM      2  C   UNL     1       4.346   5.282  19.219  0.00  0.00    +0.000 A 
ATOM      3  C   UNL     1       3.185   4.556  19.473  0.00  0.00    +0.000 A 
ATOM      4  C   UNL     1       2.812   3.511  18.625  0.00  0.00    +0.000 A 
ATOM      5  C   UNL     1       3.574   3.226  17.495  0.00  0.00    +0.000 A 
ATOM      6  C   UNL     1       4.715   3.981  17.186  0.00  0.00    +0.000 A 
ATOM      7  O   UNL     1       1.707   2.728  18.840  0.00  0.00    +0.000 OA
ATOM      8  C   UNL     1       1.211   2.876  20.174  0.00  0.00    +0.000 C 
ATOM      9  C   UNL     1       1.154   4.342  20.567  0.00  0.00    +0.000 C 
ATOM     10  O   UNL     1       2.470   4.913  20.587  0.00  0.00    +0.000 OA
ENDROOT
BRANCH   6  11
ATOM     11  N   UNL     1       5.540   3.548  16.131  0.00  0.00    +0.000 N 
ATOM     12  H   UNL     1       6.369   3.042  16.426  0.00  0.00    +0.000 HD
ATOM     13  H   UNL     1       5.006   3.027  15.426  0.00  0.00    +0.000 HD
ENDBRANCH   6  11
BRANCH   1  14
ATOM     14  C   UNL     1       6.351   5.794  17.804  0.00  0.00    +0.000 C 
ATOM     15  O   UNL     1       6.268   6.806  17.102  0.00  0.00    +0.000 OA
BRANCH  14  16
ATOM     16  C   UNL     1       7.663   5.356  18.456  0.00  0.00    +0.000 C 
BRANCH  16  17
ATOM     17  N   UNL     1       8.195   4.168  17.775  0.00  0.00    +0.000 NA
ATOM     18  H   UNL     1       8.167   4.307  16.768  0.00  0.00    +0.000 HD
ATOM     19  H   UNL     1       7.581   3.377  17.988  0.00  0.00    +0.000 HD
ENDBRANCH  16  17
ENDBRANCH  14  16
ENDBRANCH   1  14
TORSDOF 4
ENDMDL
MODEL 8
REMARK VINA RESULT:      -6.2      2.446      3.143
REMARK  Name = 
REMARK  4 active torsions:
REMARK  status: ('A' for Active; 'I' for Inactive)
REMARK    1  A    between atoms: N_1  and  C_2
REMARK    2  A    between atoms: C_2  and  C_3
REMARK    3  A    between atoms: C_3  and  C_5
REMARK    4  A    between atoms: C_10  and  N_11
REMARK                            x       y       z     vdW  Elec       q    Type
REMARK                         _______ _______ _______ _____ _____    ______ ____
ROOT
ATOM      1  C   UNL     1       4.323   5.443  16.945  0.00  0.00    +0.000 A 
ATOM      2  C   UNL     1       4.113   4.057  16.991  0.00  0.00    +0.000 A 
ATOM      3  C   UNL     1       3.092   3.533  17.780  0.00  0.00    +0.000 A 
ATOM      4  C   UNL     1       2.250   4.387  18.495  0.00  0.00    +0.000 A 
ATOM      5  C   UNL     1       2.462   5.763  18.460  0.00  0.00    +0.000 A 
ATOM      6  C   UNL     1       3.520   6.311  17.719  0.00  0.00    +0.000 A 
ATOM      7  O   UNL     1       1.199   3.943  19.255  0.00  0.00    +0.000 OA
ATOM      8  C   UNL     1       0.868   2.584  18.949  0.00  0.00    +0.000 C 
ATOM      9  C   UNL     1       2.122   1.731  18.866  0.00  0.00    +0.000 C 
ATOM     10  O   UNL     1       2.962   2.168  17.789  0.00  0.00    +0.000 OA
ENDROOT
BRANCH   6  11
ATOM     11  N   UNL     1       3.588   7.710  17.582  0.00  0.00    +0.000 N 
ATOM     12  H   UNL     1       4.512   8.103  17.729  0.00  0.00    +0.000 HD
ATOM     13  H   UNL     1       3.178   8.021  16.695  0.00  0.00    +0.000 HD
ENDBRANCH   6  11
BRANCH   1  14
ATOM     14  C   UNL     1       5.440   5.998  16.120  0.00  0.00    +0.000 C 
ATOM     15  O   UNL     1       5.198   6.861  15.272  0.00  0.00    +0.000 OA
BRANCH  14  16
ATOM     16  C   UNL     1       6.860   5.512  16.412  0.00  0.00    +0.000 C 
BRANCH  16  17
ATOM     17  N   UNL     1       7.589   5.296  15.154  0.00  0.00    +0.000 NA
ATOM     18  H   UNL     1       8.262   6.046  15.014  0.00  0.00    +0.000 HD
ATOM     19  H   UNL     1       6.917   5.346  14.384  0.00  0.00    +0.000 HD
ENDBRANCH  16  17
ENDBRANCH  14  16
ENDBRANCH   1  14
TORSDOF 4
ENDMDL
MODEL 9
REMARK VINA RESULT:      -6.1      2.880      4.904
REMARK  Name = 
REMARK  4 active torsions:
REMARK  status: ('A' for Active; 'I' for Inactive)
REMARK    1  A    between atoms: N_1  and  C_2
REMARK    2  A    between atoms: C_2  and  C_3
REMARK    3  A    between atoms: C_3  and  C_5
REMARK    4  A    between atoms: C_10  and  N_11
REMARK                            x       y       z     vdW  Elec       q    Type
REMARK                         _______ _______ _______ _____ _____    ______ ____
ROOT
ATOM      1  C   UNL     1       3.231   4.617  19.368  0.00  0.00    +0.000 A 
ATOM      2  C   UNL     1       4.579   4.994  19.459  0.00  0.00    +0.000 A 
ATOM      3  C   UNL     1       5.442   4.757  18.392  0.00  0.00    +0.000 A 
ATOM      4  C   UNL     1       4.960   4.180  17.216  0.00  0.00    +0.000 A 
ATOM      5  C   UNL     1       3.626   3.794  17.125  0.00  0.00    +0.000 A 
ATOM      6  C   UNL     1       2.750   3.969  18.207  0.00  0.00    +0.000 A 
ATOM      7  O   UNL     1       5.744   3.959  16.112  0.00  0.00    +0.000 OA
ATOM      8  C   UNL     1       6.972   4.690  16.186  0.00  0.00    +0.000 C 
ATOM      9  C   UNL     1       7.596   4.554  17.565  0.00  0.00    +0.000 C 
ATOM     10  O   UNL     1       6.749   5.135  18.564  0.00  0.00    +0.000 OA
ENDROOT
BRANCH   6  11
ATOM     11  N   UNL     1       1.380   3.719  18.007  0.00  0.00    +0.000 N 
ATOM     12  H   UNL     1       1.142   2.738  17.899  0.00  0.00    +0.000 HD
ATOM     13  H   UNL     1       0.806   4.173  18.727  0.00  0.00    +0.000 HD
ENDBRANCH   6  11
BRANCH   1  14
ATOM     14  C   UNL     1       2.316   4.846  20.528  0.00  0.00    +0.000 C 
ATOM     15  O   UNL     1       1.701   5.912  20.615  0.00  0.00    +0.000 OA
BRANCH  14  16
ATOM     16  C   UNL     1       2.129   3.709  21.533  0.00  0.00    +0.000 C 
BRANCH  16  17
ATOM     17  N   UNL     1       0.979   2.879  21.150  0.00  0.00    +0.000 NA
ATOM     18  H   UNL     1       0.137   3.450  21.122  0.00  0.00    +0.000 HD
ATOM     19  H   UNL     1       0.840   2.172  21.876  0.00  0.00    +0.000 HD
ENDBRANCH  16  17
ENDBRANCH  14  16
ENDBRANCH   1  14
TORSDOF 4
ENDMDL
