MODEL 1
REMARK VINA RESULT:      -6.7      0.000      0.000
REMARK  Name = 
REMARK  9 active torsions:
REMARK  status: ('A' for Active; 'I' for Inactive)
REMARK    1  A    between atoms: C_1  and  C_2
REMARK    2  A    between atoms: C_2  and  C_3
REMARK    3  A    between atoms: C_3  and  N_4
REMARK    4  A    between atoms: C_5  and  C_7
REMARK    5  A    between atoms: C_7  and  C_8
REMARK    6  A    between atoms: C_7  and  N_16
REMARK    7  A    between atoms: C_8  and  C_9
REMARK    8  A    between atoms: C_17  and  C_19
REMARK    9  A    between atoms: C_22  and  C_23
REMARK                            x       y       z     vdW  Elec       q    Type
REMARK                         _______ _______ _______ _____ _____    ______ ____
ROOT
ATOM      1  C   UNL     1       4.897   6.039  16.745  0.00  0.00    +0.000 C 
ENDROOT
BRANCH   1   3
ATOM      2  N   UNL     1       6.793   7.200  17.926  0.00  0.00    +0.000 N 
ATOM      3  C   UNL     1       6.407   6.440  16.834  0.00  0.00    +0.000 C 
ATOM      4  O   UNL     1       7.222   6.038  15.999  0.00  0.00    +0.000 OA
ATOM      5  H   UNL     1       6.085   7.666  18.474  0.00  0.00    +0.000 HD
BRANCH   2   6
ATOM      6  C   UNL     1       8.143   7.717  18.084  0.00  0.00    +0.000 C 
BRANCH   6   8
ATOM      7  C   UNL     1       9.058   9.880  19.013  0.00  0.00    +0.000 C 
ATOM      8  C   UNL     1       8.184   9.239  17.943  0.00  0.00    +0.000 C 
ENDBRANCH   6   8
ENDBRANCH   2   6
ENDBRANCH   1   3
BRANCH   1   9
ATOM      9  N   UNL     1       4.140   6.714  17.829  0.00  0.00    +0.000 N 
ATOM     10  C   UNL     1       3.205   7.708  17.598  0.00  0.00    +0.000 C 
ATOM     11  O   UNL     1       3.010   8.197  16.491  0.00  0.00    +0.000 OA
ATOM     12  H   UNL     1       4.229   6.283  18.743  0.00  0.00    +0.000 HD
BRANCH  10  13
ATOM     13  C   UNL     1       2.316   8.109  18.740  0.00  0.00    +0.000 A 
ATOM     14  C   UNL     1       1.580   9.296  18.742  0.00  0.00    +0.000 A 
ATOM     15  C   UNL     1       0.805   9.648  19.862  0.00  0.00    +0.000 A 
ATOM     16  C   UNL     1       0.755   8.822  20.986  0.00  0.00    +0.000 A 
ATOM     17  C   UNL     1       1.462   7.614  20.981  0.00  0.00    +0.000 A 
ATOM     18  C   UNL     1       2.233   7.260  19.859  0.00  0.00    +0.000 A 
BRANCH  16  19
ATOM     19  C   UNL     1      -0.011   9.209  22.149  0.00  0.00    +0.000 C 
ATOM     20  N   UNL     1      -0.616   9.513  23.089  0.00  0.00    +0.000 NA
ENDBRANCH  16  19
ENDBRANCH  10  13
ENDBRANCH   1   9
BRANCH   1  21
ATOM     21  C   UNL     1       4.713   4.504  16.735  0.00  0.00    +0.000 C 
BRANCH  21  22
ATOM     22  C   UNL     1       3.947   3.958  17.922  0.00  0.00    +0.000 A 
ATOM     23  C   UNL     1       4.616   3.489  19.060  0.00  0.00    +0.000 A 
ATOM     24  C   UNL     1       3.915   3.000  20.158  0.00  0.00    +0.000 A 
ATOM     25  C   UNL     1       2.526   2.993  20.135  0.00  0.00    +0.000 A 
ATOM     26  I   UNL     1       1.477   2.362  21.810  0.00  0.00    +0.000 I 
ATOM     27  C   UNL     1       1.838   3.438  19.007  0.00  0.00    +0.000 A 
ATOM     28  C   UNL     1       2.547   3.921  17.905  0.00  0.00    +0.000 A 
ENDBRANCH  21  22
ENDBRANCH   1  21
TORSDOF 8
ENDMDL
MODEL 2
REMARK VINA RESULT:      -6.6      3.881      6.523
REMARK  Name = 
REMARK  9 active torsions:
REMARK  status: ('A' for Active; 'I' for Inactive)
REMARK    1  A    between atoms: C_1  and  C_2
REMARK    2  A    between atoms: C_2  and  C_3
REMARK    3  A    between atoms: C_3  and  N_4
REMARK    4  A    between atoms: C_5  and  C_7
REMARK    5  A    between atoms: C_7  and  C_8
REMARK    6  A    between atoms: C_7  and  N_16
REMARK    7  A    between atoms: C_8  and  C_9
REMARK    8  A    between atoms: C_17  and  C_19
REMARK    9  A    between atoms: C_22  and  C_23
REMARK                            x       y       z     vdW  Elec       q    Type
REMARK                         _______ _______ _______ _____ _____    ______ ____
ROOT
ATOM      1  C   UNL     1       7.291   6.383  17.678  0.00  0.00    +0.000 C 
ENDROOT
BRANCH   1   3
ATOM      2  N   UNL     1       7.221   5.725  15.249  0.00  0.00    +0.000 N 
ATOM      3  C   UNL     1       7.523   5.331  16.543  0.00  0.00    +0.000 C 
ATOM      4  O   UNL     1       8.014   4.226  16.790  0.00  0.00    +0.000 OA
ATOM      5  H   UNL     1       6.652   6.545  15.106  0.00  0.00    +0.000 HD
BRANCH   2   6
ATOM      6  C   UNL     1       7.302   4.819  14.114  0.00  0.00    +0.000 C 
BRANCH   6   8
ATOM      7  C   UNL     1       5.860   3.456  12.552  0.00  0.00    +0.000 C 
ATOM      8  C   UNL     1       6.033   3.978  13.972  0.00  0.00    +0.000 C 
ENDBRANCH   6   8
ENDBRANCH   2   6
ENDBRANCH   1   3
BRANCH   1   9
ATOM      9  N   UNL     1       6.179   5.933  18.552  0.00  0.00    +0.000 N 
ATOM     10  C   UNL     1       4.941   5.546  18.067  0.00  0.00    +0.000 C 
ATOM     11  O   UNL     1       4.621   5.656  16.890  0.00  0.00    +0.000 OA
ATOM     12  H   UNL     1       6.437   5.766  19.518  0.00  0.00    +0.000 HD
BRANCH  10  13
ATOM     13  C   UNL     1       4.006   4.854  19.017  0.00  0.00    +0.000 A 
ATOM     14  C   UNL     1       3.086   5.547  19.808  0.00  0.00    +0.000 A 
ATOM     15  C   UNL     1       2.271   4.852  20.720  0.00  0.00    +0.000 A 
ATOM     16  C   UNL     1       2.363   3.466  20.851  0.00  0.00    +0.000 A 
ATOM     17  C   UNL     1       3.257   2.759  20.039  0.00  0.00    +0.000 A 
ATOM     18  C   UNL     1       4.069   3.453  19.123  0.00  0.00    +0.000 A 
BRANCH  16  19
ATOM     19  C   UNL     1       1.551   2.763  21.818  0.00  0.00    +0.000 C 
ATOM     20  N   UNL     1       0.907   2.206  22.604  0.00  0.00    +0.000 NA
ENDBRANCH  16  19
ENDBRANCH  10  13
ENDBRANCH   1   9
BRANCH   1  21
ATOM     21  C   UNL     1       7.081   7.804  17.104  0.00  0.00    +0.000 C 
BRANCH  21  22
ATOM     22  C   UNL     1       7.908   8.879  17.778  0.00  0.00    +0.000 A 
ATOM     23  C   UNL     1       7.898  10.198  17.308  0.00  0.00    +0.000 A 
ATOM     24  C   UNL     1       8.645  11.192  17.933  0.00  0.00    +0.000 A 
ATOM     25  C   UNL     1       9.401  10.876  19.055  0.00  0.00    +0.000 A 
ATOM     26  I   UNL     1      10.432  12.375  20.051  0.00  0.00    +0.000 I 
ATOM     27  C   UNL     1       9.440   9.567  19.531  0.00  0.00    +0.000 A 
ATOM     28  C   UNL     1       8.695   8.572  18.896  0.00  0.00    +0.000 A 
ENDBRANCH  21  22
ENDBRANCH   1  21
TORSDOF 8
ENDMDL
MODEL 3
REMARK VINA RESULT:      -6.5      3.341      5.245
REMARK  Name = 
REMARK  9 active torsions:
REMARK  status: ('A' for Active; 'I' for Inactive)
REMARK    1  A    between atoms: C_1  and  C_2
REMARK    2  A    between atoms: C_2  and  C_3
REMARK    3  A    between atoms: C_3  and  N_4
REMARK    4  A    between atoms: C_5  and  C_7
REMARK    5  A    between atoms: C_7  and  C_8
REMARK    6  A    between atoms: C_7  and  N_16
REMARK    7  A    between atoms: C_8  and  C_9
REMARK    8  A    between atoms: C_17  and  C_19
REMARK    9  A    between atoms: C_22  and  C_23
REMARK                            x       y       z     vdW  Elec       q    Type
REMARK                         _______ _______ _______ _____ _____    ______ ____
ROOT
ATOM      1  C   UNL     1       5.585   4.291  16.578  0.00  0.00    +0.000 C 
ENDROOT
BRANCH   1   3
ATOM      2  N   UNL     1       6.273   3.576  14.265  0.00  0.00    +0.000 N 
ATOM      3  C   UNL     1       5.560   4.488  15.026  0.00  0.00    +0.000 C 
ATOM      4  O   UNL     1       4.880   5.378  14.509  0.00  0.00    +0.000 OA
ATOM      5  H   UNL     1       6.960   2.991  14.716  0.00  0.00    +0.000 HD
BRANCH   2   6
ATOM      6  C   UNL     1       6.409   3.695  12.822  0.00  0.00    +0.000 C 
BRANCH   6   8
ATOM      7  C   UNL     1       4.301   3.366  11.472  0.00  0.00    +0.000 C 
ATOM      8  C   UNL     1       5.520   2.692  12.086  0.00  0.00    +0.000 C 
ENDBRANCH   6   8
ENDBRANCH   2   6
ENDBRANCH   1   3
BRANCH   1   9
ATOM      9  N   UNL     1       4.673   5.271  17.218  0.00  0.00    +0.000 N 
ATOM     10  C   UNL     1       3.450   4.924  17.766  0.00  0.00    +0.000 C 
ATOM     11  O   UNL     1       2.966   3.803  17.664  0.00  0.00    +0.000 OA
ATOM     12  H   UNL     1       5.076   6.188  17.378  0.00  0.00    +0.000 HD
BRANCH  10  13
ATOM     13  C   UNL     1       2.754   5.945  18.622  0.00  0.00    +0.000 A 
ATOM     14  C   UNL     1       2.587   7.273  18.224  0.00  0.00    +0.000 A 
ATOM     15  C   UNL     1       1.975   8.199  19.089  0.00  0.00    +0.000 A 
ATOM     16  C   UNL     1       1.524   7.811  20.351  0.00  0.00    +0.000 A 
ATOM     17  C   UNL     1       1.657   6.475  20.745  0.00  0.00    +0.000 A 
ATOM     18  C   UNL     1       2.264   5.547  19.879  0.00  0.00    +0.000 A 
BRANCH  16  19
ATOM     19  C   UNL     1       0.933   8.777  21.250  0.00  0.00    +0.000 C 
ATOM     20  N   UNL     1       0.452   9.541  21.976  0.00  0.00    +0.000 NA
ENDBRANCH  16  19
ENDBRANCH  10  13
ENDBRANCH   1   9
BRANCH   1  21
ATOM     21  C   UNL     1       7.026   4.344  17.136  0.00  0.00    +0.000 C 
BRANCH  21  22
ATOM     22  C   UNL     1       7.469   5.717  17.597  0.00  0.00    +0.000 A 
ATOM     23  C   UNL     1       8.031   5.907  18.866  0.00  0.00    +0.000 A 
ATOM     24  C   UNL     1       8.453   7.165  19.287  0.00  0.00    +0.000 A 
ATOM     25  C   UNL     1       8.332   8.250  18.428  0.00  0.00    +0.000 A 
ATOM     26  I   UNL     1       9.055  10.104  19.013  0.00  0.00    +0.000 I 
ATOM     27  C   UNL     1       7.761   8.089  17.167  0.00  0.00    +0.000 A 
ATOM     28  C   UNL     1       7.333   6.826  16.752  0.00  0.00    +0.000 A 
ENDBRANCH  21  22
ENDBRANCH   1  21
TORSDOF 8
ENDMDL
MODEL 4
REMARK VINA RESULT:      -6.5      3.432      5.579
REMARK  Name = 
REMARK  9 active torsions:
REMARK  status: ('A' for Active; 'I' for Inactive)
REMARK    1  A    between atoms: C_1  and  C_2
REMARK    2  A    between atoms: C_2  and  C_3
REMARK    3  A    between atoms: C_3  and  N_4
REMARK    4  A    between atoms: C_5  and  C_7
REMARK    5  A    between atoms: C_7  and  C_8
REMARK    6  A    between atoms: C_7  and  N_16
REMARK    7  A    between atoms: C_8  and  C_9
REMARK    8  A    between atoms: C_17  and  C_19
REMARK    9  A    between atoms: C_22  and  C_23
REMARK                            x       y       z     vdW  Elec       q    Type
REMARK                         _______ _______ _______ _____ _____    ______ ____
ROOT
ATOM      1  C   UNL     1       2.412   6.483  20.023  0.00  0.00    +0.000 C 
ENDROOT
BRANCH   1   3
ATOM      2  N   UNL     1       1.199   4.296  19.735  0.00  0.00    +0.000 N 
ATOM      3  C   UNL     1       2.014   5.065  20.551  0.00  0.00    +0.000 C 
ATOM      4  O   UNL     1       2.461   4.634  21.617  0.00  0.00    +0.000 OA
ATOM      5  H   UNL     1       0.703   4.741  18.977  0.00  0.00    +0.000 HD
BRANCH   2   6
ATOM      6  C   UNL     1       0.680   3.000  20.142  0.00  0.00    +0.000 C 
BRANCH   6   8
ATOM      7  C   UNL     1       2.550   1.806  18.936  0.00  0.00    +0.000 C 
ATOM      8  C   UNL     1       1.045   1.905  19.140  0.00  0.00    +0.000 C 
ENDBRANCH   6   8
ENDBRANCH   2   6
ENDBRANCH   1   3
BRANCH   1   9
ATOM      9  N   UNL     1       1.722   7.523  20.824  0.00  0.00    +0.000 N 
ATOM     10  C   UNL     1       1.338   8.749  20.309  0.00  0.00    +0.000 C 
ATOM     11  O   UNL     1       1.642   9.125  19.183  0.00  0.00    +0.000 OA
ATOM     12  H   UNL     1       1.397   7.214  21.734  0.00  0.00    +0.000 HD
BRANCH  10  13
ATOM     13  C   UNL     1       0.410   9.593  21.135  0.00  0.00    +0.000 A 
ATOM     14  C   UNL     1       0.136   9.320  22.477  0.00  0.00    +0.000 A 
ATOM     15  C   UNL     1      -0.784  10.113  23.187  0.00  0.00    +0.000 A 
ATOM     16  C   UNL     1      -1.435  11.182  22.570  0.00  0.00    +0.000 A 
ATOM     17  C   UNL     1      -1.142  11.485  21.236  0.00  0.00    +0.000 A 
ATOM     18  C   UNL     1      -0.219  10.695  20.526  0.00  0.00    +0.000 A 
BRANCH  16  19
ATOM     19  C   UNL     1      -2.409  11.967  23.295  0.00  0.00    +0.000 C 
ATOM     20  N   UNL     1      -3.182  12.595  23.887  0.00  0.00    +0.000 NA
ENDBRANCH  16  19
ENDBRANCH  10  13
ENDBRANCH   1   9
BRANCH   1  21
ATOM     21  C   UNL     1       2.162   6.616  18.503  0.00  0.00    +0.000 C 
BRANCH  21  22
ATOM     22  C   UNL     1       3.309   6.139  17.636  0.00  0.00    +0.000 A 
ATOM     23  C   UNL     1       3.461   4.782  17.323  0.00  0.00    +0.000 A 
ATOM     24  C   UNL     1       4.505   4.341  16.515  0.00  0.00    +0.000 A 
ATOM     25  C   UNL     1       5.402   5.264  15.992  0.00  0.00    +0.000 A 
ATOM     26  I   UNL     1       6.895   4.623  14.703  0.00  0.00    +0.000 I 
ATOM     27  C   UNL     1       5.281   6.617  16.303  0.00  0.00    +0.000 A 
ATOM     28  C   UNL     1       4.236   7.053  17.120  0.00  0.00    +0.000 A 
ENDBRANCH  21  22
ENDBRANCH   1  21
TORSDOF 8
ENDMDL
MODEL 5
REMARK VINA RESULT:      -6.4      2.886      5.447
REMARK  Name = 
REMARK  9 active torsions:
REMARK  status: ('A' for Active; 'I' for Inactive)
REMARK    1  A    between atoms: C_1  and  C_2
REMARK    2  A    between atoms: C_2  and  C_3
REMARK    3  A    between atoms: C_3  and  N_4
REMARK    4  A    between atoms: C_5  and  C_7
REMARK    5  A    between atoms: C_7  and  C_8
REMARK    6  A    between atoms: C_7  and  N_16
REMARK    7  A    between atoms: C_8  and  C_9
REMARK    8  A    between atoms: C_17  and  C_19
REMARK    9  A    between atoms: C_22  and  C_23
REMARK                            x       y       z     vdW  Elec       q    Type
REMARK                         _______ _______ _______ _____ _____    ______ ____
ROOT
ATOM      1  C   UNL     1       5.166   4.424  18.864  0.00  0.00    +0.000 C 
ENDROOT
BRANCH   1   3
ATOM      2  N   UNL     1       3.041   3.100  19.121  0.00  0.00    +0.000 N 
ATOM      3  C   UNL     1       4.172   3.329  18.354  0.00  0.00    +0.000 C 
ATOM      4  O   UNL     1       4.363   2.745  17.284  0.00  0.00    +0.000 OA
ATOM      5  H   UNL     1       3.012   3.446  20.068  0.00  0.00    +0.000 HD
BRANCH   2   6
ATOM      6  C   UNL     1       2.084   2.050  18.812  0.00  0.00    +0.000 C 
BRANCH   6   8
ATOM      7  C   UNL     1       0.674   3.696  20.109  0.00  0.00    +0.000 C 
ATOM      8  C   UNL     1       0.680   2.402  19.306  0.00  0.00    +0.000 C 
ENDBRANCH   6   8
ENDBRANCH   2   6
ENDBRANCH   1   3
BRANCH   1   9
ATOM      9  N   UNL     1       4.407   5.633  19.269  0.00  0.00    +0.000 N 
ATOM     10  C   UNL     1       3.395   6.187  18.504  0.00  0.00    +0.000 C 
ATOM     11  O   UNL     1       3.123   5.798  17.374  0.00  0.00    +0.000 OA
ATOM     12  H   UNL     1       4.562   5.933  20.226  0.00  0.00    +0.000 HD
BRANCH  10  13
ATOM     13  C   UNL     1       2.526   7.230  19.146  0.00  0.00    +0.000 A 
ATOM     14  C   UNL     1       2.065   7.122  20.460  0.00  0.00    +0.000 A 
ATOM     15  C   UNL     1       1.209   8.103  20.993  0.00  0.00    +0.000 A 
ATOM     16  C   UNL     1       0.807   9.197  20.225  0.00  0.00    +0.000 A 
ATOM     17  C   UNL     1       1.289   9.331  18.919  0.00  0.00    +0.000 A 
ATOM     18  C   UNL     1       2.150   8.353  18.387  0.00  0.00    +0.000 A 
BRANCH  16  19
ATOM     19  C   UNL     1      -0.105  10.179  20.766  0.00  0.00    +0.000 C 
ATOM     20  N   UNL     1      -0.833  10.976  21.190  0.00  0.00    +0.000 NA
ENDBRANCH  16  19
ENDBRANCH  10  13
ENDBRANCH   1   9
BRANCH   1  21
ATOM     21  C   UNL     1       6.273   4.718  17.825  0.00  0.00    +0.000 C 
BRANCH  21  22
ATOM     22  C   UNL     1       6.940   6.069  17.986  0.00  0.00    +0.000 A 
ATOM     23  C   UNL     1       7.934   6.273  18.951  0.00  0.00    +0.000 A 
ATOM     24  C   UNL     1       8.559   7.509  19.091  0.00  0.00    +0.000 A 
ATOM     25  C   UNL     1       8.204   8.555  18.248  0.00  0.00    +0.000 A 
ATOM     26  I   UNL     1       9.206  10.366  18.385  0.00  0.00    +0.000 I 
ATOM     27  C   UNL     1       7.206   8.380  17.291  0.00  0.00    +0.000 A 
ATOM     28  C   UNL     1       6.577   7.140  17.160  0.00  0.00    +0.000 A 
ENDBRANCH  21  22
ENDBRANCH   1  21
TORSDOF 8
ENDMDL
MODEL 6
REMARK VINA RESULT:      -6.4      3.299      5.318
REMARK  Name = 
REMARK  9 active torsions:
REMARK  status: ('A' for Active; 'I' for Inactive)
REMARK    1  A    between atoms: C_1  and  C_2
REMARK    2  A    between atoms: C_2  and  C_3
REMARK    3  A    between atoms: C_3  and  N_4
REMARK    4  A    between atoms: C_5  and  C_7
REMARK    5  A    between atoms: C_7  and  C_8
REMARK    6  A    between atoms: C_7  and  N_16
REMARK    7  A    between atoms: C_8  and  C_9
REMARK    8  A    between atoms: C_17  and  C_19
REMARK    9  A    between atoms: C_22  and  C_23
REMARK                            x       y       z     vdW  Elec       q    Type
REMARK                         _______ _______ _______ _____ _____    ______ ____
ROOT
ATOM      1  C   UNL     1       4.752   5.481  19.368  0.00  0.00    +0.000 C 
ENDROOT
BRANCH   1   3
ATOM      2  N   UNL     1       2.987   3.962  18.413  0.00  0.00    +0.000 N 
ATOM      3  C   UNL     1       4.174   4.048  19.123  0.00  0.00    +0.000 C 
ATOM      4  O   UNL     1       4.786   3.043  19.492  0.00  0.00    +0.000 OA
ATOM      5  H   UNL     1       2.423   4.791  18.298  0.00  0.00    +0.000 HD
BRANCH   2   6
ATOM      6  C   UNL     1       2.293   2.703  18.195  0.00  0.00    +0.000 C 
BRANCH   6   8
ATOM      7  C   UNL     1       1.067   2.837  20.399  0.00  0.00    +0.000 C 
ATOM      8  C   UNL     1       0.931   2.680  18.891  0.00  0.00    +0.000 C 
ENDBRANCH   6   8
ENDBRANCH   2   6
ENDBRANCH   1   3
BRANCH   1   9
ATOM      9  N   UNL     1       3.719   6.496  19.045  0.00  0.00    +0.000 N 
ATOM     10  C   UNL     1       2.600   6.717  19.830  0.00  0.00    +0.000 C 
ATOM     11  O   UNL     1       2.309   6.013  20.791  0.00  0.00    +0.000 OA
ATOM     12  H   UNL     1       3.968   7.136  18.300  0.00  0.00    +0.000 HD
BRANCH  10  13
ATOM     13  C   UNL     1       1.784   7.946  19.551  0.00  0.00    +0.000 A 
ATOM     14  C   UNL     1       1.013   8.578  20.531  0.00  0.00    +0.000 A 
ATOM     15  C   UNL     1       0.226   9.696  20.201  0.00  0.00    +0.000 A 
ATOM     16  C   UNL     1       0.200  10.194  18.897  0.00  0.00    +0.000 A 
ATOM     17  C   UNL     1       0.994   9.589  17.916  0.00  0.00    +0.000 A 
ATOM     18  C   UNL     1       1.786   8.474  18.247  0.00  0.00    +0.000 A 
BRANCH  16  19
ATOM     19  C   UNL     1      -0.642  11.318  18.556  0.00  0.00    +0.000 C 
ATOM     20  N   UNL     1      -1.320  12.222  18.296  0.00  0.00    +0.000 NA
ENDBRANCH  16  19
ENDBRANCH  10  13
ENDBRANCH   1   9
BRANCH   1  21
ATOM     21  C   UNL     1       6.080   5.698  18.606  0.00  0.00    +0.000 C 
BRANCH  21  22
ATOM     22  C   UNL     1       6.057   5.236  17.164  0.00  0.00    +0.000 A 
ATOM     23  C   UNL     1       5.230   5.858  16.220  0.00  0.00    +0.000 A 
ATOM     24  C   UNL     1       5.217   5.446  14.890  0.00  0.00    +0.000 A 
ATOM     25  C   UNL     1       6.051   4.411  14.487  0.00  0.00    +0.000 A 
ATOM     26  I   UNL     1       6.111   3.864  12.487  0.00  0.00    +0.000 I 
ATOM     27  C   UNL     1       6.870   3.766  15.412  0.00  0.00    +0.000 A 
ATOM     28  C   UNL     1       6.874   4.179  16.745  0.00  0.00    +0.000 A 
ENDBRANCH  21  22
ENDBRANCH   1  21
TORSDOF 8
ENDMDL
MODEL 7
REMARK VINA RESULT:      -6.4      3.074      5.697
REMARK  Name = 
REMARK  9 active torsions:
REMARK  status: ('A' for Active; 'I' for Inactive)
REMARK    1  A    between atoms: C_1  and  C_2
REMARK    2  A    between atoms: C_2  and  C_3
REMARK    3  A    between atoms: C_3  and  N_4
REMARK    4  A    between atoms: C_5  and  C_7
REMARK    5  A    between atoms: C_7  and  C_8
REMARK    6  A    between atoms: C_7  and  N_16
REMARK    7  A    between atoms: C_8  and  C_9
REMARK    8  A    between atoms: C_17  and  C_19
REMARK    9  A    between atoms: C_22  and  C_23
REMARK                            x       y       z     vdW  Elec       q    Type
REMARK                         _______ _______ _______ _____ _____    ______ ____
ROOT
ATOM      1  C   UNL     1       4.873   5.031  18.209  0.00  0.00    +0.000 C 
ENDROOT
BRANCH   1   3
ATOM      2  N   UNL     1       3.408   3.089  18.855  0.00  0.00    +0.000 N 
ATOM      3  C   UNL     1       4.178   3.673  17.862  0.00  0.00    +0.000 C 
ATOM      4  O   UNL     1       4.264   3.183  16.733  0.00  0.00    +0.000 OA
ATOM      5  H   UNL     1       3.513   3.406  19.807  0.00  0.00    +0.000 HD
BRANCH   2   6
ATOM      6  C   UNL     1       2.783   1.785  18.699  0.00  0.00    +0.000 C 
BRANCH   6   8
ATOM      7  C   UNL     1       0.931   3.101  19.802  0.00  0.00    +0.000 C 
ATOM      8  C   UNL     1       1.298   1.824  19.059  0.00  0.00    +0.000 C 
ENDBRANCH   6   8
ENDBRANCH   2   6
ENDBRANCH   1   3
BRANCH   1   9
ATOM      9  N   UNL     1       3.870   6.124  18.176  0.00  0.00    +0.000 N 
ATOM     10  C   UNL     1       3.035   6.421  19.239  0.00  0.00    +0.000 C 
ATOM     11  O   UNL     1       2.971   5.731  20.251  0.00  0.00    +0.000 OA
ATOM     12  H   UNL     1       3.949   6.752  17.383  0.00  0.00    +0.000 HD
BRANCH  10  13
ATOM     13  C   UNL     1       2.268   7.712  19.186  0.00  0.00    +0.000 A 
ATOM     14  C   UNL     1       1.549   8.207  20.276  0.00  0.00    +0.000 A 
ATOM     15  C   UNL     1       0.806   9.395  20.153  0.00  0.00    +0.000 A 
ATOM     16  C   UNL     1       0.773  10.098  18.948  0.00  0.00    +0.000 A 
ATOM     17  C   UNL     1       1.517   9.628  17.860  0.00  0.00    +0.000 A 
ATOM     18  C   UNL     1       2.265   8.443  17.984  0.00  0.00    +0.000 A 
BRANCH  16  19
ATOM     19  C   UNL     1      -0.026  11.296  18.817  0.00  0.00    +0.000 C 
ATOM     20  N   UNL     1      -0.677  12.248  18.713  0.00  0.00    +0.000 NA
ENDBRANCH  16  19
ENDBRANCH  10  13
ENDBRANCH   1   9
BRANCH   1  21
ATOM     21  C   UNL     1       6.094   5.295  17.298  0.00  0.00    +0.000 C 
BRANCH  21  22
ATOM     22  C   UNL     1       6.915   6.508  17.688  0.00  0.00    +0.000 A 
ATOM     23  C   UNL     1       6.750   7.733  17.029  0.00  0.00    +0.000 A 
ATOM     24  C   UNL     1       7.492   8.853  17.394  0.00  0.00    +0.000 A 
ATOM     25  C   UNL     1       8.399   8.761  18.442  0.00  0.00    +0.000 A 
ATOM     26  I   UNL     1       9.430  10.453  19.056  0.00  0.00    +0.000 I 
ATOM     27  C   UNL     1       8.593   7.548  19.101  0.00  0.00    +0.000 A 
ATOM     28  C   UNL     1       7.851   6.426  18.726  0.00  0.00    +0.000 A 
ENDBRANCH  21  22
ENDBRANCH   1  21
TORSDOF 8
ENDMDL
MODEL 8
REMARK VINA RESULT:      -6.3      3.448      6.193
REMARK  Name = 
REMARK  9 active torsions:
REMARK  status: ('A' for Active; 'I' for Inactive)
REMARK    1  A    between atoms: C_1  and  C_2
REMARK    2  A    between atoms: C_2  and  C_3
REMARK    3  A    between atoms: C_3  and  N_4
REMARK    4  A    between atoms: C_5  and  C_7
REMARK    5  A    between atoms: C_7  and  C_8
REMARK    6  A    between atoms: C_7  and  N_16
REMARK    7  A    between atoms: C_8  and  C_9
REMARK    8  A    between atoms: C_17  and  C_19
REMARK    9  A    between atoms: C_22  and  C_23
REMARK                            x       y       z     vdW  Elec       q    Type
REMARK                         _______ _______ _______ _____ _____    ______ ____
ROOT
ATOM      1  C   UNL     1       6.843   6.194  18.089  0.00  0.00    +0.000 C 
ENDROOT
BRANCH   1   3
ATOM      2  N   UNL     1       7.140   5.613  15.657  0.00  0.00    +0.000 N 
ATOM      3  C   UNL     1       7.413   5.261  16.969  0.00  0.00    +0.000 C 
ATOM      4  O   UNL     1       8.126   4.294  17.249  0.00  0.00    +0.000 OA
ATOM      5  H   UNL     1       6.408   6.282  15.471  0.00  0.00    +0.000 HD
BRANCH   2   6
ATOM      6  C   UNL     1       7.529   4.787  14.526  0.00  0.00    +0.000 C 
BRANCH   6   8
ATOM      7  C   UNL     1       6.161   3.454  12.873  0.00  0.00    +0.000 C 
ATOM      8  C   UNL     1       6.493   4.843  13.402  0.00  0.00    +0.000 C 
ENDBRANCH   6   8
ENDBRANCH   2   6
ENDBRANCH   1   3
BRANCH   1   9
ATOM      9  N   UNL     1       7.797   7.301  18.345  0.00  0.00    +0.000 N 
ATOM     10  C   UNL     1       7.714   8.535  17.724  0.00  0.00    +0.000 C 
ATOM     11  O   UNL     1       6.919   8.777  16.823  0.00  0.00    +0.000 OA
ATOM     12  H   UNL     1       8.418   7.154  19.134  0.00  0.00    +0.000 HD
BRANCH  10  13
ATOM     13  C   UNL     1       8.559   9.650  18.270  0.00  0.00    +0.000 A 
ATOM     14  C   UNL     1       9.210   9.567  19.504  0.00  0.00    +0.000 A 
ATOM     15  C   UNL     1       9.946  10.662  19.991  0.00  0.00    +0.000 A 
ATOM     16  C   UNL     1      10.041  11.845  19.256  0.00  0.00    +0.000 A 
ATOM     17  C   UNL     1       9.420  11.926  18.004  0.00  0.00    +0.000 A 
ATOM     18  C   UNL     1       8.688  10.829  17.514  0.00  0.00    +0.000 A 
BRANCH  16  19
ATOM     19  C   UNL     1      10.765  12.981  19.781  0.00  0.00    +0.000 C 
ATOM     20  N   UNL     1      11.349  13.895  20.190  0.00  0.00    +0.000 NA
ENDBRANCH  16  19
ENDBRANCH  10  13
ENDBRANCH   1   9
BRANCH   1  21
ATOM     21  C   UNL     1       6.473   5.397  19.361  0.00  0.00    +0.000 C 
BRANCH  21  22
ATOM     22  C   UNL     1       5.126   4.707  19.299  0.00  0.00    +0.000 A 
ATOM     23  C   UNL     1       5.030   3.310  19.314  0.00  0.00    +0.000 A 
ATOM     24  C   UNL     1       3.793   2.672  19.272  0.00  0.00    +0.000 A 
ATOM     25  C   UNL     1       2.632   3.433  19.232  0.00  0.00    +0.000 A 
ATOM     26  I   UNL     1       0.786   2.488  19.275  0.00  0.00    +0.000 I 
ATOM     27  C   UNL     1       2.704   4.825  19.199  0.00  0.00    +0.000 A 
ATOM     28  C   UNL     1       3.947   5.459  19.234  0.00  0.00    +0.000 A 
ENDBRANCH  21  22
ENDBRANCH   1  21
TORSDOF 8
ENDMDL
MODEL 9
REMARK VINA RESULT:      -6.3      3.352      5.283
REMARK  Name = 
REMARK  9 active torsions:
REMARK  status: ('A' for Active; 'I' for Inactive)
REMARK    1  A    between atoms: C_1  and  C_2
REMARK    2  A    between atoms: C_2  and  C_3
REMARK    3  A    between atoms: C_3  and  N_4
REMARK    4  A    between atoms: C_5  and  C_7
REMARK    5  A    between atoms: C_7  and  C_8
REMARK    6  A    between atoms: C_7  and  N_16
REMARK    7  A    between atoms: C_8  and  C_9
REMARK    8  A    between atoms: C_17  and  C_19
REMARK    9  A    between atoms: C_22  and  C_23
REMARK                            x       y       z     vdW  Elec       q    Type
REMARK                         _______ _______ _______ _____ _____    ______ ____
ROOT
ATOM      1  C   UNL     1       5.336   4.571  16.685  0.00  0.00    +0.000 C 
ENDROOT
BRANCH   1   3
ATOM      2  N   UNL     1       6.221   3.645  14.518  0.00  0.00    +0.000 N 
ATOM      3  C   UNL     1       5.586   4.705  15.146  0.00  0.00    +0.000 C 
ATOM      4  O   UNL     1       5.175   5.683  14.517  0.00  0.00    +0.000 OA
ATOM      5  H   UNL     1       6.708   2.962  15.079  0.00  0.00    +0.000 HD
BRANCH   2   6
ATOM      6  C   UNL     1       6.597   3.678  13.113  0.00  0.00    +0.000 C 
BRANCH   6   8
ATOM      7  C   UNL     1       5.624   2.065  11.431  0.00  0.00    +0.000 C 
ATOM      8  C   UNL     1       5.409   3.359  12.204  0.00  0.00    +0.000 C 
ENDBRANCH   6   8
ENDBRANCH   2   6
ENDBRANCH   1   3
BRANCH   1   9
ATOM      9  N   UNL     1       4.418   5.647  17.134  0.00  0.00    +0.000 N 
ATOM     10  C   UNL     1       3.423   5.452  18.077  0.00  0.00    +0.000 C 
ATOM     11  O   UNL     1       3.140   4.350  18.532  0.00  0.00    +0.000 OA
ATOM     12  H   UNL     1       4.673   6.580  16.829  0.00  0.00    +0.000 HD
BRANCH  10  13
ATOM     13  C   UNL     1       2.753   6.671  18.645  0.00  0.00    +0.000 A 
ATOM     14  C   UNL     1       2.288   6.731  19.961  0.00  0.00    +0.000 A 
ATOM     15  C   UNL     1       1.620   7.878  20.424  0.00  0.00    +0.000 A 
ATOM     16  C   UNL     1       1.410   8.973  19.584  0.00  0.00    +0.000 A 
ATOM     17  C   UNL     1       1.901   8.936  18.274  0.00  0.00    +0.000 A 
ATOM     18  C   UNL     1       2.574   7.790  17.812  0.00  0.00    +0.000 A 
BRANCH  16  19
ATOM     19  C   UNL     1       0.686  10.133  20.055  0.00  0.00    +0.000 C 
ATOM     20  N   UNL     1       0.105  11.067  20.419  0.00  0.00    +0.000 NA
ENDBRANCH  16  19
ENDBRANCH  10  13
ENDBRANCH   1   9
BRANCH   1  21
ATOM     21  C   UNL     1       6.663   4.530  17.477  0.00  0.00    +0.000 C 
BRANCH  21  22
ATOM     22  C   UNL     1       7.232   5.892  17.816  0.00  0.00    +0.000 A 
ATOM     23  C   UNL     1       7.953   6.099  18.999  0.00  0.00    +0.000 A 
ATOM     24  C   UNL     1       8.490   7.346  19.307  0.00  0.00    +0.000 A 
ATOM     25  C   UNL     1       8.324   8.401  18.418  0.00  0.00    +0.000 A 
ATOM     26  I   UNL     1       9.212  10.231  18.824  0.00  0.00    +0.000 I 
ATOM     27  C   UNL     1       7.596   8.223  17.243  0.00  0.00    +0.000 A 
ATOM     28  C   UNL     1       7.054   6.972  16.942  0.00  0.00    +0.000 A 
ENDBRANCH  21  22
ENDBRANCH   1  21
TORSDOF 8
ENDMDL
