MODEL 1
REMARK VINA RESULT:      -5.3      0.000      0.000
REMARK  Name = 
REMARK  3 active torsions:
REMARK  status: ('A' for Active; 'I' for Inactive)
REMARK    1  A    between atoms: C_1  and  O_2
REMARK    2  A    between atoms: O_2  and  C_3
REMARK    3  A    between atoms: C_8  and  C_9
REMARK                            x       y       z     vdW  Elec       q    Type
REMARK                         _______ _______ _______ _____ _____    ______ ____
ROOT
ATOM      1  C   UNL     1       5.280   4.528  16.887  0.00  0.00    +0.000 A 
ATOM      2  C   UNL     1       3.973   4.031  16.962  0.00  0.00    +0.000 A 
ATOM      3  C   UNL     1       3.457   3.594  18.178  0.00  0.00    +0.000 A 
ATOM      4  C   UNL     1       4.265   3.659  19.291  0.00  0.00    +0.000 A 
ATOM      5  N   UNL     1       5.529   4.121  19.262  0.00  0.00    +0.000 NA
ATOM      6  C   UNL     1       6.044   4.551  18.060  0.00  0.00    +0.000 A 
ENDROOT
BRANCH   6   7
ATOM      7  C   UNL     1       7.474   5.072  18.079  0.00  0.00    +0.000 C 
ATOM      8  F   UNL     1       7.996   5.359  19.307  0.00  0.00    +0.000 F 
ATOM      9  F   UNL     1       8.357   4.184  17.526  0.00  0.00    +0.000 F 
ATOM     10  F   UNL     1       7.623   6.225  17.357  0.00  0.00    +0.000 F 
ENDBRANCH   6   7
BRANCH   1  12
ATOM     11  C   UNL     1       6.179   3.927  14.772  0.00  0.00    +0.000 C 
ATOM     12  O   UNL     1       5.856   4.940  15.719  0.00  0.00    +0.000 OA
ENDBRANCH   1  12
TORSDOF 2
ENDMDL
MODEL 2
REMARK VINA RESULT:      -5.3      1.903      3.284
REMARK  Name = 
REMARK  3 active torsions:
REMARK  status: ('A' for Active; 'I' for Inactive)
REMARK    1  A    between atoms: C_1  and  O_2
REMARK    2  A    between atoms: O_2  and  C_3
REMARK    3  A    between atoms: C_8  and  C_9
REMARK                            x       y       z     vdW  Elec       q    Type
REMARK                         _______ _______ _______ _____ _____    ______ ____
ROOT
ATOM      1  C   UNL     1       5.965   4.328  16.492  0.00  0.00    +0.000 A 
ATOM      2  C   UNL     1       5.655   3.559  15.364  0.00  0.00    +0.000 A 
ATOM      3  C   UNL     1       6.252   3.839  14.138  0.00  0.00    +0.000 A 
ATOM      4  C   UNL     1       7.141   4.889  14.070  0.00  0.00    +0.000 A 
ATOM      5  N   UNL     1       7.460   5.659  15.128  0.00  0.00    +0.000 NA
ATOM      6  C   UNL     1       6.869   5.386  16.341  0.00  0.00    +0.000 A 
ENDROOT
BRANCH   6   7
ATOM      7  C   UNL     1       7.267   6.279  17.508  0.00  0.00    +0.000 C 
ATOM      8  F   UNL     1       8.023   5.696  18.483  0.00  0.00    +0.000 F 
ATOM      9  F   UNL     1       7.997   7.364  17.105  0.00  0.00    +0.000 F 
ATOM     10  F   UNL     1       6.185   6.797  18.165  0.00  0.00    +0.000 F 
ENDBRANCH   6   7
BRANCH   1  12
ATOM     11  C   UNL     1       4.014   3.756  17.721  0.00  0.00    +0.000 C 
ATOM     12  O   UNL     1       5.389   4.126  17.714  0.00  0.00    +0.000 OA
ENDBRANCH   1  12
TORSDOF 2
ENDMDL
MODEL 3
REMARK VINA RESULT:      -5.3      0.737      1.247
REMARK  Name = 
REMARK  3 active torsions:
REMARK  status: ('A' for Active; 'I' for Inactive)
REMARK    1  A    between atoms: C_1  and  O_2
REMARK    2  A    between atoms: O_2  and  C_3
REMARK    3  A    between atoms: C_8  and  C_9
REMARK                            x       y       z     vdW  Elec       q    Type
REMARK                         _______ _______ _______ _____ _____    ______ ____
ROOT
ATOM      1  C   UNL     1       5.250   4.236  17.052  0.00  0.00    +0.000 A 
ATOM      2  C   UNL     1       3.888   3.975  17.240  0.00  0.00    +0.000 A 
ATOM      3  C   UNL     1       3.253   4.369  18.414  0.00  0.00    +0.000 A 
ATOM      4  C   UNL     1       4.001   5.009  19.378  0.00  0.00    +0.000 A 
ATOM      5  N   UNL     1       5.315   5.271  19.242  0.00  0.00    +0.000 NA
ATOM      6  C   UNL     1       5.946   4.880  18.082  0.00  0.00    +0.000 A 
ENDROOT
BRANCH   6   7
ATOM      7  C   UNL     1       7.429   5.205  17.972  0.00  0.00    +0.000 C 
ATOM      8  F   UNL     1       8.252   4.168  17.642  0.00  0.00    +0.000 F 
ATOM      9  F   UNL     1       7.681   6.163  17.027  0.00  0.00    +0.000 F 
ATOM     10  F   UNL     1       7.945   5.705  19.137  0.00  0.00    +0.000 F 
ENDBRANCH   6   7
BRANCH   1  12
ATOM     11  C   UNL     1       5.647   4.543  14.731  0.00  0.00    +0.000 C 
ATOM     12  O   UNL     1       5.938   3.847  15.938  0.00  0.00    +0.000 OA
ENDBRANCH   1  12
TORSDOF 2
ENDMDL
MODEL 4
REMARK VINA RESULT:      -5.3      2.075      3.421
REMARK  Name = 
REMARK  3 active torsions:
REMARK  status: ('A' for Active; 'I' for Inactive)
REMARK    1  A    between atoms: C_1  and  O_2
REMARK    2  A    between atoms: O_2  and  C_3
REMARK    3  A    between atoms: C_8  and  C_9
REMARK                            x       y       z     vdW  Elec       q    Type
REMARK                         _______ _______ _______ _____ _____    ______ ____
ROOT
ATOM      1  C   UNL     1       5.728   4.973  16.909  0.00  0.00    +0.000 A 
ATOM      2  C   UNL     1       5.388   3.963  16.001  0.00  0.00    +0.000 A 
ATOM      3  C   UNL     1       6.067   3.847  14.792  0.00  0.00    +0.000 A 
ATOM      4  C   UNL     1       7.068   4.753  14.517  0.00  0.00    +0.000 A 
ATOM      5  N   UNL     1       7.421   5.744  15.357  0.00  0.00    +0.000 NA
ATOM      6  C   UNL     1       6.748   5.862  16.553  0.00  0.00    +0.000 A 
ENDROOT
BRANCH   6   7
ATOM      7  C   UNL     1       7.188   6.994  17.472  0.00  0.00    +0.000 C 
ATOM      8  F   UNL     1       8.187   7.798  17.004  0.00  0.00    +0.000 F 
ATOM      9  F   UNL     1       6.162   7.850  17.767  0.00  0.00    +0.000 F 
ATOM     10  F   UNL     1       7.639   6.541  18.682  0.00  0.00    +0.000 F 
ENDBRANCH   6   7
BRANCH   1  12
ATOM     11  C   UNL     1       5.052   4.054  18.992  0.00  0.00    +0.000 C 
ATOM     12  O   UNL     1       5.078   5.160  18.096  0.00  0.00    +0.000 OA
ENDBRANCH   1  12
TORSDOF 2
ENDMDL
MODEL 5
REMARK VINA RESULT:      -5.3      3.815      4.737
REMARK  Name = 
REMARK  3 active torsions:
REMARK  status: ('A' for Active; 'I' for Inactive)
REMARK    1  A    between atoms: C_1  and  O_2
REMARK    2  A    between atoms: O_2  and  C_3
REMARK    3  A    between atoms: C_8  and  C_9
REMARK                            x       y       z     vdW  Elec       q    Type
REMARK                         _______ _______ _______ _____ _____    ______ ____
ROOT
ATOM      1  C   UNL     1       3.444   3.212  19.574  0.00  0.00    +0.000 A 
ATOM      2  C   UNL     1       3.417   2.702  20.877  0.00  0.00    +0.000 A 
ATOM      3  C   UNL     1       2.217   2.632  21.579  0.00  0.00    +0.000 A 
ATOM      4  C   UNL     1       1.072   3.083  20.960  0.00  0.00    +0.000 A 
ATOM      5  N   UNL     1       1.055   3.589  19.712  0.00  0.00    +0.000 NA
ATOM      6  C   UNL     1       2.241   3.661  19.017  0.00  0.00    +0.000 A 
ENDROOT
BRANCH   6   7
ATOM      7  C   UNL     1       2.170   4.233  17.607  0.00  0.00    +0.000 C 
ATOM      8  F   UNL     1       2.915   5.352  17.371  0.00  0.00    +0.000 F 
ATOM      9  F   UNL     1       2.584   3.335  16.662  0.00  0.00    +0.000 F 
ATOM     10  F   UNL     1       0.896   4.577  17.245  0.00  0.00    +0.000 F 
ENDBRANCH   6   7
BRANCH   1  12
ATOM     11  C   UNL     1       5.439   4.435  19.169  0.00  0.00    +0.000 C 
ATOM     12  O   UNL     1       4.593   3.337  18.845  0.00  0.00    +0.000 OA
ENDBRANCH   1  12
TORSDOF 2
ENDMDL
MODEL 6
REMARK VINA RESULT:      -5.3      4.334      5.285
REMARK  Name = 
REMARK  3 active torsions:
REMARK  status: ('A' for Active; 'I' for Inactive)
REMARK    1  A    between atoms: C_1  and  O_2
REMARK    2  A    between atoms: O_2  and  C_3
REMARK    3  A    between atoms: C_8  and  C_9
REMARK                            x       y       z     vdW  Elec       q    Type
REMARK                         _______ _______ _______ _____ _____    ______ ____
ROOT
ATOM      1  C   UNL     1       3.221   4.544  19.062  0.00  0.00    +0.000 A 
ATOM      2  C   UNL     1       3.963   4.253  17.912  0.00  0.00    +0.000 A 
ATOM      3  C   UNL     1       3.933   2.975  17.361  0.00  0.00    +0.000 A 
ATOM      4  C   UNL     1       3.165   2.015  17.982  0.00  0.00    +0.000 A 
ATOM      5  N   UNL     1       2.444   2.250  19.095  0.00  0.00    +0.000 NA
ATOM      6  C   UNL     1       2.474   3.512  19.643  0.00  0.00    +0.000 A 
ENDROOT
BRANCH   6   7
ATOM      7  C   UNL     1       1.636   3.731  20.895  0.00  0.00    +0.000 C 
ATOM      8  F   UNL     1       2.319   4.069  22.027  0.00  0.00    +0.000 F 
ATOM      9  F   UNL     1       0.714   4.729  20.735  0.00  0.00    +0.000 F 
ATOM     10  F   UNL     1       0.911   2.623  21.241  0.00  0.00    +0.000 F 
ENDBRANCH   6   7
BRANCH   1  12
ATOM     11  C   UNL     1       2.634   6.843  18.955  0.00  0.00    +0.000 C 
ATOM     12  O   UNL     1       3.234   5.768  19.670  0.00  0.00    +0.000 OA
ENDBRANCH   1  12
TORSDOF 2
ENDMDL
MODEL 7
REMARK VINA RESULT:      -5.2      0.720      1.342
REMARK  Name = 
REMARK  3 active torsions:
REMARK  status: ('A' for Active; 'I' for Inactive)
REMARK    1  A    between atoms: C_1  and  O_2
REMARK    2  A    between atoms: O_2  and  C_3
REMARK    3  A    between atoms: C_8  and  C_9
REMARK                            x       y       z     vdW  Elec       q    Type
REMARK                         _______ _______ _______ _____ _____    ______ ____
ROOT
ATOM      1  C   UNL     1       5.273   4.280  17.044  0.00  0.00    +0.000 A 
ATOM      2  C   UNL     1       3.918   3.971  17.209  0.00  0.00    +0.000 A 
ATOM      3  C   UNL     1       3.258   4.312  18.385  0.00  0.00    +0.000 A 
ATOM      4  C   UNL     1       3.975   4.949  19.374  0.00  0.00    +0.000 A 
ATOM      5  N   UNL     1       5.280   5.257  19.261  0.00  0.00    +0.000 NA
ATOM      6  C   UNL     1       5.936   4.918  18.099  0.00  0.00    +0.000 A 
ENDROOT
BRANCH   6   7
ATOM      7  C   UNL     1       7.409   5.294  18.014  0.00  0.00    +0.000 C 
ATOM      8  F   UNL     1       7.736   6.253  17.100  0.00  0.00    +0.000 F 
ATOM      9  F   UNL     1       7.892   5.769  19.204  0.00  0.00    +0.000 F 
ATOM     10  F   UNL     1       8.206   4.226  17.703  0.00  0.00    +0.000 F 
ENDBRANCH   6   7
BRANCH   1  12
ATOM     11  C   UNL     1       5.655   4.632  14.726  0.00  0.00    +0.000 C 
ATOM     12  O   UNL     1       5.985   3.943  15.928  0.00  0.00    +0.000 OA
ENDBRANCH   1  12
TORSDOF 2
ENDMDL
MODEL 8
REMARK VINA RESULT:      -5.2      4.347      5.265
REMARK  Name = 
REMARK  3 active torsions:
REMARK  status: ('A' for Active; 'I' for Inactive)
REMARK    1  A    between atoms: C_1  and  O_2
REMARK    2  A    between atoms: O_2  and  C_3
REMARK    3  A    between atoms: C_8  and  C_9
REMARK                            x       y       z     vdW  Elec       q    Type
REMARK                         _______ _______ _______ _____ _____    ______ ____
ROOT
ATOM      1  C   UNL     1       3.166   4.636  19.063  0.00  0.00    +0.000 A 
ATOM      2  C   UNL     1       3.939   4.386  17.923  0.00  0.00    +0.000 A 
ATOM      3  C   UNL     1       3.976   3.112  17.366  0.00  0.00    +0.000 A 
ATOM      4  C   UNL     1       3.243   2.114  17.969  0.00  0.00    +0.000 A 
ATOM      5  N   UNL     1       2.495   2.308  19.072  0.00  0.00    +0.000 NA
ATOM      6  C   UNL     1       2.458   3.568  19.626  0.00  0.00    +0.000 A 
ENDROOT
BRANCH   6   7
ATOM      7  C   UNL     1       1.592   3.740  20.867  0.00  0.00    +0.000 C 
ATOM      8  F   UNL     1       0.886   2.643  21.268  0.00  0.00    +0.000 F 
ATOM      9  F   UNL     1       2.325   4.102  21.965  0.00  0.00    +0.000 F 
ATOM     10  F   UNL     1       0.654   4.726  20.719  0.00  0.00    +0.000 F 
ENDBRANCH   6   7
BRANCH   1  12
ATOM     11  C   UNL     1       2.587   6.934  18.912  0.00  0.00    +0.000 C 
ATOM     12  O   UNL     1       3.114   5.856  19.677  0.00  0.00    +0.000 OA
ENDBRANCH   1  12
TORSDOF 2
ENDMDL
MODEL 9
REMARK VINA RESULT:      -5.2      4.334      5.260
REMARK  Name = 
REMARK  3 active torsions:
REMARK  status: ('A' for Active; 'I' for Inactive)
REMARK    1  A    between atoms: C_1  and  O_2
REMARK    2  A    between atoms: O_2  and  C_3
REMARK    3  A    between atoms: C_8  and  C_9
REMARK                            x       y       z     vdW  Elec       q    Type
REMARK                         _______ _______ _______ _____ _____    ______ ____
ROOT
ATOM      1  C   UNL     1       3.207   4.643  19.040  0.00  0.00    +0.000 A 
ATOM      2  C   UNL     1       3.994   4.375  17.915  0.00  0.00    +0.000 A 
ATOM      3  C   UNL     1       4.027   3.095  17.369  0.00  0.00    +0.000 A 
ATOM      4  C   UNL     1       3.274   2.111  17.970  0.00  0.00    +0.000 A 
ATOM      5  N   UNL     1       2.511   2.323  19.059  0.00  0.00    +0.000 NA
ATOM      6  C   UNL     1       2.479   3.588  19.602  0.00  0.00    +0.000 A 
ENDROOT
BRANCH   6   7
ATOM      7  C   UNL     1       1.595   3.780  20.827  0.00  0.00    +0.000 C 
ATOM      8  F   UNL     1       0.641   4.752  20.737  0.00  0.00    +0.000 F 
ATOM      9  F   UNL     1       0.904   2.644  21.151  0.00  0.00    +0.000 F 
ATOM     10  F   UNL     1       2.314   4.097  21.947  0.00  0.00    +0.000 F 
ENDBRANCH   6   7
BRANCH   1  12
ATOM     11  C   UNL     1       2.615   6.937  18.874  0.00  0.00    +0.000 C 
ATOM     12  O   UNL     1       3.157   5.869  19.642  0.00  0.00    +0.000 OA
ENDBRANCH   1  12
TORSDOF 2
ENDMDL
