MODEL 1
REMARK VINA RESULT:      -8.2      0.000      0.000
REMARK  Name = 
REMARK  5 active torsions:
REMARK  status: ('A' for Active; 'I' for Inactive)
REMARK    1  A    between atoms: C_2  and  C_18
REMARK    2  A    between atoms: N_3  and  C_4
REMARK    3  A    between atoms: C_8  and  N_9
REMARK    4  A    between atoms: C_10  and  C_12
REMARK    5  A    between atoms: C_21  and  N_22
REMARK                            x       y       z     vdW  Elec       q    Type
REMARK                         _______ _______ _______ _____ _____    ______ ____
ROOT
ATOM      1  C   UNL     1       6.662   6.680  16.868  0.00  0.00    +0.000 A 
ATOM      2  C   UNL     1       7.083   5.915  15.781  0.00  0.00    +0.000 A 
ATOM      3  C   UNL     1       6.479   4.694  15.500  0.00  0.00    +0.000 A 
ATOM      4  C   UNL     1       5.457   4.217  16.314  0.00  0.00    +0.000 A 
ATOM      5  C   UNL     1       5.034   4.944  17.431  0.00  0.00    +0.000 A 
ATOM      6  C   UNL     1       5.644   6.181  17.702  0.00  0.00    +0.000 A 
ENDROOT
BRANCH   1   9
ATOM      7  O   UNL     1       8.601   7.381  18.977  0.00  0.00    +0.000 OA
ATOM      8  C   UNL     1       8.113   8.197  18.204  0.00  0.00    +0.000 C 
ATOM      9  N   UNL     1       7.225   7.940  17.171  0.00  0.00    +0.000 N 
ATOM     10  H   UNL     1       7.071   8.674  16.492  0.00  0.00    +0.000 HD
BRANCH   8  11
ATOM     11  C   UNL     1       8.568   9.607  18.320  0.00  0.00    +0.000 A 
ATOM     12  C   UNL     1       9.482   9.926  19.340  0.00  0.00    +0.000 A 
ATOM     13  C   UNL     1       9.936  11.236  19.497  0.00  0.00    +0.000 A 
ATOM     14  C   UNL     1       9.462  12.234  18.636  0.00  0.00    +0.000 A 
ATOM     15  C   UNL     1       8.534  11.928  17.630  0.00  0.00    +0.000 A 
ATOM     16  C   UNL     1       8.082  10.613  17.477  0.00  0.00    +0.000 A 
BRANCH  14  17
ATOM     17  N   UNL     1       9.937  13.616  18.789  0.00  0.00    +0.000 N 
ATOM     18  O   UNL     1       9.855  14.137  19.910  0.00  0.00    +0.000 OA
ATOM     19  O   UNL     1      10.398  14.176  17.787  0.00  0.00    +0.000 OA
ENDBRANCH  14  17
ENDBRANCH   8  11
ENDBRANCH   1   9
BRANCH   5  20
ATOM     20  N   UNL     1       4.005   4.495  18.285  0.00  0.00    +0.000 N 
ATOM     21  C   UNL     1       4.137   3.607  19.346  0.00  0.00    +0.000 C 
ATOM     22  O   UNL     1       5.194   3.118  19.730  0.00  0.00    +0.000 OA
ATOM     23  H   UNL     1       3.076   4.881  18.160  0.00  0.00    +0.000 HD
BRANCH  21  24
ATOM     24  C   UNL     1       2.889   3.311  20.023  0.00  0.00    +0.000 A 
ATOM     25  C   UNL     1       1.586   3.569  19.639  0.00  0.00    +0.000 A 
ATOM     26  C   UNL     1       0.752   3.063  20.660  0.00  0.00    +0.000 A 
ATOM     27  C   UNL     1       1.591   2.535  21.612  0.00  0.00    +0.000 A 
ATOM     28  O   UNL     1       2.893   2.675  21.237  0.00  0.00    +0.000 OA
ENDBRANCH  21  24
ENDBRANCH   5  20
TORSDOF 5
ENDMDL
MODEL 2
REMARK VINA RESULT:      -8.1      0.274      1.107
REMARK  Name = 
REMARK  5 active torsions:
REMARK  status: ('A' for Active; 'I' for Inactive)
REMARK    1  A    between atoms: C_2  and  C_18
REMARK    2  A    between atoms: N_3  and  C_4
REMARK    3  A    between atoms: C_8  and  N_9
REMARK    4  A    between atoms: C_10  and  C_12
REMARK    5  A    between atoms: C_21  and  N_22
REMARK                            x       y       z     vdW  Elec       q    Type
REMARK                         _______ _______ _______ _____ _____    ______ ____
ROOT
ATOM      1  C   UNL     1       6.701   6.682  16.933  0.00  0.00    +0.000 A 
ATOM      2  C   UNL     1       7.132   5.918  15.849  0.00  0.00    +0.000 A 
ATOM      3  C   UNL     1       6.529   4.698  15.560  0.00  0.00    +0.000 A 
ATOM      4  C   UNL     1       5.498   4.222  16.363  0.00  0.00    +0.000 A 
ATOM      5  C   UNL     1       5.065   4.947  17.477  0.00  0.00    +0.000 A 
ATOM      6  C   UNL     1       5.675   6.183  17.756  0.00  0.00    +0.000 A 
ENDROOT
BRANCH   1   9
ATOM      7  O   UNL     1       8.639   7.372  19.047  0.00  0.00    +0.000 OA
ATOM      8  C   UNL     1       8.151   8.192  18.279  0.00  0.00    +0.000 C 
ATOM      9  N   UNL     1       7.263   7.940  17.243  0.00  0.00    +0.000 N 
ATOM     10  H   UNL     1       7.109   8.678  16.568  0.00  0.00    +0.000 HD
BRANCH   8  11
ATOM     11  C   UNL     1       8.605   9.602  18.403  0.00  0.00    +0.000 A 
ATOM     12  C   UNL     1       8.088  10.546  17.498  0.00  0.00    +0.000 A 
ATOM     13  C   UNL     1       8.487  11.882  17.568  0.00  0.00    +0.000 A 
ATOM     14  C   UNL     1       9.418  12.270  18.539  0.00  0.00    +0.000 A 
ATOM     15  C   UNL     1       9.954  11.330  19.432  0.00  0.00    +0.000 A 
ATOM     16  C   UNL     1       9.550   9.992  19.358  0.00  0.00    +0.000 A 
BRANCH  14  17
ATOM     17  N   UNL     1       9.841  13.675  18.625  0.00  0.00    +0.000 N 
ATOM     18  O   UNL     1      10.946  13.977  18.151  0.00  0.00    +0.000 OA
ATOM     19  O   UNL     1       9.064  14.475  19.160  0.00  0.00    +0.000 OA
ENDBRANCH  14  17
ENDBRANCH   8  11
ENDBRANCH   1   9
BRANCH   5  20
ATOM     20  N   UNL     1       4.027   4.499  18.320  0.00  0.00    +0.000 N 
ATOM     21  C   UNL     1       4.134   3.561  19.339  0.00  0.00    +0.000 C 
ATOM     22  O   UNL     1       5.176   3.017  19.692  0.00  0.00    +0.000 OA
ATOM     23  H   UNL     1       3.112   4.924  18.221  0.00  0.00    +0.000 HD
BRANCH  21  24
ATOM     24  C   UNL     1       2.881   3.280  20.015  0.00  0.00    +0.000 A 
ATOM     25  C   UNL     1       1.580   3.503  19.603  0.00  0.00    +0.000 A 
ATOM     26  C   UNL     1       0.740   3.035  20.637  0.00  0.00    +0.000 A 
ATOM     27  C   UNL     1       1.573   2.563  21.622  0.00  0.00    +0.000 A 
ATOM     28  O   UNL     1       2.877   2.703  21.257  0.00  0.00    +0.000 OA
ENDBRANCH  21  24
ENDBRANCH   5  20
TORSDOF 5
ENDMDL
MODEL 3
REMARK VINA RESULT:      -7.9      5.326      7.898
REMARK  Name = 
REMARK  5 active torsions:
REMARK  status: ('A' for Active; 'I' for Inactive)
REMARK    1  A    between atoms: C_2  and  C_18
REMARK    2  A    between atoms: N_3  and  C_4
REMARK    3  A    between atoms: C_8  and  N_9
REMARK    4  A    between atoms: C_10  and  C_12
REMARK    5  A    between atoms: C_21  and  N_22
REMARK                            x       y       z     vdW  Elec       q    Type
REMARK                         _______ _______ _______ _____ _____    ______ ____
ROOT
ATOM      1  C   UNL     1       2.073   5.241  20.668  0.00  0.00    +0.000 A 
ATOM      2  C   UNL     1       1.939   4.039  21.362  0.00  0.00    +0.000 A 
ATOM      3  C   UNL     1       2.572   2.886  20.907  0.00  0.00    +0.000 A 
ATOM      4  C   UNL     1       3.333   2.922  19.744  0.00  0.00    +0.000 A 
ATOM      5  C   UNL     1       3.460   4.103  19.007  0.00  0.00    +0.000 A 
ATOM      6  C   UNL     1       2.824   5.264  19.479  0.00  0.00    +0.000 A 
ENDROOT
BRANCH   1   9
ATOM      7  O   UNL     1       2.147   7.914  19.424  0.00  0.00    +0.000 OA
ATOM      8  C   UNL     1       1.581   7.673  20.483  0.00  0.00    +0.000 C 
ATOM      9  N   UNL     1       1.475   6.442  21.112  0.00  0.00    +0.000 N 
ATOM     10  H   UNL     1       0.808   6.357  21.867  0.00  0.00    +0.000 HD
BRANCH   8  11
ATOM     11  C   UNL     1       0.858   8.792  21.143  0.00  0.00    +0.000 A 
ATOM     12  C   UNL     1       0.851  10.044  20.503  0.00  0.00    +0.000 A 
ATOM     13  C   UNL     1       0.193  11.129  21.084  0.00  0.00    +0.000 A 
ATOM     14  C   UNL     1      -0.450  10.962  22.316  0.00  0.00    +0.000 A 
ATOM     15  C   UNL     1      -0.430   9.722  22.971  0.00  0.00    +0.000 A 
ATOM     16  C   UNL     1       0.231   8.638  22.384  0.00  0.00    +0.000 A 
BRANCH  14  17
ATOM     17  N   UNL     1      -1.151  12.097  22.934  0.00  0.00    +0.000 N 
ATOM     18  O   UNL     1      -2.367  11.982  23.145  0.00  0.00    +0.000 OA
ATOM     19  O   UNL     1      -0.482  13.100  23.212  0.00  0.00    +0.000 OA
ENDBRANCH  14  17
ENDBRANCH   8  11
ENDBRANCH   1   9
BRANCH   5  20
ATOM     20  N   UNL     1       4.218   4.181  17.820  0.00  0.00    +0.000 N 
ATOM     21  C   UNL     1       5.595   4.340  17.725  0.00  0.00    +0.000 C 
ATOM     22  O   UNL     1       6.369   4.383  18.676  0.00  0.00    +0.000 OA
ATOM     23  H   UNL     1       3.735   4.067  16.935  0.00  0.00    +0.000 HD
BRANCH  21  24
ATOM     24  C   UNL     1       6.085   4.419  16.361  0.00  0.00    +0.000 A 
ATOM     25  C   UNL     1       7.013   5.276  15.798  0.00  0.00    +0.000 A 
ATOM     26  C   UNL     1       7.129   4.914  14.438  0.00  0.00    +0.000 A 
ATOM     27  C   UNL     1       6.261   3.866  14.246  0.00  0.00    +0.000 A 
ATOM     28  O   UNL     1       5.621   3.552  15.407  0.00  0.00    +0.000 OA
ENDBRANCH  21  24
ENDBRANCH   5  20
TORSDOF 5
ENDMDL
MODEL 4
REMARK VINA RESULT:      -7.8      5.494      7.611
REMARK  Name = 
REMARK  5 active torsions:
REMARK  status: ('A' for Active; 'I' for Inactive)
REMARK    1  A    between atoms: C_2  and  C_18
REMARK    2  A    between atoms: N_3  and  C_4
REMARK    3  A    between atoms: C_8  and  N_9
REMARK    4  A    between atoms: C_10  and  C_12
REMARK    5  A    between atoms: C_21  and  N_22
REMARK                            x       y       z     vdW  Elec       q    Type
REMARK                         _______ _______ _______ _____ _____    ______ ____
ROOT
ATOM      1  C   UNL     1       2.975   5.060  19.629  0.00  0.00    +0.000 A 
ATOM      2  C   UNL     1       2.938   3.838  20.299  0.00  0.00    +0.000 A 
ATOM      3  C   UNL     1       3.576   2.721  19.769  0.00  0.00    +0.000 A 
ATOM      4  C   UNL     1       4.246   2.813  18.553  0.00  0.00    +0.000 A 
ATOM      5  C   UNL     1       4.274   4.015  17.840  0.00  0.00    +0.000 A 
ATOM      6  C   UNL     1       3.633   5.140  18.388  0.00  0.00    +0.000 A 
ENDROOT
BRANCH   1   9
ATOM      7  O   UNL     1       2.354   7.591  18.249  0.00  0.00    +0.000 OA
ATOM      8  C   UNL     1       2.136   7.395  19.438  0.00  0.00    +0.000 C 
ATOM      9  N   UNL     1       2.369   6.226  20.147  0.00  0.00    +0.000 N 
ATOM     10  H   UNL     1       1.951   6.144  21.065  0.00  0.00    +0.000 HD
BRANCH   8  11
ATOM     11  C   UNL     1       1.481   8.488  20.204  0.00  0.00    +0.000 A 
ATOM     12  C   UNL     1       1.024   9.612  19.493  0.00  0.00    +0.000 A 
ATOM     13  C   UNL     1       0.408  10.668  20.165  0.00  0.00    +0.000 A 
ATOM     14  C   UNL     1       0.260  10.604  21.556  0.00  0.00    +0.000 A 
ATOM     15  C   UNL     1       0.733   9.496  22.274  0.00  0.00    +0.000 A 
ATOM     16  C   UNL     1       1.350   8.440  21.596  0.00  0.00    +0.000 A 
BRANCH  14  17
ATOM     17  N   UNL     1      -0.392  11.709  22.273  0.00  0.00    +0.000 N 
ATOM     18  O   UNL     1       0.060  12.852  22.110  0.00  0.00    +0.000 OA
ATOM     19  O   UNL     1      -1.359  11.432  22.992  0.00  0.00    +0.000 OA
ENDBRANCH  14  17
ENDBRANCH   8  11
ENDBRANCH   1   9
BRANCH   5  20
ATOM     20  N   UNL     1       4.936   4.150  16.602  0.00  0.00    +0.000 N 
ATOM     21  C   UNL     1       6.294   4.371  16.408  0.00  0.00    +0.000 C 
ATOM     22  O   UNL     1       7.134   4.430  17.301  0.00  0.00    +0.000 OA
ATOM     23  H   UNL     1       4.394   4.032  15.753  0.00  0.00    +0.000 HD
BRANCH  21  24
ATOM     24  C   UNL     1       6.677   4.498  15.015  0.00  0.00    +0.000 A 
ATOM     25  C   UNL     1       6.170   3.868  13.893  0.00  0.00    +0.000 A 
ATOM     26  C   UNL     1       6.895   4.363  12.786  0.00  0.00    +0.000 A 
ATOM     27  C   UNL     1       7.807   5.256  13.295  0.00  0.00    +0.000 A 
ATOM     28  O   UNL     1       7.684   5.352  14.647  0.00  0.00    +0.000 OA
ENDBRANCH  21  24
ENDBRANCH   5  20
TORSDOF 5
ENDMDL
MODEL 5
REMARK VINA RESULT:      -7.8      7.692     10.072
REMARK  Name = 
REMARK  5 active torsions:
REMARK  status: ('A' for Active; 'I' for Inactive)
REMARK    1  A    between atoms: C_2  and  C_18
REMARK    2  A    between atoms: N_3  and  C_4
REMARK    3  A    between atoms: C_8  and  N_9
REMARK    4  A    between atoms: C_10  and  C_12
REMARK    5  A    between atoms: C_21  and  N_22
REMARK                            x       y       z     vdW  Elec       q    Type
REMARK                         _______ _______ _______ _____ _____    ______ ____
ROOT
ATOM      1  C   UNL     1       0.672  10.493  18.997  0.00  0.00    +0.000 A 
ATOM      2  C   UNL     1       1.428  11.665  18.952  0.00  0.00    +0.000 A 
ATOM      3  C   UNL     1       0.807  12.902  18.816  0.00  0.00    +0.000 A 
ATOM      4  C   UNL     1      -0.578  12.979  18.708  0.00  0.00    +0.000 A 
ATOM      5  C   UNL     1      -1.362  11.821  18.717  0.00  0.00    +0.000 A 
ATOM      6  C   UNL     1      -0.726  10.576  18.863  0.00  0.00    +0.000 A 
ENDROOT
BRANCH   1   9
ATOM      7  O   UNL     1       2.390   8.987  17.133  0.00  0.00    +0.000 OA
ATOM      8  C   UNL     1       2.036   8.560  18.226  0.00  0.00    +0.000 C 
ATOM      9  N   UNL     1       1.260   9.220  19.167  0.00  0.00    +0.000 N 
ATOM     10  H   UNL     1       1.221   8.829  20.099  0.00  0.00    +0.000 HD
BRANCH   8  11
ATOM     11  C   UNL     1       2.545   7.226  18.639  0.00  0.00    +0.000 A 
ATOM     12  C   UNL     1       2.064   6.677  19.841  0.00  0.00    +0.000 A 
ATOM     13  C   UNL     1       2.516   5.431  20.276  0.00  0.00    +0.000 A 
ATOM     14  C   UNL     1       3.462   4.738  19.512  0.00  0.00    +0.000 A 
ATOM     15  C   UNL     1       3.963   5.288  18.323  0.00  0.00    +0.000 A 
ATOM     16  C   UNL     1       3.507   6.538  17.891  0.00  0.00    +0.000 A 
BRANCH  14  17
ATOM     17  N   UNL     1       3.941   3.422  19.960  0.00  0.00    +0.000 N 
ATOM     18  O   UNL     1       3.170   2.724  20.634  0.00  0.00    +0.000 OA
ATOM     19  O   UNL     1       5.085   3.087  19.629  0.00  0.00    +0.000 OA
ENDBRANCH  14  17
ENDBRANCH   8  11
ENDBRANCH   1   9
BRANCH   5  20
ATOM     20  N   UNL     1      -2.768  11.854  18.605  0.00  0.00    +0.000 N 
ATOM     21  C   UNL     1      -3.517  11.540  17.478  0.00  0.00    +0.000 C 
ATOM     22  O   UNL     1      -3.058  11.131  16.416  0.00  0.00    +0.000 OA
ATOM     23  H   UNL     1      -3.308  12.084  19.432  0.00  0.00    +0.000 HD
BRANCH  21  24
ATOM     24  C   UNL     1      -4.948  11.699  17.660  0.00  0.00    +0.000 A 
ATOM     25  C   UNL     1      -5.824  11.000  18.470  0.00  0.00    +0.000 A 
ATOM     26  C   UNL     1      -7.102  11.568  18.273  0.00  0.00    +0.000 A 
ATOM     27  C   UNL     1      -6.935  12.572  17.349  0.00  0.00    +0.000 A 
ATOM     28  O   UNL     1      -5.631  12.665  16.970  0.00  0.00    +0.000 OA
ENDBRANCH  21  24
ENDBRANCH   5  20
TORSDOF 5
ENDMDL
MODEL 6
REMARK VINA RESULT:      -7.7      7.457     10.003
REMARK  Name = 
REMARK  5 active torsions:
REMARK  status: ('A' for Active; 'I' for Inactive)
REMARK    1  A    between atoms: C_2  and  C_18
REMARK    2  A    between atoms: N_3  and  C_4
REMARK    3  A    between atoms: C_8  and  N_9
REMARK    4  A    between atoms: C_10  and  C_12
REMARK    5  A    between atoms: C_21  and  N_22
REMARK                            x       y       z     vdW  Elec       q    Type
REMARK                         _______ _______ _______ _____ _____    ______ ____
ROOT
ATOM      1  C   UNL     1       0.828  10.186  18.620  0.00  0.00    +0.000 A 
ATOM      2  C   UNL     1       1.580  11.361  18.625  0.00  0.00    +0.000 A 
ATOM      3  C   UNL     1       0.951  12.602  18.604  0.00  0.00    +0.000 A 
ATOM      4  C   UNL     1      -0.437  12.680  18.561  0.00  0.00    +0.000 A 
ATOM      5  C   UNL     1      -1.218  11.522  18.522  0.00  0.00    +0.000 A 
ATOM      6  C   UNL     1      -0.575  10.272  18.552  0.00  0.00    +0.000 A 
ENDROOT
BRANCH   1   9
ATOM      7  O   UNL     1       1.322   8.474  20.970  0.00  0.00    +0.000 OA
ATOM      8  C   UNL     1       1.650   8.173  19.829  0.00  0.00    +0.000 C 
ATOM      9  N   UNL     1       1.424   8.907  18.674  0.00  0.00    +0.000 N 
ATOM     10  H   UNL     1       1.565   8.440  17.787  0.00  0.00    +0.000 HD
BRANCH   8  11
ATOM     11  C   UNL     1       2.292   6.847  19.628  0.00  0.00    +0.000 A 
ATOM     12  C   UNL     1       3.109   6.671  18.497  0.00  0.00    +0.000 A 
ATOM     13  C   UNL     1       3.729   5.444  18.259  0.00  0.00    +0.000 A 
ATOM     14  C   UNL     1       3.519   4.385  19.151  0.00  0.00    +0.000 A 
ATOM     15  C   UNL     1       2.689   4.546  20.270  0.00  0.00    +0.000 A 
ATOM     16  C   UNL     1       2.070   5.778  20.504  0.00  0.00    +0.000 A 
BRANCH  14  17
ATOM     17  N   UNL     1       4.172   3.089  18.913  0.00  0.00    +0.000 N 
ATOM     18  O   UNL     1       4.872   2.618  19.820  0.00  0.00    +0.000 OA
ATOM     19  O   UNL     1       3.976   2.543  17.820  0.00  0.00    +0.000 OA
ENDBRANCH  14  17
ENDBRANCH   8  11
ENDBRANCH   1   9
BRANCH   5  20
ATOM     20  N   UNL     1      -2.628  11.556  18.474  0.00  0.00    +0.000 N 
ATOM     21  C   UNL     1      -3.421  11.424  17.341  0.00  0.00    +0.000 C 
ATOM     22  O   UNL     1      -3.004  11.204  16.208  0.00  0.00    +0.000 OA
ATOM     23  H   UNL     1      -3.135  11.639  19.348  0.00  0.00    +0.000 HD
BRANCH  21  24
ATOM     24  C   UNL     1      -4.844  11.534  17.604  0.00  0.00    +0.000 A 
ATOM     25  C   UNL     1      -5.764  12.459  17.145  0.00  0.00    +0.000 A 
ATOM     26  C   UNL     1      -7.013  12.099  17.697  0.00  0.00    +0.000 A 
ATOM     27  C   UNL     1      -6.784  10.984  18.467  0.00  0.00    +0.000 A 
ATOM     28  O   UNL     1      -5.471  10.627  18.418  0.00  0.00    +0.000 OA
ENDBRANCH  21  24
ENDBRANCH   5  20
TORSDOF 5
ENDMDL
MODEL 7
REMARK VINA RESULT:      -7.7      7.651     10.079
REMARK  Name = 
REMARK  5 active torsions:
REMARK  status: ('A' for Active; 'I' for Inactive)
REMARK    1  A    between atoms: C_2  and  C_18
REMARK    2  A    between atoms: N_3  and  C_4
REMARK    3  A    between atoms: C_8  and  N_9
REMARK    4  A    between atoms: C_10  and  C_12
REMARK    5  A    between atoms: C_21  and  N_22
REMARK                            x       y       z     vdW  Elec       q    Type
REMARK                         _______ _______ _______ _____ _____    ______ ____
ROOT
ATOM      1  C   UNL     1       0.796  10.511  18.577  0.00  0.00    +0.000 A 
ATOM      2  C   UNL     1       1.530  11.697  18.614  0.00  0.00    +0.000 A 
ATOM      3  C   UNL     1       0.884  12.928  18.614  0.00  0.00    +0.000 A 
ATOM      4  C   UNL     1      -0.505  12.987  18.562  0.00  0.00    +0.000 A 
ATOM      5  C   UNL     1      -1.269  11.819  18.491  0.00  0.00    +0.000 A 
ATOM      6  C   UNL     1      -0.607  10.578  18.500  0.00  0.00    +0.000 A 
ENDROOT
BRANCH   1   9
ATOM      7  O   UNL     1       1.200   8.709  20.876  0.00  0.00    +0.000 OA
ATOM      8  C   UNL     1       1.590   8.461  19.741  0.00  0.00    +0.000 C 
ATOM      9  N   UNL     1       1.410   9.239  18.608  0.00  0.00    +0.000 N 
ATOM     10  H   UNL     1       1.603   8.813  17.711  0.00  0.00    +0.000 HD
BRANCH   8  11
ATOM     11  C   UNL     1       2.264   7.154  19.519  0.00  0.00    +0.000 A 
ATOM     12  C   UNL     1       3.040   6.999  18.357  0.00  0.00    +0.000 A 
ATOM     13  C   UNL     1       3.688   5.790  18.098  0.00  0.00    +0.000 A 
ATOM     14  C   UNL     1       3.546   4.729  19.000  0.00  0.00    +0.000 A 
ATOM     15  C   UNL     1       2.755   4.869  20.150  0.00  0.00    +0.000 A 
ATOM     16  C   UNL     1       2.108   6.083  20.405  0.00  0.00    +0.000 A 
BRANCH  14  17
ATOM     17  N   UNL     1       4.227   3.453  18.739  0.00  0.00    +0.000 N 
ATOM     18  O   UNL     1       4.088   2.940  17.620  0.00  0.00    +0.000 OA
ATOM     19  O   UNL     1       4.907   2.970  19.653  0.00  0.00    +0.000 OA
ENDBRANCH  14  17
ENDBRANCH   8  11
ENDBRANCH   1   9
BRANCH   5  20
ATOM     20  N   UNL     1      -2.678  11.834  18.432  0.00  0.00    +0.000 N 
ATOM     21  C   UNL     1      -3.465  11.495  17.339  0.00  0.00    +0.000 C 
ATOM     22  O   UNL     1      -3.041  11.076  16.266  0.00  0.00    +0.000 OA
ATOM     23  H   UNL     1      -3.190  12.069  19.275  0.00  0.00    +0.000 HD
BRANCH  21  24
ATOM     24  C   UNL     1      -4.890  11.640  17.572  0.00  0.00    +0.000 A 
ATOM     25  C   UNL     1      -5.737  10.907  18.383  0.00  0.00    +0.000 A 
ATOM     26  C   UNL     1      -7.023  11.476  18.249  0.00  0.00    +0.000 A 
ATOM     27  C   UNL     1      -6.890  12.514  17.358  0.00  0.00    +0.000 A 
ATOM     28  O   UNL     1      -5.599  12.628  16.940  0.00  0.00    +0.000 OA
ENDBRANCH  21  24
ENDBRANCH   5  20
TORSDOF 5
ENDMDL
MODEL 8
REMARK VINA RESULT:      -7.6      5.060      7.559
REMARK  Name = 
REMARK  5 active torsions:
REMARK  status: ('A' for Active; 'I' for Inactive)
REMARK    1  A    between atoms: C_2  and  C_18
REMARK    2  A    between atoms: N_3  and  C_4
REMARK    3  A    between atoms: C_8  and  N_9
REMARK    4  A    between atoms: C_10  and  C_12
REMARK    5  A    between atoms: C_21  and  N_22
REMARK                            x       y       z     vdW  Elec       q    Type
REMARK                         _______ _______ _______ _____ _____    ______ ____
ROOT
ATOM      1  C   UNL     1       5.348   6.160  17.765  0.00  0.00    +0.000 A 
ATOM      2  C   UNL     1       6.482   5.972  18.555  0.00  0.00    +0.000 A 
ATOM      3  C   UNL     1       7.499   5.118  18.140  0.00  0.00    +0.000 A 
ATOM      4  C   UNL     1       7.384   4.430  16.936  0.00  0.00    +0.000 A 
ATOM      5  C   UNL     1       6.246   4.570  16.138  0.00  0.00    +0.000 A 
ATOM      6  C   UNL     1       5.227   5.442  16.561  0.00  0.00    +0.000 A 
ENDROOT
BRANCH   1   9
ATOM      7  O   UNL     1       2.781   5.545  19.080  0.00  0.00    +0.000 OA
ATOM      8  C   UNL     1       3.109   6.670  18.724  0.00  0.00    +0.000 C 
ATOM      9  N   UNL     1       4.307   7.042  18.132  0.00  0.00    +0.000 N 
ATOM     10  H   UNL     1       4.519   8.029  18.083  0.00  0.00    +0.000 HD
BRANCH   8  11
ATOM     11  C   UNL     1       2.169   7.783  19.019  0.00  0.00    +0.000 A 
ATOM     12  C   UNL     1       1.807   8.640  17.964  0.00  0.00    +0.000 A 
ATOM     13  C   UNL     1       0.933   9.705  18.190  0.00  0.00    +0.000 A 
ATOM     14  C   UNL     1       0.430   9.919  19.479  0.00  0.00    +0.000 A 
ATOM     15  C   UNL     1       0.804   9.081  20.540  0.00  0.00    +0.000 A 
ATOM     16  C   UNL     1       1.680   8.016  20.309  0.00  0.00    +0.000 A 
BRANCH  14  17
ATOM     17  N   UNL     1      -0.495  11.034  19.726  0.00  0.00    +0.000 N 
ATOM     18  O   UNL     1      -0.131  11.927  20.504  0.00  0.00    +0.000 OA
ATOM     19  O   UNL     1      -1.581  11.018  19.134  0.00  0.00    +0.000 OA
ENDBRANCH  14  17
ENDBRANCH   8  11
ENDBRANCH   1   9
BRANCH   5  20
ATOM     20  N   UNL     1       6.087   3.887  14.913  0.00  0.00    +0.000 N 
ATOM     21  C   UNL     1       6.603   4.266  13.680  0.00  0.00    +0.000 C 
ATOM     22  O   UNL     1       7.328   5.237  13.486  0.00  0.00    +0.000 OA
ATOM     23  H   UNL     1       5.586   3.005  14.919  0.00  0.00    +0.000 HD
BRANCH  21  24
ATOM     24  C   UNL     1       6.242   3.375  12.593  0.00  0.00    +0.000 A 
ATOM     25  C   UNL     1       7.032   2.526  11.840  0.00  0.00    +0.000 A 
ATOM     26  C   UNL     1       6.175   1.881  10.921  0.00  0.00    +0.000 A 
ATOM     27  C   UNL     1       4.916   2.379  11.157  0.00  0.00    +0.000 A 
ATOM     28  O   UNL     1       4.941   3.286  12.173  0.00  0.00    +0.000 OA
ENDBRANCH  21  24
ENDBRANCH   5  20
TORSDOF 5
ENDMDL
MODEL 9
REMARK VINA RESULT:      -7.6      5.395      7.774
REMARK  Name = 
REMARK  5 active torsions:
REMARK  status: ('A' for Active; 'I' for Inactive)
REMARK    1  A    between atoms: C_2  and  C_18
REMARK    2  A    between atoms: N_3  and  C_4
REMARK    3  A    between atoms: C_8  and  N_9
REMARK    4  A    between atoms: C_10  and  C_12
REMARK    5  A    between atoms: C_21  and  N_22
REMARK                            x       y       z     vdW  Elec       q    Type
REMARK                         _______ _______ _______ _____ _____    ______ ____
ROOT
ATOM      1  C   UNL     1       3.056   5.552  18.961  0.00  0.00    +0.000 A 
ATOM      2  C   UNL     1       3.254   4.506  19.862  0.00  0.00    +0.000 A 
ATOM      3  C   UNL     1       4.091   3.443  19.538  0.00  0.00    +0.000 A 
ATOM      4  C   UNL     1       4.728   3.409  18.302  0.00  0.00    +0.000 A 
ATOM      5  C   UNL     1       4.525   4.424  17.364  0.00  0.00    +0.000 A 
ATOM      6  C   UNL     1       3.683   5.498  17.702  0.00  0.00    +0.000 A 
ENDROOT
BRANCH   1   9
ATOM      7  O   UNL     1       3.062   8.233  17.732  0.00  0.00    +0.000 OA
ATOM      8  C   UNL     1       2.324   7.911  18.656  0.00  0.00    +0.000 C 
ATOM      9  N   UNL     1       2.240   6.666  19.261  0.00  0.00    +0.000 N 
ATOM     10  H   UNL     1       1.448   6.491  19.865  0.00  0.00    +0.000 HD
BRANCH   8  11
ATOM     11  C   UNL     1       1.353   8.925  19.143  0.00  0.00    +0.000 A 
ATOM     12  C   UNL     1       1.032   8.930  20.512  0.00  0.00    +0.000 A 
ATOM     13  C   UNL     1       0.121   9.858  21.019  0.00  0.00    +0.000 A 
ATOM     14  C   UNL     1      -0.481  10.775  20.149  0.00  0.00    +0.000 A 
ATOM     15  C   UNL     1      -0.181  10.763  18.778  0.00  0.00    +0.000 A 
ATOM     16  C   UNL     1       0.733   9.831  18.275  0.00  0.00    +0.000 A 
BRANCH  14  17
ATOM     17  N   UNL     1      -1.438  11.760  20.673  0.00  0.00    +0.000 N 
ATOM     18  O   UNL     1      -1.999  12.510  19.863  0.00  0.00    +0.000 OA
ATOM     19  O   UNL     1      -1.631  11.775  21.895  0.00  0.00    +0.000 OA
ENDBRANCH  14  17
ENDBRANCH   8  11
ENDBRANCH   1   9
BRANCH   5  20
ATOM     20  N   UNL     1       5.146   4.426  16.097  0.00  0.00    +0.000 N 
ATOM     21  C   UNL     1       6.489   4.662  15.833  0.00  0.00    +0.000 C 
ATOM     22  O   UNL     1       7.353   4.856  16.683  0.00  0.00    +0.000 OA
ATOM     23  H   UNL     1       4.584   4.188  15.288  0.00  0.00    +0.000 HD
BRANCH  21  24
ATOM     24  C   UNL     1       6.827   4.628  14.423  0.00  0.00    +0.000 A 
ATOM     25  C   UNL     1       6.312   3.847  13.404  0.00  0.00    +0.000 A 
ATOM     26  C   UNL     1       6.986   4.224  12.222  0.00  0.00    +0.000 A 
ATOM     27  C   UNL     1       7.878   5.203  12.586  0.00  0.00    +0.000 A 
ATOM     28  O   UNL     1       7.791   5.462  13.920  0.00  0.00    +0.000 OA
ENDBRANCH  21  24
ENDBRANCH   5  20
TORSDOF 5
ENDMDL
