MODEL 1
REMARK VINA RESULT:      -7.2      0.000      0.000
REMARK  Name = 
REMARK  8 active torsions:
REMARK  status: ('A' for Active; 'I' for Inactive)
REMARK    1  A    between atoms: C_1  and  C_2
REMARK    2  A    between atoms: C_2  and  N_3
REMARK    3  A    between atoms: N_3  and  C_4
REMARK    4  A    between atoms: C_4  and  C_5
REMARK    5  A    between atoms: C_5  and  C_6
REMARK    6  A    between atoms: C_5  and  C_7
REMARK    7  A    between atoms: C_5  and  O_8
REMARK    8  A    between atoms: C_9  and  C_11
REMARK                            x       y       z     vdW  Elec       q    Type
REMARK                         _______ _______ _______ _____ _____    ______ ____
ROOT
ATOM      1  N   UNL     1       3.112   3.672  19.420  0.00  0.00    +0.000 N 
ATOM      2  C   UNL     1       4.485   3.344  19.328  0.00  0.00    +0.000 C 
ATOM      3  O   UNL     1       4.884   2.242  19.712  0.00  0.00    +0.000 OA
ENDROOT
BRANCH   2   4
ATOM      4  C   UNL     1       5.525   4.296  18.787  0.00  0.00    +0.000 A 
ATOM      5  N   UNL     1       6.287   4.945  19.720  0.00  0.00    +0.000 NA
ATOM      6  C   UNL     1       7.289   5.732  19.273  0.00  0.00    +0.000 A 
ATOM      7  C   UNL     1       7.610   5.872  17.932  0.00  0.00    +0.000 A 
ATOM      8  C   UNL     1       6.858   5.190  16.978  0.00  0.00    +0.000 A 
ATOM      9  C   UNL     1       7.205   5.274  15.617  0.00  0.00    +0.000 A 
ATOM     10  C   UNL     1       6.467   4.605  14.643  0.00  0.00    +0.000 A 
ATOM     11  C   UNL     1       5.345   3.878  15.010  0.00  0.00    +0.000 A 
ATOM     12  C   UNL     1       4.987   3.791  16.356  0.00  0.00    +0.000 A 
ATOM     13  C   UNL     1       5.754   4.404  17.383  0.00  0.00    +0.000 A 
ENDBRANCH   2   4
BRANCH   1  15
ATOM     14  C   UNL     1       1.627   2.769  21.275  0.00  0.00    +0.000 C 
ATOM     15  C   UNL     1       2.204   2.610  19.871  0.00  0.00    +0.000 C 
ENDBRANCH   1  15
BRANCH   1  16
ATOM     16  C   UNL     1       2.482   4.795  18.700  0.00  0.00    +0.000 C 
BRANCH  16  17
ATOM     17  C   UNL     1       2.495   6.171  19.435  0.00  0.00    +0.000 C 
ATOM     18  C   UNL     1       2.322   7.293  18.401  0.00  0.00    +0.000 C 
ATOM     19  C   UNL     1       1.426   6.284  20.524  0.00  0.00    +0.000 C 
BRANCH  17  20
ATOM     20  O   UNL     1       3.762   6.386  20.077  0.00  0.00    +0.000 OA
ATOM     21  H   UNL     1       4.117   5.521  20.343  0.00  0.00    +0.000 HD
ENDBRANCH  17  20
ENDBRANCH  16  17
ENDBRANCH   1  16
TORSDOF 5
ENDMDL
MODEL 2
REMARK VINA RESULT:      -7.0      1.769      5.748
REMARK  Name = 
REMARK  8 active torsions:
REMARK  status: ('A' for Active; 'I' for Inactive)
REMARK    1  A    between atoms: C_1  and  C_2
REMARK    2  A    between atoms: C_2  and  N_3
REMARK    3  A    between atoms: N_3  and  C_4
REMARK    4  A    between atoms: C_4  and  C_5
REMARK    5  A    between atoms: C_5  and  C_6
REMARK    6  A    between atoms: C_5  and  C_7
REMARK    7  A    between atoms: C_5  and  O_8
REMARK    8  A    between atoms: C_9  and  C_11
REMARK                            x       y       z     vdW  Elec       q    Type
REMARK                         _______ _______ _______ _____ _____    ______ ____
ROOT
ATOM      1  N   UNL     1       6.325   5.232  17.521  0.00  0.00    +0.000 N 
ATOM      2  C   UNL     1       5.701   4.651  18.650  0.00  0.00    +0.000 C 
ATOM      3  O   UNL     1       6.203   4.781  19.769  0.00  0.00    +0.000 OA
ENDROOT
BRANCH   2   4
ATOM      4  C   UNL     1       4.428   3.844  18.563  0.00  0.00    +0.000 A 
ATOM      5  N   UNL     1       4.530   2.628  17.942  0.00  0.00    +0.000 NA
ATOM      6  C   UNL     1       3.435   1.839  17.928  0.00  0.00    +0.000 A 
ATOM      7  C   UNL     1       2.242   2.175  18.549  0.00  0.00    +0.000 A 
ATOM      8  C   UNL     1       2.141   3.397  19.210  0.00  0.00    +0.000 A 
ATOM      9  C   UNL     1       0.959   3.730  19.896  0.00  0.00    +0.000 A 
ATOM     10  C   UNL     1       0.831   4.948  20.561  0.00  0.00    +0.000 A 
ATOM     11  C   UNL     1       1.865   5.869  20.513  0.00  0.00    +0.000 A 
ATOM     12  C   UNL     1       3.042   5.552  19.833  0.00  0.00    +0.000 A 
ATOM     13  C   UNL     1       3.234   4.294  19.200  0.00  0.00    +0.000 A 
ENDBRANCH   2   4
BRANCH   1  15
ATOM     14  C   UNL     1       7.341   7.561  17.467  0.00  0.00    +0.000 C 
ATOM     15  C   UNL     1       7.501   6.074  17.772  0.00  0.00    +0.000 C 
ENDBRANCH   1  15
BRANCH   1  16
ATOM     16  C   UNL     1       5.660   5.428  16.220  0.00  0.00    +0.000 C 
BRANCH  16  17
ATOM     17  C   UNL     1       6.090   4.454  15.079  0.00  0.00    +0.000 C 
ATOM     18  C   UNL     1       4.936   4.319  14.074  0.00  0.00    +0.000 C 
ATOM     19  C   UNL     1       7.368   4.893  14.362  0.00  0.00    +0.000 C 
BRANCH  17  20
ATOM     20  O   UNL     1       6.341   3.142  15.606  0.00  0.00    +0.000 OA
ATOM     21  H   UNL     1       7.087   3.203  16.226  0.00  0.00    +0.000 HD
ENDBRANCH  17  20
ENDBRANCH  16  17
ENDBRANCH   1  16
TORSDOF 5
ENDMDL
MODEL 3
REMARK VINA RESULT:      -7.0      1.724      5.448
REMARK  Name = 
REMARK  8 active torsions:
REMARK  status: ('A' for Active; 'I' for Inactive)
REMARK    1  A    between atoms: C_1  and  C_2
REMARK    2  A    between atoms: C_2  and  N_3
REMARK    3  A    between atoms: N_3  and  C_4
REMARK    4  A    between atoms: C_4  and  C_5
REMARK    5  A    between atoms: C_5  and  C_6
REMARK    6  A    between atoms: C_5  and  C_7
REMARK    7  A    between atoms: C_5  and  O_8
REMARK    8  A    between atoms: C_9  and  C_11
REMARK                            x       y       z     vdW  Elec       q    Type
REMARK                         _______ _______ _______ _____ _____    ______ ____
ROOT
ATOM      1  N   UNL     1       6.534   5.705  17.846  0.00  0.00    +0.000 N 
ATOM      2  C   UNL     1       6.241   5.219  19.142  0.00  0.00    +0.000 C 
ATOM      3  O   UNL     1       7.005   5.461  20.079  0.00  0.00    +0.000 OA
ENDROOT
BRANCH   2   4
ATOM      4  C   UNL     1       5.022   4.383  19.452  0.00  0.00    +0.000 A 
ATOM      5  N   UNL     1       5.231   3.034  19.557  0.00  0.00    +0.000 NA
ATOM      6  C   UNL     1       4.184   2.266  19.926  0.00  0.00    +0.000 A 
ATOM      7  C   UNL     1       2.937   2.777  20.249  0.00  0.00    +0.000 A 
ATOM      8  C   UNL     1       2.726   4.152  20.174  0.00  0.00    +0.000 A 
ATOM      9  C   UNL     1       1.485   4.694  20.554  0.00  0.00    +0.000 A 
ATOM     10  C   UNL     1       1.247   6.066  20.485  0.00  0.00    +0.000 A 
ATOM     11  C   UNL     1       2.231   6.910  19.994  0.00  0.00    +0.000 A 
ATOM     12  C   UNL     1       3.465   6.384  19.610  0.00  0.00    +0.000 A 
ATOM     13  C   UNL     1       3.767   5.000  19.729  0.00  0.00    +0.000 A 
ENDBRANCH   2   4
BRANCH   1  15
ATOM     14  C   UNL     1       7.398   8.068  17.487  0.00  0.00    +0.000 C 
ATOM     15  C   UNL     1       7.698   6.589  17.715  0.00  0.00    +0.000 C 
ENDBRANCH   1  15
BRANCH   1  16
ATOM     16  C   UNL     1       5.552   5.767  16.747  0.00  0.00    +0.000 C 
BRANCH  16  17
ATOM     17  C   UNL     1       5.316   4.438  15.964  0.00  0.00    +0.000 C 
ATOM     18  C   UNL     1       3.901   3.924  16.266  0.00  0.00    +0.000 C 
ATOM     19  C   UNL     1       5.517   4.583  14.455  0.00  0.00    +0.000 C 
BRANCH  17  20
ATOM     20  O   UNL     1       6.233   3.424  16.408  0.00  0.00    +0.000 OA
ATOM     21  H   UNL     1       6.513   3.646  17.312  0.00  0.00    +0.000 HD
ENDBRANCH  17  20
ENDBRANCH  16  17
ENDBRANCH   1  16
TORSDOF 5
ENDMDL
MODEL 4
REMARK VINA RESULT:      -6.7      1.030      1.344
REMARK  Name = 
REMARK  8 active torsions:
REMARK  status: ('A' for Active; 'I' for Inactive)
REMARK    1  A    between atoms: C_1  and  C_2
REMARK    2  A    between atoms: C_2  and  N_3
REMARK    3  A    between atoms: N_3  and  C_4
REMARK    4  A    between atoms: C_4  and  C_5
REMARK    5  A    between atoms: C_5  and  C_6
REMARK    6  A    between atoms: C_5  and  C_7
REMARK    7  A    between atoms: C_5  and  O_8
REMARK    8  A    between atoms: C_9  and  C_11
REMARK                            x       y       z     vdW  Elec       q    Type
REMARK                         _______ _______ _______ _____ _____    ______ ____
ROOT
ATOM      1  N   UNL     1       2.731   4.195  18.809  0.00  0.00    +0.000 N 
ATOM      2  C   UNL     1       4.047   3.730  19.041  0.00  0.00    +0.000 C 
ATOM      3  O   UNL     1       4.231   2.667  19.638  0.00  0.00    +0.000 OA
ENDROOT
BRANCH   2   4
ATOM      4  C   UNL     1       5.278   4.488  18.601  0.00  0.00    +0.000 A 
ATOM      5  N   UNL     1       6.021   5.055  19.601  0.00  0.00    +0.000 NA
ATOM      6  C   UNL     1       7.178   5.659  19.255  0.00  0.00    +0.000 A 
ATOM      7  C   UNL     1       7.666   5.689  17.958  0.00  0.00    +0.000 A 
ATOM      8  C   UNL     1       6.930   5.087  16.940  0.00  0.00    +0.000 A 
ATOM      9  C   UNL     1       7.437   5.057  15.629  0.00  0.00    +0.000 A 
ATOM     10  C   UNL     1       6.718   4.464  14.592  0.00  0.00    +0.000 A 
ATOM     11  C   UNL     1       5.463   3.934  14.842  0.00  0.00    +0.000 A 
ATOM     12  C   UNL     1       4.946   3.962  16.138  0.00  0.00    +0.000 A 
ATOM     13  C   UNL     1       5.678   4.497  17.233  0.00  0.00    +0.000 A 
ENDBRANCH   2   4
BRANCH   1  15
ATOM     14  C   UNL     1       0.984   3.589  20.552  0.00  0.00    +0.000 C 
ATOM     15  C   UNL     1       1.633   3.303  19.201  0.00  0.00    +0.000 C 
ENDBRANCH   1  15
BRANCH   1  16
ATOM     16  C   UNL     1       2.388   5.248  17.836  0.00  0.00    +0.000 C 
BRANCH  16  17
ATOM     17  C   UNL     1       2.563   6.718  18.330  0.00  0.00    +0.000 C 
ATOM     18  C   UNL     1       2.553   6.735  19.865  0.00  0.00    +0.000 C 
ATOM     19  C   UNL     1       3.834   7.385  17.800  0.00  0.00    +0.000 C 
BRANCH  17  20
ATOM     20  O   UNL     1       1.459   7.529  17.895  0.00  0.00    +0.000 OA
ATOM     21  H   UNL     1       1.559   8.411  18.291  0.00  0.00    +0.000 HD
ENDBRANCH  17  20
ENDBRANCH  16  17
ENDBRANCH   1  16
TORSDOF 5
ENDMDL
MODEL 5
REMARK VINA RESULT:      -6.7      1.883      5.268
REMARK  Name = 
REMARK  8 active torsions:
REMARK  status: ('A' for Active; 'I' for Inactive)
REMARK    1  A    between atoms: C_1  and  C_2
REMARK    2  A    between atoms: C_2  and  N_3
REMARK    3  A    between atoms: N_3  and  C_4
REMARK    4  A    between atoms: C_4  and  C_5
REMARK    5  A    between atoms: C_5  and  C_6
REMARK    6  A    between atoms: C_5  and  C_7
REMARK    7  A    between atoms: C_5  and  O_8
REMARK    8  A    between atoms: C_9  and  C_11
REMARK                            x       y       z     vdW  Elec       q    Type
REMARK                         _______ _______ _______ _____ _____    ______ ____
ROOT
ATOM      1  N   UNL     1       5.035   4.120  17.134  0.00  0.00    +0.000 N 
ATOM      2  C   UNL     1       3.673   3.844  17.401  0.00  0.00    +0.000 C 
ATOM      3  O   UNL     1       2.976   3.288  16.549  0.00  0.00    +0.000 OA
ENDROOT
BRANCH   2   4
ATOM      4  C   UNL     1       2.996   4.217  18.699  0.00  0.00    +0.000 A 
ATOM      5  N   UNL     1       2.932   3.231  19.646  0.00  0.00    +0.000 NA
ATOM      6  C   UNL     1       2.419   3.555  20.852  0.00  0.00    +0.000 A 
ATOM      7  C   UNL     1       2.006   4.834  21.189  0.00  0.00    +0.000 A 
ATOM      8  C   UNL     1       2.097   5.850  20.240  0.00  0.00    +0.000 A 
ATOM      9  C   UNL     1       1.738   7.166  20.581  0.00  0.00    +0.000 A 
ATOM     10  C   UNL     1       1.816   8.199  19.649  0.00  0.00    +0.000 A 
ATOM     11  C   UNL     1       2.212   7.923  18.350  0.00  0.00    +0.000 A 
ATOM     12  C   UNL     1       2.567   6.621  17.997  0.00  0.00    +0.000 A 
ATOM     13  C   UNL     1       2.564   5.555  18.937  0.00  0.00    +0.000 A 
ENDBRANCH   2   4
BRANCH   1  15
ATOM     14  C   UNL     1       5.406   4.506  14.649  0.00  0.00    +0.000 C 
ATOM     15  C   UNL     1       5.580   3.608  15.870  0.00  0.00    +0.000 C 
ENDBRANCH   1  15
BRANCH   1  16
ATOM     16  C   UNL     1       6.026   4.463  18.170  0.00  0.00    +0.000 C 
BRANCH  16  17
ATOM     17  C   UNL     1       6.958   5.673  17.850  0.00  0.00    +0.000 C 
ATOM     18  C   UNL     1       6.102   6.850  17.361  0.00  0.00    +0.000 C 
ATOM     19  C   UNL     1       7.820   6.101  19.039  0.00  0.00    +0.000 C 
BRANCH  17  20
ATOM     20  O   UNL     1       7.862   5.342  16.783  0.00  0.00    +0.000 OA
ATOM     21  H   UNL     1       8.529   6.046  16.723  0.00  0.00    +0.000 HD
ENDBRANCH  17  20
ENDBRANCH  16  17
ENDBRANCH   1  16
TORSDOF 5
ENDMDL
MODEL 6
REMARK VINA RESULT:      -6.6      1.162      2.470
REMARK  Name = 
REMARK  8 active torsions:
REMARK  status: ('A' for Active; 'I' for Inactive)
REMARK    1  A    between atoms: C_1  and  C_2
REMARK    2  A    between atoms: C_2  and  N_3
REMARK    3  A    between atoms: N_3  and  C_4
REMARK    4  A    between atoms: C_4  and  C_5
REMARK    5  A    between atoms: C_5  and  C_6
REMARK    6  A    between atoms: C_5  and  C_7
REMARK    7  A    between atoms: C_5  and  O_8
REMARK    8  A    between atoms: C_9  and  C_11
REMARK                            x       y       z     vdW  Elec       q    Type
REMARK                         _______ _______ _______ _____ _____    ______ ____
ROOT
ATOM      1  N   UNL     1       2.756   3.649  19.010  0.00  0.00    +0.000 N 
ATOM      2  C   UNL     1       3.856   3.080  18.326  0.00  0.00    +0.000 C 
ATOM      3  O   UNL     1       4.172   1.906  18.532  0.00  0.00    +0.000 OA
ENDROOT
BRANCH   2   4
ATOM      4  C   UNL     1       4.702   3.852  17.341  0.00  0.00    +0.000 A 
ATOM      5  N   UNL     1       4.310   3.785  16.032  0.00  0.00    +0.000 NA
ATOM      6  C   UNL     1       4.986   4.537  15.137  0.00  0.00    +0.000 A 
ATOM      7  C   UNL     1       6.011   5.401  15.484  0.00  0.00    +0.000 A 
ATOM      8  C   UNL     1       6.395   5.499  16.820  0.00  0.00    +0.000 A 
ATOM      9  C   UNL     1       7.394   6.413  17.200  0.00  0.00    +0.000 A 
ATOM     10  C   UNL     1       7.799   6.526  18.529  0.00  0.00    +0.000 A 
ATOM     11  C   UNL     1       7.243   5.697  19.489  0.00  0.00    +0.000 A 
ATOM     12  C   UNL     1       6.254   4.782  19.125  0.00  0.00    +0.000 A 
ATOM     13  C   UNL     1       5.768   4.685  17.793  0.00  0.00    +0.000 A 
ENDBRANCH   2   4
BRANCH   1  15
ATOM     14  C   UNL     1       1.949   3.072  21.350  0.00  0.00    +0.000 C 
ATOM     15  C   UNL     1       1.964   2.749  19.858  0.00  0.00    +0.000 C 
ENDBRANCH   1  15
BRANCH   1  16
ATOM     16  C   UNL     1       2.091   4.902  18.606  0.00  0.00    +0.000 C 
BRANCH  16  17
ATOM     17  C   UNL     1       2.559   6.193  19.347  0.00  0.00    +0.000 C 
ATOM     18  C   UNL     1       3.038   7.219  18.311  0.00  0.00    +0.000 C 
ATOM     19  C   UNL     1       1.475   6.804  20.237  0.00  0.00    +0.000 C 
BRANCH  17  20
ATOM     20  O   UNL     1       3.680   5.905  20.199  0.00  0.00    +0.000 OA
ATOM     21  H   UNL     1       3.381   5.293  20.894  0.00  0.00    +0.000 HD
ENDBRANCH  17  20
ENDBRANCH  16  17
ENDBRANCH   1  16
TORSDOF 5
ENDMDL
MODEL 7
REMARK VINA RESULT:      -6.6      1.479      2.831
REMARK  Name = 
REMARK  8 active torsions:
REMARK  status: ('A' for Active; 'I' for Inactive)
REMARK    1  A    between atoms: C_1  and  C_2
REMARK    2  A    between atoms: C_2  and  N_3
REMARK    3  A    between atoms: N_3  and  C_4
REMARK    4  A    between atoms: C_4  and  C_5
REMARK    5  A    between atoms: C_5  and  C_6
REMARK    6  A    between atoms: C_5  and  C_7
REMARK    7  A    between atoms: C_5  and  O_8
REMARK    8  A    between atoms: C_9  and  C_11
REMARK                            x       y       z     vdW  Elec       q    Type
REMARK                         _______ _______ _______ _____ _____    ______ ____
ROOT
ATOM      1  N   UNL     1       2.887   4.527  19.219  0.00  0.00    +0.000 N 
ATOM      2  C   UNL     1       3.726   5.635  18.956  0.00  0.00    +0.000 C 
ATOM      3  O   UNL     1       3.270   6.780  18.998  0.00  0.00    +0.000 OA
ENDROOT
BRANCH   2   4
ATOM      4  C   UNL     1       5.187   5.495  18.600  0.00  0.00    +0.000 A 
ATOM      5  N   UNL     1       6.068   5.556  19.646  0.00  0.00    +0.000 NA
ATOM      6  C   UNL     1       7.374   5.342  19.378  0.00  0.00    +0.000 A 
ATOM      7  C   UNL     1       7.852   5.017  18.119  0.00  0.00    +0.000 A 
ATOM      8  C   UNL     1       6.958   4.923  17.055  0.00  0.00    +0.000 A 
ATOM      9  C   UNL     1       7.417   4.538  15.783  0.00  0.00    +0.000 A 
ATOM     10  C   UNL     1       6.543   4.440  14.701  0.00  0.00    +0.000 A 
ATOM     11  C   UNL     1       5.207   4.769  14.866  0.00  0.00    +0.000 A 
ATOM     12  C   UNL     1       4.740   5.156  16.122  0.00  0.00    +0.000 A 
ATOM     13  C   UNL     1       5.587   5.203  17.262  0.00  0.00    +0.000 A 
ENDBRANCH   2   4
BRANCH   1  15
ATOM     14  C   UNL     1       0.983   3.986  20.814  0.00  0.00    +0.000 C 
ATOM     15  C   UNL     1       1.515   4.821  19.652  0.00  0.00    +0.000 C 
ENDBRANCH   1  15
BRANCH   1  16
ATOM     16  C   UNL     1       3.381   3.172  19.524  0.00  0.00    +0.000 C 
BRANCH  16  17
ATOM     17  C   UNL     1       2.993   2.057  18.503  0.00  0.00    +0.000 C 
ATOM     18  C   UNL     1       2.618   2.711  17.165  0.00  0.00    +0.000 C 
ATOM     19  C   UNL     1       4.098   1.019  18.294  0.00  0.00    +0.000 C 
BRANCH  17  20
ATOM     20  O   UNL     1       1.834   1.340  18.958  0.00  0.00    +0.000 OA
ATOM     21  H   UNL     1       1.703   1.544  19.899  0.00  0.00    +0.000 HD
ENDBRANCH  17  20
ENDBRANCH  16  17
ENDBRANCH   1  16
TORSDOF 5
ENDMDL
MODEL 8
REMARK VINA RESULT:      -6.5      2.123      5.429
REMARK  Name = 
REMARK  8 active torsions:
REMARK  status: ('A' for Active; 'I' for Inactive)
REMARK    1  A    between atoms: C_1  and  C_2
REMARK    2  A    between atoms: C_2  and  N_3
REMARK    3  A    between atoms: N_3  and  C_4
REMARK    4  A    between atoms: C_4  and  C_5
REMARK    5  A    between atoms: C_5  and  C_6
REMARK    6  A    between atoms: C_5  and  C_7
REMARK    7  A    between atoms: C_5  and  O_8
REMARK    8  A    between atoms: C_9  and  C_11
REMARK                            x       y       z     vdW  Elec       q    Type
REMARK                         _______ _______ _______ _____ _____    ______ ____
ROOT
ATOM      1  N   UNL     1       5.442   4.402  16.690  0.00  0.00    +0.000 N 
ATOM      2  C   UNL     1       4.077   4.230  17.020  0.00  0.00    +0.000 C 
ATOM      3  O   UNL     1       3.352   3.533  16.307  0.00  0.00    +0.000 OA
ENDROOT
BRANCH   2   4
ATOM      4  C   UNL     1       3.431   4.882  18.220  0.00  0.00    +0.000 A 
ATOM      5  N   UNL     1       3.022   6.177  18.051  0.00  0.00    +0.000 NA
ATOM      6  C   UNL     1       2.357   6.761  19.070  0.00  0.00    +0.000 A 
ATOM      7  C   UNL     1       2.028   6.104  20.245  0.00  0.00    +0.000 A 
ATOM      8  C   UNL     1       2.415   4.775  20.412  0.00  0.00    +0.000 A 
ATOM      9  C   UNL     1       2.041   4.075  21.572  0.00  0.00    +0.000 A 
ATOM     10  C   UNL     1       2.418   2.747  21.765  0.00  0.00    +0.000 A 
ATOM     11  C   UNL     1       3.212   2.115  20.821  0.00  0.00    +0.000 A 
ATOM     12  C   UNL     1       3.594   2.801  19.667  0.00  0.00    +0.000 A 
ATOM     13  C   UNL     1       3.173   4.132  19.405  0.00  0.00    +0.000 A 
ENDBRANCH   2   4
BRANCH   1  15
ATOM     14  C   UNL     1       5.853   4.291  14.185  0.00  0.00    +0.000 C 
ATOM     15  C   UNL     1       5.953   3.625  15.554  0.00  0.00    +0.000 C 
ENDBRANCH   1  15
BRANCH   1  16
ATOM     16  C   UNL     1       6.458   4.919  17.625  0.00  0.00    +0.000 C 
BRANCH  16  17
ATOM     17  C   UNL     1       7.028   6.335  17.301  0.00  0.00    +0.000 C 
ATOM     18  C   UNL     1       5.860   7.299  17.046  0.00  0.00    +0.000 C 
ATOM     19  C   UNL     1       7.940   6.885  18.399  0.00  0.00    +0.000 C 
BRANCH  17  20
ATOM     20  O   UNL     1       7.809   6.298  16.096  0.00  0.00    +0.000 OA
ATOM     21  H   UNL     1       7.231   6.543  15.353  0.00  0.00    +0.000 HD
ENDBRANCH  17  20
ENDBRANCH  16  17
ENDBRANCH   1  16
TORSDOF 5
ENDMDL
MODEL 9
REMARK VINA RESULT:      -6.4      1.613      5.178
REMARK  Name = 
REMARK  8 active torsions:
REMARK  status: ('A' for Active; 'I' for Inactive)
REMARK    1  A    between atoms: C_1  and  C_2
REMARK    2  A    between atoms: C_2  and  N_3
REMARK    3  A    between atoms: N_3  and  C_4
REMARK    4  A    between atoms: C_4  and  C_5
REMARK    5  A    between atoms: C_5  and  C_6
REMARK    6  A    between atoms: C_5  and  C_7
REMARK    7  A    between atoms: C_5  and  O_8
REMARK    8  A    between atoms: C_9  and  C_11
REMARK                            x       y       z     vdW  Elec       q    Type
REMARK                         _______ _______ _______ _____ _____    ______ ____
ROOT
ATOM      1  N   UNL     1       4.965   3.961  16.966  0.00  0.00    +0.000 N 
ATOM      2  C   UNL     1       3.586   3.791  17.228  0.00  0.00    +0.000 C 
ATOM      3  O   UNL     1       2.828   3.415  16.331  0.00  0.00    +0.000 OA
ENDROOT
BRANCH   2   4
ATOM      4  C   UNL     1       2.963   4.067  18.576  0.00  0.00    +0.000 A 
ATOM      5  N   UNL     1       2.936   3.014  19.450  0.00  0.00    +0.000 NA
ATOM      6  C   UNL     1       2.472   3.247  20.697  0.00  0.00    +0.000 A 
ATOM      7  C   UNL     1       2.075   4.498  21.143  0.00  0.00    +0.000 A 
ATOM      8  C   UNL     1       2.129   5.581  20.268  0.00  0.00    +0.000 A 
ATOM      9  C   UNL     1       1.785   6.867  20.719  0.00  0.00    +0.000 A 
ATOM     10  C   UNL     1       1.827   7.966  19.863  0.00  0.00    +0.000 A 
ATOM     11  C   UNL     1       2.170   7.787  18.532  0.00  0.00    +0.000 A 
ATOM     12  C   UNL     1       2.509   6.514  18.070  0.00  0.00    +0.000 A 
ATOM     13  C   UNL     1       2.542   5.383  18.930  0.00  0.00    +0.000 A 
ENDBRANCH   2   4
BRANCH   1  15
ATOM     14  C   UNL     1       5.569   4.669  14.601  0.00  0.00    +0.000 C 
ATOM     15  C   UNL     1       5.445   3.557  15.639  0.00  0.00    +0.000 C 
ENDBRANCH   1  15
BRANCH   1  16
ATOM     16  C   UNL     1       5.996   4.075  18.015  0.00  0.00    +0.000 C 
BRANCH  16  17
ATOM     17  C   UNL     1       6.330   5.523  18.491  0.00  0.00    +0.000 C 
ATOM     18  C   UNL     1       7.839   5.627  18.758  0.00  0.00    +0.000 C 
ATOM     19  C   UNL     1       5.892   6.601  17.497  0.00  0.00    +0.000 C 
BRANCH  17  20
ATOM     20  O   UNL     1       5.665   5.810  19.731  0.00  0.00    +0.000 OA
ATOM     21  H   UNL     1       6.324   6.165  20.352  0.00  0.00    +0.000 HD
ENDBRANCH  17  20
ENDBRANCH  16  17
ENDBRANCH   1  16
TORSDOF 5
ENDMDL
