MODEL 1
REMARK VINA RESULT:      -7.5      0.000      0.000
REMARK  Name = 
REMARK  3 active torsions:
REMARK  status: ('A' for Active; 'I' for Inactive)
REMARK    1  A    between atoms: C_1  and  C_2
REMARK    2  A    between atoms: C_5  and  C_6
REMARK    3  A    between atoms: C_19  and  C_20
REMARK                            x       y       z     vdW  Elec       q    Type
REMARK                         _______ _______ _______ _____ _____    ______ ____
ROOT
ATOM      1  C   UNL     1       3.051   7.098  18.323  0.00  0.00    +0.000 C 
ATOM      2  O   UNL     1       3.652   7.723  17.450  0.00  0.00    +0.000 OA
ATOM      3  N   UNL     1       2.171   7.754  19.212  0.00  0.00    +0.000 N 
ATOM      4  C   UNL     1       1.367   7.080  20.229  0.00  0.00    +0.000 C 
ATOM      5  C   UNL     1       1.095   7.886  21.477  0.00  0.00    +0.000 C 
ATOM      6  C   UNL     1       0.679   9.291  21.173  0.00  0.00    +0.000 A 
ATOM      7  C   UNL     1      -0.036  10.003  22.149  0.00  0.00    +0.000 A 
ATOM      8  C   UNL     1      -0.375  11.339  21.947  0.00  0.00    +0.000 A 
ATOM      9 CL   UNL     1      -1.290  12.126  23.182  0.00  0.00    +0.000 Cl
ATOM     10  C   UNL     1       0.027  11.975  20.770  0.00  0.00    +0.000 A 
ATOM     11 CL   UNL     1      -0.338  13.638  20.461  0.00  0.00    +0.000 Cl
ATOM     12  C   UNL     1       0.738  11.268  19.798  0.00  0.00    +0.000 A 
ATOM     13  C   UNL     1       1.055   9.904  19.973  0.00  0.00    +0.000 A 
ATOM     14  C   UNL     1       1.755   9.131  18.846  0.00  0.00    +0.000 C 
ATOM     15  C   UNL     1       0.827   9.083  17.614  0.00  0.00    +0.000 C 
ENDROOT
BRANCH   1  20
ATOM     16  C   UNL     1       3.679   1.283  18.546  0.00  0.00    +0.000 C 
ATOM     17  C   UNL     1       3.515   2.768  18.455  0.00  0.00    +0.000 A 
ATOM     18  C   UNL     1       2.457   3.342  17.872  0.00  0.00    +0.000 A 
ATOM     19  C   UNL     1       2.395   4.773  17.747  0.00  0.00    +0.000 A 
ATOM     20  C   UNL     1       3.224   5.606  18.410  0.00  0.00    +0.000 A 
ATOM     21  C   UNL     1       4.416   4.961  19.064  0.00  0.00    +0.000 A 
ATOM     22  O   UNL     1       5.299   5.592  19.637  0.00  0.00    +0.000 OA
ATOM     23  N   UNL     1       4.486   3.578  18.998  0.00  0.00    +0.000 N 
ATOM     24  H   UNL     1       5.309   3.169  19.425  0.00  0.00    +0.000 HD
ENDBRANCH   1  20
TORSDOF 1
ENDMDL
MODEL 2
REMARK VINA RESULT:      -7.3      4.269      8.118
REMARK  Name = 
REMARK  3 active torsions:
REMARK  status: ('A' for Active; 'I' for Inactive)
REMARK    1  A    between atoms: C_1  and  C_2
REMARK    2  A    between atoms: C_5  and  C_6
REMARK    3  A    between atoms: C_19  and  C_20
REMARK                            x       y       z     vdW  Elec       q    Type
REMARK                         _______ _______ _______ _____ _____    ______ ____
ROOT
ATOM      1  C   UNL     1       0.764  10.957  21.075  0.00  0.00    +0.000 C 
ATOM      2  O   UNL     1       0.684  10.846  22.298  0.00  0.00    +0.000 OA
ATOM      3  N   UNL     1       1.121   9.855  20.267  0.00  0.00    +0.000 N 
ATOM      4  C   UNL     1       1.172   9.881  18.806  0.00  0.00    +0.000 C 
ATOM      5  C   UNL     1       2.200   8.970  18.179  0.00  0.00    +0.000 C 
ATOM      6  C   UNL     1       2.202   7.603  18.785  0.00  0.00    +0.000 A 
ATOM      7  C   UNL     1       2.738   6.541  18.040  0.00  0.00    +0.000 A 
ATOM      8  C   UNL     1       2.837   5.265  18.592  0.00  0.00    +0.000 A 
ATOM      9 CL   UNL     1       3.471   4.009  17.592  0.00  0.00    +0.000 Cl
ATOM     10  C   UNL     1       2.419   5.056  19.908  0.00  0.00    +0.000 A 
ATOM     11 CL   UNL     1       2.533   3.505  20.666  0.00  0.00    +0.000 Cl
ATOM     12  C   UNL     1       1.885   6.112  20.651  0.00  0.00    +0.000 A 
ATOM     13  C   UNL     1       1.745   7.400  20.092  0.00  0.00    +0.000 A 
ATOM     14  C   UNL     1       1.067   8.515  20.902  0.00  0.00    +0.000 C 
ATOM     15  C   UNL     1      -0.402   8.126  21.169  0.00  0.00    +0.000 C 
ENDROOT
BRANCH   1  20
ATOM     16  C   UNL     1      -0.421  16.091  18.527  0.00  0.00    +0.000 C 
ATOM     17  C   UNL     1      -0.091  14.776  19.158  0.00  0.00    +0.000 A 
ATOM     18  C   UNL     1       1.099  14.521  19.714  0.00  0.00    +0.000 A 
ATOM     19  C   UNL     1       1.383  13.211  20.235  0.00  0.00    +0.000 A 
ATOM     20  C   UNL     1       0.431  12.276  20.432  0.00  0.00    +0.000 A 
ATOM     21  C   UNL     1      -0.908  12.560  19.805  0.00  0.00    +0.000 A 
ATOM     22  O   UNL     1      -1.849  11.774  19.831  0.00  0.00    +0.000 OA
ATOM     23  N   UNL     1      -1.049  13.788  19.176  0.00  0.00    +0.000 N 
ATOM     24  H   UNL     1      -1.950  13.946  18.741  0.00  0.00    +0.000 HD
ENDBRANCH   1  20
TORSDOF 1
ENDMDL
MODEL 3
REMARK VINA RESULT:      -7.2      4.230      7.983
REMARK  Name = 
REMARK  3 active torsions:
REMARK  status: ('A' for Active; 'I' for Inactive)
REMARK    1  A    between atoms: C_1  and  C_2
REMARK    2  A    between atoms: C_5  and  C_6
REMARK    3  A    between atoms: C_19  and  C_20
REMARK                            x       y       z     vdW  Elec       q    Type
REMARK                         _______ _______ _______ _____ _____    ______ ____
ROOT
ATOM      1  C   UNL     1       0.891  10.778  21.105  0.00  0.00    +0.000 C 
ATOM      2  O   UNL     1       0.799  10.664  22.326  0.00  0.00    +0.000 OA
ATOM      3  N   UNL     1       1.219   9.669  20.294  0.00  0.00    +0.000 N 
ATOM      4  C   UNL     1       1.280   9.700  18.833  0.00  0.00    +0.000 C 
ATOM      5  C   UNL     1       2.285   8.760  18.209  0.00  0.00    +0.000 C 
ATOM      6  C   UNL     1       2.239   7.391  18.809  0.00  0.00    +0.000 A 
ATOM      7  C   UNL     1       2.748   6.316  18.063  0.00  0.00    +0.000 A 
ATOM      8  C   UNL     1       2.804   5.036  18.609  0.00  0.00    +0.000 A 
ATOM      9 CL   UNL     1       3.406   3.766  17.607  0.00  0.00    +0.000 Cl
ATOM     10  C   UNL     1       2.371   4.834  19.922  0.00  0.00    +0.000 A 
ATOM     11 CL   UNL     1       2.432   3.277  20.673  0.00  0.00    +0.000 Cl
ATOM     12  C   UNL     1       1.865   5.902  20.665  0.00  0.00    +0.000 A 
ATOM     13  C   UNL     1       1.768   7.197  20.111  0.00  0.00    +0.000 A 
ATOM     14  C   UNL     1       1.120   8.328  20.923  0.00  0.00    +0.000 C 
ATOM     15  C   UNL     1      -0.363   7.983  21.178  0.00  0.00    +0.000 C 
ENDROOT
BRANCH   1  20
ATOM     16  C   UNL     1      -0.349  15.947  18.654  0.00  0.00    +0.000 C 
ATOM     17  C   UNL     1      -0.062  14.626  19.297  0.00  0.00    +0.000 A 
ATOM     18  C   UNL     1      -0.892  13.582  19.200  0.00  0.00    +0.000 A 
ATOM     19  C   UNL     1      -0.598  12.364  19.906  0.00  0.00    +0.000 A 
ATOM     20  C   UNL     1       0.602  12.110  20.466  0.00  0.00    +0.000 A 
ATOM     21  C   UNL     1       1.536  13.284  20.577  0.00  0.00    +0.000 A 
ATOM     22  O   UNL     1       2.631  13.231  21.129  0.00  0.00    +0.000 OA
ATOM     23  N   UNL     1       1.105  14.475  20.010  0.00  0.00    +0.000 N 
ATOM     24  H   UNL     1       1.740  15.256  20.118  0.00  0.00    +0.000 HD
ENDBRANCH   1  20
TORSDOF 1
ENDMDL
MODEL 4
REMARK VINA RESULT:      -6.9      0.957      1.404
REMARK  Name = 
REMARK  3 active torsions:
REMARK  status: ('A' for Active; 'I' for Inactive)
REMARK    1  A    between atoms: C_1  and  C_2
REMARK    2  A    between atoms: C_5  and  C_6
REMARK    3  A    between atoms: C_19  and  C_20
REMARK                            x       y       z     vdW  Elec       q    Type
REMARK                         _______ _______ _______ _____ _____    ______ ____
ROOT
ATOM      1  C   UNL     1       3.100   7.031  18.359  0.00  0.00    +0.000 C 
ATOM      2  O   UNL     1       3.656   7.641  17.446  0.00  0.00    +0.000 OA
ATOM      3  N   UNL     1       2.209   7.688  19.235  0.00  0.00    +0.000 N 
ATOM      4  C   UNL     1       1.455   7.027  20.300  0.00  0.00    +0.000 C 
ATOM      5  C   UNL     1       1.171   7.878  21.515  0.00  0.00    +0.000 C 
ATOM      6  C   UNL     1       0.687   9.247  21.156  0.00  0.00    +0.000 A 
ATOM      7  C   UNL     1      -0.040   9.972  22.113  0.00  0.00    +0.000 A 
ATOM      8  C   UNL     1      -0.443  11.280  21.858  0.00  0.00    +0.000 A 
ATOM      9 CL   UNL     1      -1.367  12.084  23.075  0.00  0.00    +0.000 Cl
ATOM     10  C   UNL     1      -0.092  11.879  20.645  0.00  0.00    +0.000 A 
ATOM     11 CL   UNL     1      -0.537  13.507  20.269  0.00  0.00    +0.000 Cl
ATOM     12  C   UNL     1       0.631  11.159  19.692  0.00  0.00    +0.000 A 
ATOM     13  C   UNL     1       1.013   9.820  19.922  0.00  0.00    +0.000 A 
ATOM     14  C   UNL     1       1.725   9.027  18.816  0.00  0.00    +0.000 C 
ATOM     15  C   UNL     1       0.777   8.881  17.607  0.00  0.00    +0.000 C 
ENDROOT
BRANCH   1  20
ATOM     16  C   UNL     1       4.083   1.303  19.057  0.00  0.00    +0.000 C 
ATOM     17  C   UNL     1       3.837   2.772  18.912  0.00  0.00    +0.000 A 
ATOM     18  C   UNL     1       4.713   3.694  19.325  0.00  0.00    +0.000 A 
ATOM     19  C   UNL     1       4.384   5.091  19.229  0.00  0.00    +0.000 A 
ATOM     20  C   UNL     1       3.341   5.553  18.510  0.00  0.00    +0.000 A 
ATOM     21  C   UNL     1       2.353   4.516  18.046  0.00  0.00    +0.000 A 
ATOM     22  O   UNL     1       1.315   4.787  17.450  0.00  0.00    +0.000 OA
ATOM     23  N   UNL     1       2.666   3.194  18.324  0.00  0.00    +0.000 N 
ATOM     24  H   UNL     1       1.975   2.517  18.024  0.00  0.00    +0.000 HD
ENDBRANCH   1  20
TORSDOF 1
ENDMDL
MODEL 5
REMARK VINA RESULT:      -6.8      1.752      2.915
REMARK  Name = 
REMARK  3 active torsions:
REMARK  status: ('A' for Active; 'I' for Inactive)
REMARK    1  A    between atoms: C_1  and  C_2
REMARK    2  A    between atoms: C_5  and  C_6
REMARK    3  A    between atoms: C_19  and  C_20
REMARK                            x       y       z     vdW  Elec       q    Type
REMARK                         _______ _______ _______ _____ _____    ______ ____
ROOT
ATOM      1  C   UNL     1       2.094   6.276  19.898  0.00  0.00    +0.000 C 
ATOM      2  O   UNL     1       1.726   5.607  20.863  0.00  0.00    +0.000 OA
ATOM      3  N   UNL     1       1.662   7.610  19.732  0.00  0.00    +0.000 N 
ATOM      4  C   UNL     1       2.103   8.496  18.655  0.00  0.00    +0.000 C 
ATOM      5  C   UNL     1       1.087   9.517  18.201  0.00  0.00    +0.000 C 
ATOM      6  C   UNL     1       0.413  10.204  19.346  0.00  0.00    +0.000 A 
ATOM      7  C   UNL     1      -0.185  11.453  19.119  0.00  0.00    +0.000 A 
ATOM      8  C   UNL     1      -0.895  12.096  20.130  0.00  0.00    +0.000 A 
ATOM      9 CL   UNL     1      -1.563  13.648  19.777  0.00  0.00    +0.000 Cl
ATOM     10  C   UNL     1      -1.031  11.470  21.372  0.00  0.00    +0.000 A 
ATOM     11 CL   UNL     1      -1.918  12.197  22.668  0.00  0.00    +0.000 Cl
ATOM     12  C   UNL     1      -0.437  10.227  21.600  0.00  0.00    +0.000 A 
ATOM     13  C   UNL     1       0.317   9.583  20.596  0.00  0.00    +0.000 A 
ATOM     14  C   UNL     1       1.035   8.262  20.909  0.00  0.00    +0.000 C 
ATOM     15  C   UNL     1       2.103   8.511  21.994  0.00  0.00    +0.000 C 
ENDROOT
BRANCH   1  20
ATOM     16  C   UNL     1       5.915   3.917  16.144  0.00  0.00    +0.000 C 
ATOM     17  C   UNL     1       4.956   4.507  17.130  0.00  0.00    +0.000 A 
ATOM     18  C   UNL     1       5.347   5.316  18.120  0.00  0.00    +0.000 A 
ATOM     19  C   UNL     1       4.388   5.789  19.082  0.00  0.00    +0.000 A 
ATOM     20  C   UNL     1       3.056   5.674  18.910  0.00  0.00    +0.000 A 
ATOM     21  C   UNL     1       2.614   4.762  17.797  0.00  0.00    +0.000 A 
ATOM     22  O   UNL     1       1.439   4.495  17.564  0.00  0.00    +0.000 OA
ATOM     23  N   UNL     1       3.617   4.213  17.011  0.00  0.00    +0.000 N 
ATOM     24  H   UNL     1       3.296   3.585  16.284  0.00  0.00    +0.000 HD
ENDBRANCH   1  20
TORSDOF 1
ENDMDL
MODEL 6
REMARK VINA RESULT:      -6.7      4.361      8.343
REMARK  Name = 
REMARK  3 active torsions:
REMARK  status: ('A' for Active; 'I' for Inactive)
REMARK    1  A    between atoms: C_1  and  C_2
REMARK    2  A    between atoms: C_5  and  C_6
REMARK    3  A    between atoms: C_19  and  C_20
REMARK                            x       y       z     vdW  Elec       q    Type
REMARK                         _______ _______ _______ _____ _____    ______ ____
ROOT
ATOM      1  C   UNL     1       0.788  12.285  20.699  0.00  0.00    +0.000 C 
ATOM      2  O   UNL     1       0.717  12.276  21.927  0.00  0.00    +0.000 OA
ATOM      3  N   UNL     1       1.064  11.102  19.978  0.00  0.00    +0.000 N 
ATOM      4  C   UNL     1       1.098  11.010  18.519  0.00  0.00    +0.000 C 
ATOM      5  C   UNL     1       2.058   9.989  17.958  0.00  0.00    +0.000 C 
ATOM      6  C   UNL     1       1.981   8.676  18.671  0.00  0.00    +0.000 A 
ATOM      7  C   UNL     1       2.440   7.527  18.008  0.00  0.00    +0.000 A 
ATOM      8  C   UNL     1       2.465   6.295  18.658  0.00  0.00    +0.000 A 
ATOM      9 CL   UNL     1       3.007   4.926  17.756  0.00  0.00    +0.000 Cl
ATOM     10  C   UNL     1       2.053   6.217  19.991  0.00  0.00    +0.000 A 
ATOM     11 CL   UNL     1       2.079   4.726  20.868  0.00  0.00    +0.000 Cl
ATOM     12  C   UNL     1       1.596   7.359  20.651  0.00  0.00    +0.000 A 
ATOM     13  C   UNL     1       1.529   8.606  19.993  0.00  0.00    +0.000 A 
ATOM     14  C   UNL     1       0.934   9.822  20.718  0.00  0.00    +0.000 C 
ATOM     15  C   UNL     1      -0.553   9.550  21.027  0.00  0.00    +0.000 C 
ENDROOT
BRANCH   1  20
ATOM     16  C   UNL     1      -0.296  17.309  17.899  0.00  0.00    +0.000 C 
ATOM     17  C   UNL     1      -0.034  16.037  18.643  0.00  0.00    +0.000 A 
ATOM     18  C   UNL     1      -1.006  15.335  19.234  0.00  0.00    +0.000 A 
ATOM     19  C   UNL     1      -0.680  14.162  20.001  0.00  0.00    +0.000 A 
ATOM     20  C   UNL     1       0.530  13.568  19.957  0.00  0.00    +0.000 A 
ATOM     21  C   UNL     1       1.625  14.359  19.294  0.00  0.00    +0.000 A 
ATOM     22  O   UNL     1       2.794  13.988  19.243  0.00  0.00    +0.000 OA
ATOM     23  N   UNL     1       1.257  15.565  18.717  0.00  0.00    +0.000 N 
ATOM     24  H   UNL     1       2.015  16.090  18.298  0.00  0.00    +0.000 HD
ENDBRANCH   1  20
TORSDOF 1
ENDMDL
MODEL 7
REMARK VINA RESULT:      -6.6      4.409      8.394
REMARK  Name = 
REMARK  3 active torsions:
REMARK  status: ('A' for Active; 'I' for Inactive)
REMARK    1  A    between atoms: C_1  and  C_2
REMARK    2  A    between atoms: C_5  and  C_6
REMARK    3  A    between atoms: C_19  and  C_20
REMARK                            x       y       z     vdW  Elec       q    Type
REMARK                         _______ _______ _______ _____ _____    ______ ____
ROOT
ATOM      1  C   UNL     1      -0.045  11.151  21.913  0.00  0.00    +0.000 C 
ATOM      2  O   UNL     1      -0.039  10.805  23.093  0.00  0.00    +0.000 OA
ATOM      3  N   UNL     1       0.479  10.310  20.906  0.00  0.00    +0.000 N 
ATOM      4  C   UNL     1       0.449  10.613  19.476  0.00  0.00    +0.000 C 
ATOM      5  C   UNL     1       1.603  10.059  18.674  0.00  0.00    +0.000 C 
ATOM      6  C   UNL     1       1.904   8.633  19.011  0.00  0.00    +0.000 A 
ATOM      7  C   UNL     1       2.599   7.856  18.071  0.00  0.00    +0.000 A 
ATOM      8  C   UNL     1       2.975   6.548  18.370  0.00  0.00    +0.000 A 
ATOM      9 CL   UNL     1       3.792   5.651  17.142  0.00  0.00    +0.000 Cl
ATOM     10  C   UNL     1       2.675   6.022  19.629  0.00  0.00    +0.000 A 
ATOM     11 CL   UNL     1       3.130   4.415  20.079  0.00  0.00    +0.000 Cl
ATOM     12  C   UNL     1       1.983   6.794  20.565  0.00  0.00    +0.000 A 
ATOM     13  C   UNL     1       1.563   8.107  20.261  0.00  0.00    +0.000 A 
ATOM     14  C   UNL     1       0.723   8.894  21.277  0.00  0.00    +0.000 C 
ATOM     15  C   UNL     1      -0.626   8.173  21.486  0.00  0.00    +0.000 C 
ENDROOT
BRANCH   1  20
ATOM     16  C   UNL     1      -2.555  16.248  20.507  0.00  0.00    +0.000 C 
ATOM     17  C   UNL     1      -1.937  14.940  20.890  0.00  0.00    +0.000 A 
ATOM     18  C   UNL     1      -2.622  13.791  20.883  0.00  0.00    +0.000 A 
ATOM     19  C   UNL     1      -1.994  12.579  21.337  0.00  0.00    +0.000 A 
ATOM     20  C   UNL     1      -0.664  12.470  21.536  0.00  0.00    +0.000 A 
ATOM     21  C   UNL     1       0.106  13.762  21.546  0.00  0.00    +0.000 A 
ATOM     22  O   UNL     1       1.307  13.835  21.789  0.00  0.00    +0.000 OA
ATOM     23  N   UNL     1      -0.611  14.914  21.257  0.00  0.00    +0.000 N 
ATOM     24  H   UNL     1      -0.076  15.773  21.293  0.00  0.00    +0.000 HD
ENDBRANCH   1  20
TORSDOF 1
ENDMDL
MODEL 8
REMARK VINA RESULT:      -6.5      3.951      5.344
REMARK  Name = 
REMARK  3 active torsions:
REMARK  status: ('A' for Active; 'I' for Inactive)
REMARK    1  A    between atoms: C_1  and  C_2
REMARK    2  A    between atoms: C_5  and  C_6
REMARK    3  A    between atoms: C_19  and  C_20
REMARK                            x       y       z     vdW  Elec       q    Type
REMARK                         _______ _______ _______ _____ _____    ______ ____
ROOT
ATOM      1  C   UNL     1       0.138  10.172  20.040  0.00  0.00    +0.000 C 
ATOM      2  O   UNL     1       0.405  10.642  21.145  0.00  0.00    +0.000 OA
ATOM      3  N   UNL     1      -1.047  10.535  19.362  0.00  0.00    +0.000 N 
ATOM      4  C   UNL     1      -1.407  10.080  18.020  0.00  0.00    +0.000 C 
ATOM      5  C   UNL     1      -2.888   9.935  17.763  0.00  0.00    +0.000 C 
ATOM      6  C   UNL     1      -3.674  11.105  18.263  0.00  0.00    +0.000 A 
ATOM      7  C   UNL     1      -4.942  11.344  17.711  0.00  0.00    +0.000 A 
ATOM      8  C   UNL     1      -5.748  12.371  18.200  0.00  0.00    +0.000 A 
ATOM      9 CL   UNL     1      -7.276  12.620  17.437  0.00  0.00    +0.000 Cl
ATOM     10  C   UNL     1      -5.291  13.148  19.267  0.00  0.00    +0.000 A 
ATOM     11 CL   UNL     1      -6.245  14.424  19.941  0.00  0.00    +0.000 Cl
ATOM     12  C   UNL     1      -4.029  12.911  19.817  0.00  0.00    +0.000 A 
ATOM     13  C   UNL     1      -3.188  11.899  19.307  0.00  0.00    +0.000 A 
ATOM     14  C   UNL     1      -1.770  11.727  19.872  0.00  0.00    +0.000 C 
ATOM     15  C   UNL     1      -0.949  12.999  19.574  0.00  0.00    +0.000 C 
ENDROOT
BRANCH   1  20
ATOM     16  C   UNL     1       4.001   6.622  17.446  0.00  0.00    +0.000 C 
ATOM     17  C   UNL     1       3.035   7.555  18.105  0.00  0.00    +0.000 A 
ATOM     18  C   UNL     1       2.603   8.677  17.519  0.00  0.00    +0.000 A 
ATOM     19  C   UNL     1       1.736   9.574  18.235  0.00  0.00    +0.000 A 
ATOM     20  C   UNL     1       1.115   9.234  19.383  0.00  0.00    +0.000 A 
ATOM     21  C   UNL     1       1.601   7.973  20.045  0.00  0.00    +0.000 A 
ATOM     22  O   UNL     1       1.191   7.574  21.130  0.00  0.00    +0.000 OA
ATOM     23  N   UNL     1       2.565   7.246  19.361  0.00  0.00    +0.000 N 
ATOM     24  H   UNL     1       2.893   6.415  19.836  0.00  0.00    +0.000 HD
ENDBRANCH   1  20
TORSDOF 1
ENDMDL
MODEL 9
REMARK VINA RESULT:      -6.4      4.627      8.494
REMARK  Name = 
REMARK  3 active torsions:
REMARK  status: ('A' for Active; 'I' for Inactive)
REMARK    1  A    between atoms: C_1  and  C_2
REMARK    2  A    between atoms: C_5  and  C_6
REMARK    3  A    between atoms: C_19  and  C_20
REMARK                            x       y       z     vdW  Elec       q    Type
REMARK                         _______ _______ _______ _____ _____    ______ ____
ROOT
ATOM      1  C   UNL     1      -1.095  12.278  19.120  0.00  0.00    +0.000 C 
ATOM      2  O   UNL     1      -1.102  12.680  17.957  0.00  0.00    +0.000 OA
ATOM      3  N   UNL     1      -0.309  11.168  19.502  0.00  0.00    +0.000 N 
ATOM      4  C   UNL     1      -0.190  10.669  20.871  0.00  0.00    +0.000 C 
ATOM      5  C   UNL     1       0.036   9.181  20.998  0.00  0.00    +0.000 C 
ATOM      6  C   UNL     1       1.075   8.675  20.050  0.00  0.00    +0.000 A 
ATOM      7  C   UNL     1       1.718   7.463  20.346  0.00  0.00    +0.000 A 
ATOM      8  C   UNL     1       2.634   6.908  19.455  0.00  0.00    +0.000 A 
ATOM      9 CL   UNL     1       3.408   5.436  19.918  0.00  0.00    +0.000 Cl
ATOM     10  C   UNL     1       2.889   7.558  18.245  0.00  0.00    +0.000 A 
ATOM     11 CL   UNL     1       3.996   6.917  17.080  0.00  0.00    +0.000 Cl
ATOM     12  C   UNL     1       2.251   8.764  17.949  0.00  0.00    +0.000 A 
ATOM     13  C   UNL     1       1.349   9.356  18.859  0.00  0.00    +0.000 A 
ATOM     14  C   UNL     1       0.736  10.729  18.544  0.00  0.00    +0.000 C 
ATOM     15  C   UNL     1       1.860  11.784  18.483  0.00  0.00    +0.000 C 
ENDROOT
BRANCH   1  20
ATOM     16  C   UNL     1      -4.162  15.234  23.135  0.00  0.00    +0.000 C 
ATOM     17  C   UNL     1      -3.364  14.508  22.097  0.00  0.00    +0.000 A 
ATOM     18  C   UNL     1      -2.035  14.621  22.000  0.00  0.00    +0.000 A 
ATOM     19  C   UNL     1      -1.335  13.959  20.933  0.00  0.00    +0.000 A 
ATOM     20  C   UNL     1      -1.902  13.013  20.157  0.00  0.00    +0.000 A 
ATOM     21  C   UNL     1      -3.397  12.886  20.264  0.00  0.00    +0.000 A 
ATOM     22  O   UNL     1      -4.066  12.126  19.569  0.00  0.00    +0.000 OA
ATOM     23  N   UNL     1      -4.021  13.684  21.212  0.00  0.00    +0.000 N 
ATOM     24  H   UNL     1      -5.029  13.599  21.249  0.00  0.00    +0.000 HD
ENDBRANCH   1  20
TORSDOF 1
ENDMDL
