MODEL 1
REMARK VINA RESULT:      -8.0      0.000      0.000
REMARK  Name = 
REMARK  8 active torsions:
REMARK  status: ('A' for Active; 'I' for Inactive)
REMARK    1  A    between atoms: C_1  and  C_2
REMARK    2  A    between atoms: N_5  and  C_6
REMARK    3  A    between atoms: C_6  and  C_7
REMARK    4  A    between atoms: C_6  and  C_8
REMARK    5  A    between atoms: C_8  and  C_9
REMARK    6  A    between atoms: C_9  and  C_10
REMARK    7  A    between atoms: C_22  and  C_23
REMARK    8  A    between atoms: C_24  and  N_25
REMARK                            x       y       z     vdW  Elec       q    Type
REMARK                         _______ _______ _______ _____ _____    ______ ____
ROOT
ATOM      1  C   UNL     1       3.921   1.858  20.110  0.00  0.00    +0.000 C 
ATOM      2  C   UNL     1       4.049   3.336  19.867  0.00  0.00    +0.000 A 
ATOM      3  N   UNL     1       5.230   3.740  19.341  0.00  0.00    +0.000 NA
ATOM      4  C   UNL     1       5.328   4.995  18.890  0.00  0.00    +0.000 A 
ATOM      5  N   UNL     1       6.520   5.358  18.341  0.00  0.00    +0.000 N 
ATOM      6  N   UNL     1       4.336   5.885  18.989  0.00  0.00    +0.000 NA
ATOM      7  C   UNL     1       3.212   5.534  19.664  0.00  0.00    +0.000 A 
ATOM      8  N   UNL     1       2.307   6.604  19.952  0.00  0.00    +0.000 N 
ATOM      9  C   UNL     1       1.459   6.723  21.032  0.00  0.00    +0.000 A 
ATOM     10  C   UNL     1       0.841   7.945  20.906  0.00  0.00    +0.000 A 
ATOM     11  N   UNL     1       1.295   8.600  19.806  0.00  0.00    +0.000 NA
ATOM     12  C   UNL     1       2.189   7.804  19.250  0.00  0.00    +0.000 A 
ATOM     13  C   UNL     1       2.918   8.126  17.994  0.00  0.00    +0.000 C 
ATOM     14  C   UNL     1       3.024   4.238  20.098  0.00  0.00    +0.000 A 
ATOM     15  H   UNL     1       7.329   4.920  18.756  0.00  0.00    +0.000 HD
ENDROOT
BRANCH  14  16
ATOM     16  N   UNL     1       1.771   3.760  20.607  0.00  0.00    +0.000 N 
ATOM     17  O   UNL     1       0.849   3.619  19.794  0.00  0.00    +0.000 OA
ATOM     18  O   UNL     1       1.706   3.531  21.820  0.00  0.00    +0.000 OA
ENDBRANCH  14  16
BRANCH   5  19
ATOM     19  C   UNL     1       6.655   6.399  17.344  0.00  0.00    +0.000 C 
ATOM     20  C   UNL     1       7.758   7.375  17.746  0.00  0.00    +0.000 C 
BRANCH  19  21
ATOM     21  C   UNL     1       6.996   5.755  15.982  0.00  0.00    +0.000 C 
BRANCH  21  22
ATOM     22  C   UNL     1       5.749   5.335  15.196  0.00  0.00    +0.000 C 
BRANCH  22  23
ATOM     23  C   UNL     1       6.090   4.636  13.899  0.00  0.00    +0.000 A 
ATOM     24  C   UNL     1       7.269   4.954  13.217  0.00  0.00    +0.000 A 
ATOM     25  C   UNL     1       7.601   4.292  12.027  0.00  0.00    +0.000 A 
ATOM     26  C   UNL     1       6.749   3.323  11.509  0.00  0.00    +0.000 A 
ATOM     27  C   UNL     1       5.567   3.007  12.177  0.00  0.00    +0.000 A 
ATOM     28  C   UNL     1       5.236   3.664  13.364  0.00  0.00    +0.000 A 
ENDBRANCH  22  23
ENDBRANCH  21  22
ENDBRANCH  19  21
ENDBRANCH   5  19
TORSDOF 5
ENDMDL
MODEL 2
REMARK VINA RESULT:      -7.6      3.022      7.304
REMARK  Name = 
REMARK  8 active torsions:
REMARK  status: ('A' for Active; 'I' for Inactive)
REMARK    1  A    between atoms: C_1  and  C_2
REMARK    2  A    between atoms: N_5  and  C_6
REMARK    3  A    between atoms: C_6  and  C_7
REMARK    4  A    between atoms: C_6  and  C_8
REMARK    5  A    between atoms: C_8  and  C_9
REMARK    6  A    between atoms: C_9  and  C_10
REMARK    7  A    between atoms: C_22  and  C_23
REMARK    8  A    between atoms: C_24  and  N_25
REMARK                            x       y       z     vdW  Elec       q    Type
REMARK                         _______ _______ _______ _____ _____    ______ ____
ROOT
ATOM      1  C   UNL     1       2.122   2.832  21.538  0.00  0.00    +0.000 C 
ATOM      2  C   UNL     1       2.418   3.805  20.432  0.00  0.00    +0.000 A 
ATOM      3  N   UNL     1       1.710   4.960  20.467  0.00  0.00    +0.000 NA
ATOM      4  C   UNL     1       2.082   5.957  19.657  0.00  0.00    +0.000 A 
ATOM      5  N   UNL     1       1.366   7.113  19.739  0.00  0.00    +0.000 N 
ATOM      6  N   UNL     1       3.079   5.847  18.775  0.00  0.00    +0.000 NA
ATOM      7  C   UNL     1       3.682   4.640  18.621  0.00  0.00    +0.000 A 
ATOM      8  N   UNL     1       4.555   4.528  17.493  0.00  0.00    +0.000 N 
ATOM      9  C   UNL     1       4.830   3.400  16.750  0.00  0.00    +0.000 A 
ATOM     10  C   UNL     1       5.670   3.799  15.737  0.00  0.00    +0.000 A 
ATOM     11  N   UNL     1       5.903   5.135  15.808  0.00  0.00    +0.000 NA
ATOM     12  C   UNL     1       5.216   5.572  16.847  0.00  0.00    +0.000 A 
ATOM     13  C   UNL     1       5.214   6.988  17.303  0.00  0.00    +0.000 C 
ATOM     14  C   UNL     1       3.387   3.591  19.467  0.00  0.00    +0.000 A 
ATOM     15  H   UNL     1       0.387   6.992  19.952  0.00  0.00    +0.000 HD
ENDROOT
BRANCH  14  16
ATOM     16  N   UNL     1       4.151   2.377  19.498  0.00  0.00    +0.000 N 
ATOM     17  O   UNL     1       3.707   1.416  18.859  0.00  0.00    +0.000 OA
ATOM     18  O   UNL     1       5.192   2.383  20.164  0.00  0.00    +0.000 OA
ENDBRANCH  14  16
BRANCH   5  19
ATOM     19  C   UNL     1       1.908   8.413  19.404  0.00  0.00    +0.000 C 
ATOM     20  C   UNL     1       2.067   8.545  17.892  0.00  0.00    +0.000 C 
BRANCH  19  21
ATOM     21  C   UNL     1       0.956   9.509  19.929  0.00  0.00    +0.000 C 
BRANCH  21  22
ATOM     22  C   UNL     1       0.690  10.609  18.894  0.00  0.00    +0.000 C 
BRANCH  22  23
ATOM     23  C   UNL     1      -0.775  10.731  18.542  0.00  0.00    +0.000 A 
ATOM     24  C   UNL     1      -1.332   9.910  17.556  0.00  0.00    +0.000 A 
ATOM     25  C   UNL     1      -2.696  10.002  17.241  0.00  0.00    +0.000 A 
ATOM     26  C   UNL     1      -3.500  10.925  17.900  0.00  0.00    +0.000 A 
ATOM     27  C   UNL     1      -2.951  11.755  18.877  0.00  0.00    +0.000 A 
ATOM     28  C   UNL     1      -1.594  11.662  19.193  0.00  0.00    +0.000 A 
ENDBRANCH  22  23
ENDBRANCH  21  22
ENDBRANCH  19  21
ENDBRANCH   5  19
TORSDOF 5
ENDMDL
MODEL 3
REMARK VINA RESULT:      -7.5      2.857      8.184
REMARK  Name = 
REMARK  8 active torsions:
REMARK  status: ('A' for Active; 'I' for Inactive)
REMARK    1  A    between atoms: C_1  and  C_2
REMARK    2  A    between atoms: N_5  and  C_6
REMARK    3  A    between atoms: C_6  and  C_7
REMARK    4  A    between atoms: C_6  and  C_8
REMARK    5  A    between atoms: C_8  and  C_9
REMARK    6  A    between atoms: C_9  and  C_10
REMARK    7  A    between atoms: C_22  and  C_23
REMARK    8  A    between atoms: C_24  and  N_25
REMARK                            x       y       z     vdW  Elec       q    Type
REMARK                         _______ _______ _______ _____ _____    ______ ____
ROOT
ATOM      1  C   UNL     1       2.069   2.409  21.636  0.00  0.00    +0.000 C 
ATOM      2  C   UNL     1       2.295   3.541  20.673  0.00  0.00    +0.000 A 
ATOM      3  N   UNL     1       1.625   4.685  20.951  0.00  0.00    +0.000 NA
ATOM      4  C   UNL     1       1.952   5.792  20.277  0.00  0.00    +0.000 A 
ATOM      5  N   UNL     1       1.278   6.930  20.603  0.00  0.00    +0.000 N 
ATOM      6  N   UNL     1       2.865   5.809  19.302  0.00  0.00    +0.000 NA
ATOM      7  C   UNL     1       3.419   4.634  18.907  0.00  0.00    +0.000 A 
ATOM      8  N   UNL     1       4.187   4.688  17.702  0.00  0.00    +0.000 N 
ATOM      9  C   UNL     1       4.364   3.688  16.770  0.00  0.00    +0.000 A 
ATOM     10  C   UNL     1       5.124   4.230  15.760  0.00  0.00    +0.000 A 
ATOM     11  N   UNL     1       5.400   5.535  16.017  0.00  0.00    +0.000 NA
ATOM     12  C   UNL     1       4.818   5.812  17.169  0.00  0.00    +0.000 A 
ATOM     13  C   UNL     1       4.894   7.138  17.839  0.00  0.00    +0.000 C 
ATOM     14  C   UNL     1       3.170   3.468  19.603  0.00  0.00    +0.000 A 
ATOM     15  H   UNL     1       0.319   6.790  20.881  0.00  0.00    +0.000 HD
ENDROOT
BRANCH  14  16
ATOM     16  N   UNL     1       3.900   2.254  19.375  0.00  0.00    +0.000 N 
ATOM     17  O   UNL     1       5.007   2.151  19.917  0.00  0.00    +0.000 OA
ATOM     18  O   UNL     1       3.369   1.406  18.650  0.00  0.00    +0.000 OA
ENDBRANCH  14  16
BRANCH   5  19
ATOM     19  C   UNL     1       1.825   8.259  20.426  0.00  0.00    +0.000 C 
ATOM     20  C   UNL     1       1.307   8.876  19.130  0.00  0.00    +0.000 C 
BRANCH  19  21
ATOM     21  C   UNL     1       1.413   9.139  21.626  0.00  0.00    +0.000 C 
BRANCH  21  22
ATOM     22  C   UNL     1      -0.106   9.182  21.837  0.00  0.00    +0.000 C 
BRANCH  22  23
ATOM     23  C   UNL     1      -0.636  10.595  21.941  0.00  0.00    +0.000 A 
ATOM     24  C   UNL     1      -0.452  11.494  20.886  0.00  0.00    +0.000 A 
ATOM     25  C   UNL     1      -0.962  12.798  20.967  0.00  0.00    +0.000 A 
ATOM     26  C   UNL     1      -1.642  13.208  22.108  0.00  0.00    +0.000 A 
ATOM     27  C   UNL     1      -1.822  12.321  23.168  0.00  0.00    +0.000 A 
ATOM     28  C   UNL     1      -1.317  11.021  23.088  0.00  0.00    +0.000 A 
ENDBRANCH  22  23
ENDBRANCH  21  22
ENDBRANCH  19  21
ENDBRANCH   5  19
TORSDOF 5
ENDMDL
MODEL 4
REMARK VINA RESULT:      -7.4      2.902      8.213
REMARK  Name = 
REMARK  8 active torsions:
REMARK  status: ('A' for Active; 'I' for Inactive)
REMARK    1  A    between atoms: C_1  and  C_2
REMARK    2  A    between atoms: N_5  and  C_6
REMARK    3  A    between atoms: C_6  and  C_7
REMARK    4  A    between atoms: C_6  and  C_8
REMARK    5  A    between atoms: C_8  and  C_9
REMARK    6  A    between atoms: C_9  and  C_10
REMARK    7  A    between atoms: C_22  and  C_23
REMARK    8  A    between atoms: C_24  and  N_25
REMARK                            x       y       z     vdW  Elec       q    Type
REMARK                         _______ _______ _______ _____ _____    ______ ____
ROOT
ATOM      1  C   UNL     1       2.014   2.599  21.608  0.00  0.00    +0.000 C 
ATOM      2  C   UNL     1       2.281   3.677  20.595  0.00  0.00    +0.000 A 
ATOM      3  N   UNL     1       1.605   4.835  20.784  0.00  0.00    +0.000 NA
ATOM      4  C   UNL     1       1.962   5.904  20.065  0.00  0.00    +0.000 A 
ATOM      5  N   UNL     1       1.279   7.059  20.302  0.00  0.00    +0.000 N 
ATOM      6  N   UNL     1       2.912   5.867  19.127  0.00  0.00    +0.000 NA
ATOM      7  C   UNL     1       3.477   4.672  18.819  0.00  0.00    +0.000 A 
ATOM      8  N   UNL     1       4.292   4.661  17.643  0.00  0.00    +0.000 N 
ATOM      9  C   UNL     1       4.503   3.611  16.774  0.00  0.00    +0.000 A 
ATOM     10  C   UNL     1       5.303   4.098  15.767  0.00  0.00    +0.000 A 
ATOM     11  N   UNL     1       5.573   5.414  15.964  0.00  0.00    +0.000 NA
ATOM     12  C   UNL     1       4.947   5.753  17.076  0.00  0.00    +0.000 A 
ATOM     13  C   UNL     1       5.001   7.114  17.675  0.00  0.00    +0.000 C 
ATOM     14  C   UNL     1       3.198   3.546  19.566  0.00  0.00    +0.000 A 
ATOM     15  H   UNL     1       0.309   6.935  20.550  0.00  0.00    +0.000 HD
ENDROOT
BRANCH  14  16
ATOM     16  N   UNL     1       3.932   2.320  19.432  0.00  0.00    +0.000 N 
ATOM     17  O   UNL     1       5.019   2.248  20.017  0.00  0.00    +0.000 OA
ATOM     18  O   UNL     1       3.424   1.432  18.739  0.00  0.00    +0.000 OA
ENDBRANCH  14  16
BRANCH   5  19
ATOM     19  C   UNL     1       1.836   8.375  20.076  0.00  0.00    +0.000 C 
ATOM     20  C   UNL     1       1.624   8.797  18.625  0.00  0.00    +0.000 C 
BRANCH  19  21
ATOM     21  C   UNL     1       1.150   9.385  21.022  0.00  0.00    +0.000 C 
BRANCH  21  22
ATOM     22  C   UNL     1       0.424  10.505  20.267  0.00  0.00    +0.000 C 
BRANCH  22  23
ATOM     23  C   UNL     1      -0.673  11.143  21.090  0.00  0.00    +0.000 A 
ATOM     24  C   UNL     1      -0.774  10.869  22.458  0.00  0.00    +0.000 A 
ATOM     25  C   UNL     1      -1.775  11.475  23.231  0.00  0.00    +0.000 A 
ATOM     26  C   UNL     1      -2.684  12.343  22.636  0.00  0.00    +0.000 A 
ATOM     27  C   UNL     1      -2.596  12.614  21.271  0.00  0.00    +0.000 A 
ATOM     28  C   UNL     1      -1.598  12.012  20.500  0.00  0.00    +0.000 A 
ENDBRANCH  22  23
ENDBRANCH  21  22
ENDBRANCH  19  21
ENDBRANCH   5  19
TORSDOF 5
ENDMDL
MODEL 5
REMARK VINA RESULT:      -7.3      0.632      1.286
REMARK  Name = 
REMARK  8 active torsions:
REMARK  status: ('A' for Active; 'I' for Inactive)
REMARK    1  A    between atoms: C_1  and  C_2
REMARK    2  A    between atoms: N_5  and  C_6
REMARK    3  A    between atoms: C_6  and  C_7
REMARK    4  A    between atoms: C_6  and  C_8
REMARK    5  A    between atoms: C_8  and  C_9
REMARK    6  A    between atoms: C_9  and  C_10
REMARK    7  A    between atoms: C_22  and  C_23
REMARK    8  A    between atoms: C_24  and  N_25
REMARK                            x       y       z     vdW  Elec       q    Type
REMARK                         _______ _______ _______ _____ _____    ______ ____
ROOT
ATOM      1  C   UNL     1       3.776   1.849  20.005  0.00  0.00    +0.000 C 
ATOM      2  C   UNL     1       3.903   3.315  19.699  0.00  0.00    +0.000 A 
ATOM      3  N   UNL     1       4.991   3.667  18.972  0.00  0.00    +0.000 NA
ATOM      4  C   UNL     1       5.047   4.905  18.473  0.00  0.00    +0.000 A 
ATOM      5  N   UNL     1       6.142   5.215  17.723  0.00  0.00    +0.000 N 
ATOM      6  N   UNL     1       4.112   5.829  18.707  0.00  0.00    +0.000 NA
ATOM      7  C   UNL     1       3.106   5.534  19.569  0.00  0.00    +0.000 A 
ATOM      8  N   UNL     1       2.292   6.640  19.969  0.00  0.00    +0.000 N 
ATOM      9  C   UNL     1       1.638   6.815  21.170  0.00  0.00    +0.000 A 
ATOM     10  C   UNL     1       1.043   8.053  21.110  0.00  0.00    +0.000 A 
ATOM     11  N   UNL     1       1.326   8.663  19.931  0.00  0.00    +0.000 NA
ATOM     12  C   UNL     1       2.092   7.824  19.259  0.00  0.00    +0.000 A 
ATOM     13  C   UNL     1       2.611   8.089  17.890  0.00  0.00    +0.000 C 
ATOM     14  C   UNL     1       2.956   4.256  20.068  0.00  0.00    +0.000 A 
ATOM     15  H   UNL     1       6.996   4.762  18.011  0.00  0.00    +0.000 HD
ENDROOT
BRANCH  14  16
ATOM     16  N   UNL     1       1.792   3.833  20.792  0.00  0.00    +0.000 N 
ATOM     17  O   UNL     1       1.940   3.568  21.991  0.00  0.00    +0.000 OA
ATOM     18  O   UNL     1       0.732   3.761  20.161  0.00  0.00    +0.000 OA
ENDBRANCH  14  16
BRANCH   5  19
ATOM     19  C   UNL     1       6.138   6.224  16.685  0.00  0.00    +0.000 C 
ATOM     20  C   UNL     1       7.535   6.816  16.520  0.00  0.00    +0.000 C 
BRANCH  19  21
ATOM     21  C   UNL     1       5.680   5.584  15.357  0.00  0.00    +0.000 C 
BRANCH  21  22
ATOM     22  C   UNL     1       6.840   4.979  14.558  0.00  0.00    +0.000 C 
BRANCH  22  23
ATOM     23  C   UNL     1       6.366   4.106  13.418  0.00  0.00    +0.000 A 
ATOM     24  C   UNL     1       4.997   3.918  13.199  0.00  0.00    +0.000 A 
ATOM     25  C   UNL     1       4.551   3.128  12.129  0.00  0.00    +0.000 A 
ATOM     26  C   UNL     1       5.472   2.514  11.288  0.00  0.00    +0.000 A 
ATOM     27  C   UNL     1       6.838   2.688  11.505  0.00  0.00    +0.000 A 
ATOM     28  C   UNL     1       7.284   3.477  12.568  0.00  0.00    +0.000 A 
ENDBRANCH  22  23
ENDBRANCH  21  22
ENDBRANCH  19  21
ENDBRANCH   5  19
TORSDOF 5
ENDMDL
MODEL 6
REMARK VINA RESULT:      -7.3      2.991      8.251
REMARK  Name = 
REMARK  8 active torsions:
REMARK  status: ('A' for Active; 'I' for Inactive)
REMARK    1  A    between atoms: C_1  and  C_2
REMARK    2  A    between atoms: N_5  and  C_6
REMARK    3  A    between atoms: C_6  and  C_7
REMARK    4  A    between atoms: C_6  and  C_8
REMARK    5  A    between atoms: C_8  and  C_9
REMARK    6  A    between atoms: C_9  and  C_10
REMARK    7  A    between atoms: C_22  and  C_23
REMARK    8  A    between atoms: C_24  and  N_25
REMARK                            x       y       z     vdW  Elec       q    Type
REMARK                         _______ _______ _______ _____ _____    ______ ____
ROOT
ATOM      1  C   UNL     1       2.049   2.444  21.686  0.00  0.00    +0.000 C 
ATOM      2  C   UNL     1       2.281   3.558  20.705  0.00  0.00    +0.000 A 
ATOM      3  N   UNL     1       1.601   4.703  20.953  0.00  0.00    +0.000 NA
ATOM      4  C   UNL     1       1.930   5.800  20.262  0.00  0.00    +0.000 A 
ATOM      5  N   UNL     1       1.246   6.939  20.557  0.00  0.00    +0.000 N 
ATOM      6  N   UNL     1       2.857   5.804  19.299  0.00  0.00    +0.000 NA
ATOM      7  C   UNL     1       3.422   4.625  18.935  0.00  0.00    +0.000 A 
ATOM      8  N   UNL     1       4.207   4.662  17.739  0.00  0.00    +0.000 N 
ATOM      9  C   UNL     1       4.403   3.645  16.829  0.00  0.00    +0.000 A 
ATOM     10  C   UNL     1       5.173   4.173  15.819  0.00  0.00    +0.000 A 
ATOM     11  N   UNL     1       5.438   5.484  16.055  0.00  0.00    +0.000 NA
ATOM     12  C   UNL     1       4.839   5.779  17.194  0.00  0.00    +0.000 A 
ATOM     13  C   UNL     1       4.898   7.118  17.839  0.00  0.00    +0.000 C 
ATOM     14  C   UNL     1       3.172   3.471  19.649  0.00  0.00    +0.000 A 
ATOM     15  H   UNL     1       0.283   6.799  20.825  0.00  0.00    +0.000 HD
ENDROOT
BRANCH  14  16
ATOM     16  N   UNL     1       3.912   2.258  19.454  0.00  0.00    +0.000 N 
ATOM     17  O   UNL     1       3.375   1.374  18.775  0.00  0.00    +0.000 OA
ATOM     18  O   UNL     1       5.026   2.186  19.983  0.00  0.00    +0.000 OA
ENDBRANCH  14  16
BRANCH   5  19
ATOM     19  C   UNL     1       1.786   8.268  20.363  0.00  0.00    +0.000 C 
ATOM     20  C   UNL     1       1.503   8.752  18.944  0.00  0.00    +0.000 C 
BRANCH  19  21
ATOM     21  C   UNL     1       1.142   9.231  21.384  0.00  0.00    +0.000 C 
BRANCH  21  22
ATOM     22  C   UNL     1      -0.091   9.951  20.823  0.00  0.00    +0.000 C 
BRANCH  22  23
ATOM     23  C   UNL     1      -0.355  11.270  21.514  0.00  0.00    +0.000 A 
ATOM     24  C   UNL     1      -1.260  11.338  22.578  0.00  0.00    +0.000 A 
ATOM     25  C   UNL     1      -1.491  12.555  23.237  0.00  0.00    +0.000 A 
ATOM     26  C   UNL     1      -0.830  13.706  22.823  0.00  0.00    +0.000 A 
ATOM     27  C   UNL     1       0.067  13.648  21.757  0.00  0.00    +0.000 A 
ATOM     28  C   UNL     1       0.299  12.437  21.102  0.00  0.00    +0.000 A 
ENDBRANCH  22  23
ENDBRANCH  21  22
ENDBRANCH  19  21
ENDBRANCH   5  19
TORSDOF 5
ENDMDL
MODEL 7
REMARK VINA RESULT:      -7.3      3.595      7.568
REMARK  Name = 
REMARK  8 active torsions:
REMARK  status: ('A' for Active; 'I' for Inactive)
REMARK    1  A    between atoms: C_1  and  C_2
REMARK    2  A    between atoms: N_5  and  C_6
REMARK    3  A    between atoms: C_6  and  C_7
REMARK    4  A    between atoms: C_6  and  C_8
REMARK    5  A    between atoms: C_8  and  C_9
REMARK    6  A    between atoms: C_9  and  C_10
REMARK    7  A    between atoms: C_22  and  C_23
REMARK    8  A    between atoms: C_24  and  N_25
REMARK                            x       y       z     vdW  Elec       q    Type
REMARK                         _______ _______ _______ _____ _____    ______ ____
ROOT
ATOM      1  C   UNL     1       5.256   6.549  15.643  0.00  0.00    +0.000 C 
ATOM      2  C   UNL     1       4.462   6.474  16.916  0.00  0.00    +0.000 A 
ATOM      3  N   UNL     1       3.863   7.627  17.299  0.00  0.00    +0.000 NA
ATOM      4  C   UNL     1       2.962   7.577  18.286  0.00  0.00    +0.000 A 
ATOM      5  N   UNL     1       2.358   8.751  18.625  0.00  0.00    +0.000 N 
ATOM      6  N   UNL     1       2.670   6.456  18.951  0.00  0.00    +0.000 NA
ATOM      7  C   UNL     1       3.386   5.335  18.683  0.00  0.00    +0.000 A 
ATOM      8  N   UNL     1       3.200   4.252  19.598  0.00  0.00    +0.000 N 
ATOM      9  C   UNL     1       4.116   3.287  19.960  0.00  0.00    +0.000 A 
ATOM     10  C   UNL     1       3.501   2.506  20.910  0.00  0.00    +0.000 A 
ATOM     11  N   UNL     1       2.250   2.966  21.171  0.00  0.00    +0.000 NA
ATOM     12  C   UNL     1       2.082   4.024  20.401  0.00  0.00    +0.000 A 
ATOM     13  C   UNL     1       0.827   4.822  20.351  0.00  0.00    +0.000 C 
ATOM     14  C   UNL     1       4.284   5.304  17.636  0.00  0.00    +0.000 A 
ATOM     15  H   UNL     1       2.940   9.570  18.532  0.00  0.00    +0.000 HD
ENDROOT
BRANCH  14  16
ATOM     16  N   UNL     1       4.893   4.093  17.166  0.00  0.00    +0.000 N 
ATOM     17  O   UNL     1       4.164   3.287  16.576  0.00  0.00    +0.000 OA
ATOM     18  O   UNL     1       6.099   3.945  17.392  0.00  0.00    +0.000 OA
ENDBRANCH  14  16
BRANCH   5  19
ATOM     19  C   UNL     1       1.040   8.828  19.218  0.00  0.00    +0.000 C 
ATOM     20  C   UNL     1       1.148   8.891  20.739  0.00  0.00    +0.000 C 
BRANCH  19  21
ATOM     21  C   UNL     1       0.321  10.088  18.691  0.00  0.00    +0.000 C 
BRANCH  21  22
ATOM     22  C   UNL     1      -1.117  10.212  19.211  0.00  0.00    +0.000 C 
BRANCH  22  23
ATOM     23  C   UNL     1      -2.114  10.462  18.102  0.00  0.00    +0.000 A 
ATOM     24  C   UNL     1      -1.947   9.851  16.855  0.00  0.00    +0.000 A 
ATOM     25  C   UNL     1      -2.882  10.061  15.831  0.00  0.00    +0.000 A 
ATOM     26  C   UNL     1      -3.975  10.893  16.047  0.00  0.00    +0.000 A 
ATOM     27  C   UNL     1      -4.144  11.513  17.284  0.00  0.00    +0.000 A 
ATOM     28  C   UNL     1      -3.215  11.303  18.306  0.00  0.00    +0.000 A 
ENDBRANCH  22  23
ENDBRANCH  21  22
ENDBRANCH  19  21
ENDBRANCH   5  19
TORSDOF 5
ENDMDL
MODEL 8
REMARK VINA RESULT:      -7.3      3.572      7.562
REMARK  Name = 
REMARK  8 active torsions:
REMARK  status: ('A' for Active; 'I' for Inactive)
REMARK    1  A    between atoms: C_1  and  C_2
REMARK    2  A    between atoms: N_5  and  C_6
REMARK    3  A    between atoms: C_6  and  C_7
REMARK    4  A    between atoms: C_6  and  C_8
REMARK    5  A    between atoms: C_8  and  C_9
REMARK    6  A    between atoms: C_9  and  C_10
REMARK    7  A    between atoms: C_22  and  C_23
REMARK    8  A    between atoms: C_24  and  N_25
REMARK                            x       y       z     vdW  Elec       q    Type
REMARK                         _______ _______ _______ _____ _____    ______ ____
ROOT
ATOM      1  C   UNL     1       5.244   6.425  15.676  0.00  0.00    +0.000 C 
ATOM      2  C   UNL     1       4.436   6.385  16.943  0.00  0.00    +0.000 A 
ATOM      3  N   UNL     1       3.848   7.553  17.296  0.00  0.00    +0.000 NA
ATOM      4  C   UNL     1       2.937   7.535  18.274  0.00  0.00    +0.000 A 
ATOM      5  N   UNL     1       2.345   8.723  18.583  0.00  0.00    +0.000 N 
ATOM      6  N   UNL     1       2.624   6.432  18.959  0.00  0.00    +0.000 NA
ATOM      7  C   UNL     1       3.329   5.296  18.721  0.00  0.00    +0.000 A 
ATOM      8  N   UNL     1       3.120   4.234  19.657  0.00  0.00    +0.000 N 
ATOM      9  C   UNL     1       4.021   3.266  20.048  0.00  0.00    +0.000 A 
ATOM     10  C   UNL     1       3.387   2.512  21.007  0.00  0.00    +0.000 A 
ATOM     11  N   UNL     1       2.139   2.993  21.246  0.00  0.00    +0.000 NA
ATOM     12  C   UNL     1       1.992   4.037  20.452  0.00  0.00    +0.000 A 
ATOM     13  C   UNL     1       0.748   4.850  20.374  0.00  0.00    +0.000 C 
ATOM     14  C   UNL     1       4.237   5.233  17.684  0.00  0.00    +0.000 A 
ATOM     15  H   UNL     1       2.938   9.532  18.479  0.00  0.00    +0.000 HD
ENDROOT
BRANCH  14  16
ATOM     16  N   UNL     1       4.835   4.005  17.246  0.00  0.00    +0.000 N 
ATOM     17  O   UNL     1       6.039   3.849  17.482  0.00  0.00    +0.000 OA
ATOM     18  O   UNL     1       4.103   3.199  16.661  0.00  0.00    +0.000 OA
ENDBRANCH  14  16
BRANCH   5  19
ATOM     19  C   UNL     1       1.022   8.828  19.161  0.00  0.00    +0.000 C 
ATOM     20  C   UNL     1       1.109   8.817  20.685  0.00  0.00    +0.000 C 
BRANCH  19  21
ATOM     21  C   UNL     1       0.364  10.140  18.683  0.00  0.00    +0.000 C 
BRANCH  21  22
ATOM     22  C   UNL     1      -1.065  10.314  19.212  0.00  0.00    +0.000 C 
BRANCH  22  23
ATOM     23  C   UNL     1      -2.077  10.489  18.101  0.00  0.00    +0.000 A 
ATOM     24  C   UNL     1      -3.208  11.287  18.299  0.00  0.00    +0.000 A 
ATOM     25  C   UNL     1      -4.137  11.471  17.265  0.00  0.00    +0.000 A 
ATOM     26  C   UNL     1      -3.944  10.845  16.038  0.00  0.00    +0.000 A 
ATOM     27  C   UNL     1      -2.825  10.040  15.836  0.00  0.00    +0.000 A 
ATOM     28  C   UNL     1      -1.897   9.858  16.864  0.00  0.00    +0.000 A 
ENDBRANCH  22  23
ENDBRANCH  21  22
ENDBRANCH  19  21
ENDBRANCH   5  19
TORSDOF 5
ENDMDL
MODEL 9
REMARK VINA RESULT:      -7.2      2.998      7.247
REMARK  Name = 
REMARK  8 active torsions:
REMARK  status: ('A' for Active; 'I' for Inactive)
REMARK    1  A    between atoms: C_1  and  C_2
REMARK    2  A    between atoms: N_5  and  C_6
REMARK    3  A    between atoms: C_6  and  C_7
REMARK    4  A    between atoms: C_6  and  C_8
REMARK    5  A    between atoms: C_8  and  C_9
REMARK    6  A    between atoms: C_9  and  C_10
REMARK    7  A    between atoms: C_22  and  C_23
REMARK    8  A    between atoms: C_24  and  N_25
REMARK                            x       y       z     vdW  Elec       q    Type
REMARK                         _______ _______ _______ _____ _____    ______ ____
ROOT
ATOM      1  C   UNL     1       2.124   3.487  21.631  0.00  0.00    +0.000 C 
ATOM      2  C   UNL     1       2.415   4.382  20.459  0.00  0.00    +0.000 A 
ATOM      3  N   UNL     1       1.762   5.569  20.455  0.00  0.00    +0.000 NA
ATOM      4  C   UNL     1       2.142   6.500  19.575  0.00  0.00    +0.000 A 
ATOM      5  N   UNL     1       1.483   7.691  19.619  0.00  0.00    +0.000 N 
ATOM      6  N   UNL     1       3.094   6.294  18.661  0.00  0.00    +0.000 NA
ATOM      7  C   UNL     1       3.636   5.053  18.553  0.00  0.00    +0.000 A 
ATOM      8  N   UNL     1       4.453   4.837  17.400  0.00  0.00    +0.000 N 
ATOM      9  C   UNL     1       4.645   3.657  16.712  0.00  0.00    +0.000 A 
ATOM     10  C   UNL     1       5.458   3.959  15.645  0.00  0.00    +0.000 A 
ATOM     11  N   UNL     1       5.754   5.284  15.628  0.00  0.00    +0.000 NA
ATOM     12  C   UNL     1       5.132   5.810  16.667  0.00  0.00    +0.000 A 
ATOM     13  C   UNL     1       5.213   7.248  17.040  0.00  0.00    +0.000 C 
ATOM     14  C   UNL     1       3.331   4.068  19.470  0.00  0.00    +0.000 A 
ATOM     15  H   UNL     1       0.510   7.628  19.878  0.00  0.00    +0.000 HD
ENDROOT
BRANCH  14  16
ATOM     16  N   UNL     1       4.041   2.823  19.540  0.00  0.00    +0.000 N 
ATOM     17  O   UNL     1       3.462   1.820  19.107  0.00  0.00    +0.000 OA
ATOM     18  O   UNL     1       5.174   2.848  20.033  0.00  0.00    +0.000 OA
ENDBRANCH  14  16
BRANCH   5  19
ATOM     19  C   UNL     1       2.067   8.943  19.187  0.00  0.00    +0.000 C 
ATOM     20  C   UNL     1       2.125   9.001  17.663  0.00  0.00    +0.000 C 
BRANCH  19  21
ATOM     21  C   UNL     1       1.214  10.112  19.724  0.00  0.00    +0.000 C 
BRANCH  21  22
ATOM     22  C   UNL     1      -0.239   9.708  20.001  0.00  0.00    +0.000 C 
BRANCH  22  23
ATOM     23  C   UNL     1      -1.201  10.273  18.980  0.00  0.00    +0.000 A 
ATOM     24  C   UNL     1      -2.015  11.363  19.307  0.00  0.00    +0.000 A 
ATOM     25  C   UNL     1      -2.892  11.905  18.357  0.00  0.00    +0.000 A 
ATOM     26  C   UNL     1      -2.968  11.350  17.085  0.00  0.00    +0.000 A 
ATOM     27  C   UNL     1      -2.167  10.258  16.752  0.00  0.00    +0.000 A 
ATOM     28  C   UNL     1      -1.292   9.719  17.697  0.00  0.00    +0.000 A 
ENDBRANCH  22  23
ENDBRANCH  21  22
ENDBRANCH  19  21
ENDBRANCH   5  19
TORSDOF 5
ENDMDL
