MODEL 1
REMARK VINA RESULT:      -7.6      0.000      0.000
REMARK  Name = 
REMARK  3 active torsions:
REMARK  status: ('A' for Active; 'I' for Inactive)
REMARK    1  A    between atoms: C_1  and  C_2
REMARK    2  A    between atoms: C_7  and  O_8
REMARK    3  A    between atoms: N_17  and  C_18
REMARK                            x       y       z     vdW  Elec       q    Type
REMARK                         _______ _______ _______ _____ _____    ______ ____
ROOT
ATOM      1  C   UNL     1       0.410  10.149  20.463  0.00  0.00    +0.000 C 
ATOM      2  C   UNL     1       1.246   9.182  19.660  0.00  0.00    +0.000 A 
ATOM      3  C   UNL     1       1.793   9.544  18.440  0.00  0.00    +0.000 A 
ATOM      4  C   UNL     1       2.547   8.617  17.722  0.00  0.00    +0.000 A 
ATOM      5  C   UNL     1       2.770   7.310  18.213  0.00  0.00    +0.000 A 
ATOM      6  C   UNL     1       2.239   6.903  19.457  0.00  0.00    +0.000 A 
ATOM      7  C   UNL     1       1.461   7.875  20.143  0.00  0.00    +0.000 A 
ATOM      8  C   UNL     1       2.476   5.500  19.922  0.00  0.00    +0.000 A 
ATOM      9  C   UNL     1       2.117   5.064  21.216  0.00  0.00    +0.000 A 
ATOM     10  C   UNL     1       2.141   3.723  21.591  0.00  0.00    +0.000 A 
ATOM     11  C   UNL     1       2.599   2.780  20.700  0.00  0.00    +0.000 A 
ATOM     12  C   UNL     1       3.061   3.164  19.437  0.00  0.00    +0.000 A 
ATOM     13  C   UNL     1       3.017   4.519  19.041  0.00  0.00    +0.000 A 
ATOM     14  C   UNL     1       3.367   4.875  17.600  0.00  0.00    +0.000 C 
ATOM     15  C   UNL     1       3.674   6.382  17.421  0.00  0.00    +0.000 C 
ATOM     16  N   UNL     1       4.320   3.960  16.927  0.00  0.00    +0.000 NA
ATOM     17  C   UNL     1       5.721   4.296  16.774  0.00  0.00    +0.000 C 
ATOM     18  C   UNL     1       4.100   2.535  17.159  0.00  0.00    +0.000 C 
ATOM     19  C   UNL     1       3.565   2.086  18.520  0.00  0.00    +0.000 C 
ENDROOT
BRANCH   7  20
ATOM     20  O   UNL     1       0.821   7.601  21.327  0.00  0.00    +0.000 OA
ATOM     21  H   UNL     1       0.718   6.634  21.337  0.00  0.00    +0.000 HD
ENDBRANCH   7  20
TORSDOF 1
ENDMDL
MODEL 2
REMARK VINA RESULT:      -7.4      2.405      5.179
REMARK  Name = 
REMARK  3 active torsions:
REMARK  status: ('A' for Active; 'I' for Inactive)
REMARK    1  A    between atoms: C_1  and  C_2
REMARK    2  A    between atoms: C_7  and  O_8
REMARK    3  A    between atoms: N_17  and  C_18
REMARK                            x       y       z     vdW  Elec       q    Type
REMARK                         _______ _______ _______ _____ _____    ______ ____
ROOT
ATOM      1  C   UNL     1       6.337   3.434  15.131  0.00  0.00    +0.000 C 
ATOM      2  C   UNL     1       5.554   4.560  15.761  0.00  0.00    +0.000 A 
ATOM      3  C   UNL     1       5.763   5.878  15.392  0.00  0.00    +0.000 A 
ATOM      4  C   UNL     1       5.029   6.891  16.010  0.00  0.00    +0.000 A 
ATOM      5  C   UNL     1       4.071   6.601  17.007  0.00  0.00    +0.000 A 
ATOM      6  C   UNL     1       3.819   5.270  17.407  0.00  0.00    +0.000 A 
ATOM      7  C   UNL     1       4.604   4.275  16.764  0.00  0.00    +0.000 A 
ATOM      8  C   UNL     1       2.817   5.015  18.489  0.00  0.00    +0.000 A 
ATOM      9  C   UNL     1       2.394   3.713  18.833  0.00  0.00    +0.000 A 
ATOM     10  C   UNL     1       1.625   3.446  19.964  0.00  0.00    +0.000 A 
ATOM     11  C   UNL     1       1.191   4.490  20.747  0.00  0.00    +0.000 A 
ATOM     12  C   UNL     1       1.494   5.811  20.401  0.00  0.00    +0.000 A 
ATOM     13  C   UNL     1       2.294   6.087  19.269  0.00  0.00    +0.000 A 
ATOM     14  C   UNL     1       2.745   7.522  19.022  0.00  0.00    +0.000 C 
ATOM     15  C   UNL     1       3.246   7.743  17.574  0.00  0.00    +0.000 C 
ATOM     16  N   UNL     1       1.841   8.577  19.538  0.00  0.00    +0.000 NA
ATOM     17  C   UNL     1       0.929   9.293  18.667  0.00  0.00    +0.000 C 
ATOM     18  C   UNL     1       1.287   8.340  20.868  0.00  0.00    +0.000 C 
ATOM     19  C   UNL     1       0.973   6.903  21.289  0.00  0.00    +0.000 C 
ENDROOT
BRANCH   7  20
ATOM     20  O   UNL     1       4.523   2.945  17.100  0.00  0.00    +0.000 OA
ATOM     21  H   UNL     1       5.015   2.869  17.936  0.00  0.00    +0.000 HD
ENDBRANCH   7  20
TORSDOF 1
ENDMDL
MODEL 3
REMARK VINA RESULT:      -7.3      2.966      6.876
REMARK  Name = 
REMARK  3 active torsions:
REMARK  status: ('A' for Active; 'I' for Inactive)
REMARK    1  A    between atoms: C_1  and  C_2
REMARK    2  A    between atoms: C_7  and  O_8
REMARK    3  A    between atoms: N_17  and  C_18
REMARK                            x       y       z     vdW  Elec       q    Type
REMARK                         _______ _______ _______ _____ _____    ______ ____
ROOT
ATOM      1  C   UNL     1       3.334   5.289  19.376  0.00  0.00    +0.000 C 
ATOM      2  C   UNL     1       2.764   6.658  19.098  0.00  0.00    +0.000 A 
ATOM      3  C   UNL     1       3.024   7.319  17.909  0.00  0.00    +0.000 A 
ATOM      4  C   UNL     1       2.490   8.590  17.697  0.00  0.00    +0.000 A 
ATOM      5  C   UNL     1       1.684   9.222  18.670  0.00  0.00    +0.000 A 
ATOM      6  C   UNL     1       1.385   8.579  19.892  0.00  0.00    +0.000 A 
ATOM      7  C   UNL     1       1.967   7.295  20.072  0.00  0.00    +0.000 A 
ATOM      8  C   UNL     1       0.552   9.300  20.906  0.00  0.00    +0.000 A 
ATOM      9  C   UNL     1       0.079   8.671  22.078  0.00  0.00    +0.000 A 
ATOM     10  C   UNL     1      -0.517   9.376  23.121  0.00  0.00    +0.000 A 
ATOM     11  C   UNL     1      -0.727  10.729  22.989  0.00  0.00    +0.000 A 
ATOM     12  C   UNL     1      -0.370  11.390  21.809  0.00  0.00    +0.000 A 
ATOM     13  C   UNL     1       0.257  10.687  20.758  0.00  0.00    +0.000 A 
ATOM     14  C   UNL     1       0.786  11.471  19.562  0.00  0.00    +0.000 C 
ATOM     15  C   UNL     1       1.063  10.567  18.337  0.00  0.00    +0.000 C 
ATOM     16  N   UNL     1       0.071  12.734  19.257  0.00  0.00    +0.000 NA
ATOM     17  C   UNL     1      -0.903  12.819  18.187  0.00  0.00    +0.000 C 
ATOM     18  C   UNL     1      -0.279  13.557  20.411  0.00  0.00    +0.000 C 
ATOM     19  C   UNL     1      -0.645  12.864  21.724  0.00  0.00    +0.000 C 
ENDROOT
BRANCH   7  20
ATOM     20  O   UNL     1       1.827   6.581  21.237  0.00  0.00    +0.000 OA
ATOM     21  H   UNL     1       2.556   5.937  21.225  0.00  0.00    +0.000 HD
ENDBRANCH   7  20
TORSDOF 1
ENDMDL
MODEL 4
REMARK VINA RESULT:      -7.2      0.884      1.005
REMARK  Name = 
REMARK  3 active torsions:
REMARK  status: ('A' for Active; 'I' for Inactive)
REMARK    1  A    between atoms: C_1  and  C_2
REMARK    2  A    between atoms: C_7  and  O_8
REMARK    3  A    between atoms: N_17  and  C_18
REMARK                            x       y       z     vdW  Elec       q    Type
REMARK                         _______ _______ _______ _____ _____    ______ ____
ROOT
ATOM      1  C   UNL     1      -0.417  10.124  21.163  0.00  0.00    +0.000 C 
ATOM      2  C   UNL     1       0.575   9.458  20.242  0.00  0.00    +0.000 A 
ATOM      3  C   UNL     1       1.088  10.117  19.136  0.00  0.00    +0.000 A 
ATOM      4  C   UNL     1       1.992   9.461  18.301  0.00  0.00    +0.000 A 
ATOM      5  C   UNL     1       2.402   8.133  18.559  0.00  0.00    +0.000 A 
ATOM      6  C   UNL     1       1.912   7.427  19.681  0.00  0.00    +0.000 A 
ATOM      7  C   UNL     1       0.979   8.130  20.491  0.00  0.00    +0.000 A 
ATOM      8  C   UNL     1       2.351   6.013  19.896  0.00  0.00    +0.000 A 
ATOM      9  C   UNL     1       2.035   5.296  21.070  0.00  0.00    +0.000 A 
ATOM     10  C   UNL     1       2.257   3.927  21.198  0.00  0.00    +0.000 A 
ATOM     11  C   UNL     1       2.874   3.244  20.175  0.00  0.00    +0.000 A 
ATOM     12  C   UNL     1       3.300   3.920  19.027  0.00  0.00    +0.000 A 
ATOM     13  C   UNL     1       3.057   5.304  18.881  0.00  0.00    +0.000 A 
ATOM     14  C   UNL     1       3.381   5.969  17.548  0.00  0.00    +0.000 C 
ATOM     15  C   UNL     1       3.455   7.511  17.660  0.00  0.00    +0.000 C 
ATOM     16  N   UNL     1       4.477   5.346  16.769  0.00  0.00    +0.000 NA
ATOM     17  C   UNL     1       5.813   5.907  16.751  0.00  0.00    +0.000 C 
ATOM     18  C   UNL     1       4.474   3.886  16.729  0.00  0.00    +0.000 C 
ATOM     19  C   UNL     1       3.984   3.118  17.958  0.00  0.00    +0.000 C 
ENDROOT
BRANCH   7  20
ATOM     20  O   UNL     1       0.362   7.549  21.572  0.00  0.00    +0.000 OA
ATOM     21  H   UNL     1       0.570   8.134  22.322  0.00  0.00    +0.000 HD
ENDBRANCH   7  20
TORSDOF 1
ENDMDL
MODEL 5
REMARK VINA RESULT:      -7.0      1.780      3.409
REMARK  Name = 
REMARK  3 active torsions:
REMARK  status: ('A' for Active; 'I' for Inactive)
REMARK    1  A    between atoms: C_1  and  C_2
REMARK    2  A    between atoms: C_7  and  O_8
REMARK    3  A    between atoms: N_17  and  C_18
REMARK                            x       y       z     vdW  Elec       q    Type
REMARK                         _______ _______ _______ _____ _____    ______ ____
ROOT
ATOM      1  C   UNL     1       1.444  10.927  18.593  0.00  0.00    +0.000 C 
ATOM      2  C   UNL     1       1.462   9.554  19.218  0.00  0.00    +0.000 A 
ATOM      3  C   UNL     1       0.792   9.292  20.401  0.00  0.00    +0.000 A 
ATOM      4  C   UNL     1       0.846   8.012  20.954  0.00  0.00    +0.000 A 
ATOM      5  C   UNL     1       1.570   6.971  20.331  0.00  0.00    +0.000 A 
ATOM      6  C   UNL     1       2.259   7.192  19.118  0.00  0.00    +0.000 A 
ATOM      7  C   UNL     1       2.192   8.515  18.603  0.00  0.00    +0.000 A 
ATOM      8  C   UNL     1       3.038   6.067  18.511  0.00  0.00    +0.000 A 
ATOM      9  C   UNL     1       3.620   6.159  17.228  0.00  0.00    +0.000 A 
ATOM     10  C   UNL     1       4.512   5.208  16.737  0.00  0.00    +0.000 A 
ATOM     11  C   UNL     1       4.792   4.092  17.491  0.00  0.00    +0.000 A 
ATOM     12  C   UNL     1       4.169   3.897  18.727  0.00  0.00    +0.000 A 
ATOM     13  C   UNL     1       3.282   4.868  19.242  0.00  0.00    +0.000 A 
ATOM     14  C   UNL     1       2.757   4.703  20.664  0.00  0.00    +0.000 C 
ATOM     15  C   UNL     1       1.513   5.582  20.940  0.00  0.00    +0.000 C 
ATOM     16  N   UNL     1       2.657   3.307  21.153  0.00  0.00    +0.000 NA
ATOM     17  C   UNL     1       1.392   2.601  21.188  0.00  0.00    +0.000 C 
ATOM     18  C   UNL     1       3.783   2.439  20.822  0.00  0.00    +0.000 C 
ATOM     19  C   UNL     1       4.505   2.647  19.489  0.00  0.00    +0.000 C 
ENDROOT
BRANCH   7  20
ATOM     20  O   UNL     1       2.872   8.899  17.472  0.00  0.00    +0.000 OA
ATOM     21  H   UNL     1       2.855   9.872  17.490  0.00  0.00    +0.000 HD
ENDBRANCH   7  20
TORSDOF 1
ENDMDL
MODEL 6
REMARK VINA RESULT:      -6.9      9.611     11.081
REMARK  Name = 
REMARK  3 active torsions:
REMARK  status: ('A' for Active; 'I' for Inactive)
REMARK    1  A    between atoms: C_1  and  C_2
REMARK    2  A    between atoms: C_7  and  O_8
REMARK    3  A    between atoms: N_17  and  C_18
REMARK                            x       y       z     vdW  Elec       q    Type
REMARK                         _______ _______ _______ _____ _____    ______ ____
ROOT
ATOM      1  C   UNL     1       7.618  12.422  25.542  0.00  0.00    +0.000 C 
ATOM      2  C   UNL     1       8.321  13.152  24.424  0.00  0.00    +0.000 A 
ATOM      3  C   UNL     1       8.659  14.490  24.537  0.00  0.00    +0.000 A 
ATOM      4  C   UNL     1       9.295  15.132  23.474  0.00  0.00    +0.000 A 
ATOM      5  C   UNL     1       9.607  14.444  22.280  0.00  0.00    +0.000 A 
ATOM      6  C   UNL     1       9.290  13.077  22.126  0.00  0.00    +0.000 A 
ATOM      7  C   UNL     1       8.625  12.471  23.227  0.00  0.00    +0.000 A 
ATOM      8  C   UNL     1       9.612  12.399  20.831  0.00  0.00    +0.000 A 
ATOM      9  C   UNL     1       9.474  11.005  20.655  0.00  0.00    +0.000 A 
ATOM     10  C   UNL     1       9.571  10.391  19.409  0.00  0.00    +0.000 A 
ATOM     11  C   UNL     1       9.887  11.149  18.305  0.00  0.00    +0.000 A 
ATOM     12  C   UNL     1      10.133  12.520  18.433  0.00  0.00    +0.000 A 
ATOM     13  C   UNL     1      10.012  13.153  19.690  0.00  0.00    +0.000 A 
ATOM     14  C   UNL     1      10.120  14.672  19.760  0.00  0.00    +0.000 C 
ATOM     15  C   UNL     1      10.378  15.181  21.199  0.00  0.00    +0.000 C 
ATOM     16  N   UNL     1      10.958  15.305  18.714  0.00  0.00    +0.000 NA
ATOM     17  C   UNL     1      12.313  15.744  18.985  0.00  0.00    +0.000 C 
ATOM     18  C   UNL     1      10.792  14.775  17.364  0.00  0.00    +0.000 C 
ATOM     19  C   UNL     1      10.491  13.284  17.192  0.00  0.00    +0.000 C 
ENDROOT
BRANCH   7  20
ATOM     20  O   UNL     1       8.189  11.168  23.195  0.00  0.00    +0.000 OA
ATOM     21  H   UNL     1       9.001  10.633  23.226  0.00  0.00    +0.000 HD
ENDBRANCH   7  20
TORSDOF 1
ENDMDL
MODEL 7
REMARK VINA RESULT:      -6.4      2.382      5.563
REMARK  Name = 
REMARK  3 active torsions:
REMARK  status: ('A' for Active; 'I' for Inactive)
REMARK    1  A    between atoms: C_1  and  C_2
REMARK    2  A    between atoms: C_7  and  O_8
REMARK    3  A    between atoms: N_17  and  C_18
REMARK                            x       y       z     vdW  Elec       q    Type
REMARK                         _______ _______ _______ _____ _____    ______ ____
ROOT
ATOM      1  C   UNL     1       6.844   5.455  13.499  0.00  0.00    +0.000 C 
ATOM      2  C   UNL     1       6.157   4.837  14.692  0.00  0.00    +0.000 A 
ATOM      3  C   UNL     1       6.247   3.479  14.951  0.00  0.00    +0.000 A 
ATOM      4  C   UNL     1       5.584   2.944  16.056  0.00  0.00    +0.000 A 
ATOM      5  C   UNL     1       4.822   3.759  16.923  0.00  0.00    +0.000 A 
ATOM      6  C   UNL     1       4.713   5.150  16.702  0.00  0.00    +0.000 A 
ATOM      7  C   UNL     1       5.388   5.646  15.553  0.00  0.00    +0.000 A 
ATOM      8  C   UNL     1       3.870   5.967  17.629  0.00  0.00    +0.000 A 
ATOM      9  C   UNL     1       3.836   7.378  17.572  0.00  0.00    +0.000 A 
ATOM     10  C   UNL     1       2.911   8.137  18.284  0.00  0.00    +0.000 A 
ATOM     11  C   UNL     1       2.034   7.508  19.137  0.00  0.00    +0.000 A 
ATOM     12  C   UNL     1       2.085   6.121  19.311  0.00  0.00    +0.000 A 
ATOM     13  C   UNL     1       3.005   5.343  18.574  0.00  0.00    +0.000 A 
ATOM     14  C   UNL     1       2.916   3.823  18.662  0.00  0.00    +0.000 C 
ATOM     15  C   UNL     1       4.201   3.125  18.155  0.00  0.00    +0.000 C 
ATOM     16  N   UNL     1       2.372   3.285  19.931  0.00  0.00    +0.000 NA
ATOM     17  C   UNL     1       3.236   2.746  20.963  0.00  0.00    +0.000 C 
ATOM     18  C   UNL     1       1.213   3.988  20.472  0.00  0.00    +0.000 C 
ATOM     19  C   UNL     1       1.112   5.501  20.272  0.00  0.00    +0.000 C 
ENDROOT
BRANCH   7  20
ATOM     20  O   UNL     1       5.313   6.963  15.169  0.00  0.00    +0.000 OA
ATOM     21  H   UNL     1       5.932   7.040  14.422  0.00  0.00    +0.000 HD
ENDBRANCH   7  20
TORSDOF 1
ENDMDL
MODEL 8
REMARK VINA RESULT:      -6.4      9.998     11.651
REMARK  Name = 
REMARK  3 active torsions:
REMARK  status: ('A' for Active; 'I' for Inactive)
REMARK    1  A    between atoms: C_1  and  C_2
REMARK    2  A    between atoms: C_7  and  O_8
REMARK    3  A    between atoms: N_17  and  C_18
REMARK                            x       y       z     vdW  Elec       q    Type
REMARK                         _______ _______ _______ _____ _____    ______ ____
ROOT
ATOM      1  C   UNL     1       7.693  11.884  24.523  0.00  0.00    +0.000 C 
ATOM      2  C   UNL     1       8.357  12.873  23.598  0.00  0.00    +0.000 A 
ATOM      3  C   UNL     1       8.415  14.223  23.906  0.00  0.00    +0.000 A 
ATOM      4  C   UNL     1       9.026  15.107  23.016  0.00  0.00    +0.000 A 
ATOM      5  C   UNL     1       9.592  14.656  21.802  0.00  0.00    +0.000 A 
ATOM      6  C   UNL     1       9.564  13.287  21.453  0.00  0.00    +0.000 A 
ATOM      7  C   UNL     1       8.915  12.428  22.381  0.00  0.00    +0.000 A 
ATOM      8  C   UNL     1      10.149  12.861  20.143  0.00  0.00    +0.000 A 
ATOM      9  C   UNL     1      10.303  11.502  19.793  0.00  0.00    +0.000 A 
ATOM     10  C   UNL     1      10.651  11.092  18.508  0.00  0.00    +0.000 A 
ATOM     11  C   UNL     1      10.931  12.038  17.549  0.00  0.00    +0.000 A 
ATOM     12  C   UNL     1      10.892  13.400  17.864  0.00  0.00    +0.000 A 
ATOM     13  C   UNL     1      10.516  13.824  19.158  0.00  0.00    +0.000 A 
ATOM     14  C   UNL     1      10.319  15.313  19.414  0.00  0.00    +0.000 C 
ATOM     15  C   UNL     1      10.318  15.659  20.924  0.00  0.00    +0.000 C 
ATOM     16  N   UNL     1      11.127  16.223  18.567  0.00  0.00    +0.000 NA
ATOM     17  C   UNL     1      12.333  16.855  19.062  0.00  0.00    +0.000 C 
ATOM     18  C   UNL     1      11.213  15.861  17.155  0.00  0.00    +0.000 C 
ATOM     19  C   UNL     1      11.227  14.378  16.776  0.00  0.00    +0.000 C 
ENDROOT
BRANCH   7  20
ATOM     20  O   UNL     1       8.745  11.085  22.144  0.00  0.00    +0.000 OA
ATOM     21  H   UNL     1       9.488  10.655  22.603  0.00  0.00    +0.000 HD
ENDBRANCH   7  20
TORSDOF 1
ENDMDL
MODEL 9
REMARK VINA RESULT:      -6.3      6.652      9.276
REMARK  Name = 
REMARK  3 active torsions:
REMARK  status: ('A' for Active; 'I' for Inactive)
REMARK    1  A    between atoms: C_1  and  C_2
REMARK    2  A    between atoms: C_7  and  O_8
REMARK    3  A    between atoms: N_17  and  C_18
REMARK                            x       y       z     vdW  Elec       q    Type
REMARK                         _______ _______ _______ _____ _____    ______ ____
ROOT
ATOM      1  C   UNL     1      -3.051   9.950  14.756  0.00  0.00    +0.000 C 
ATOM      2  C   UNL     1      -3.350  10.605  16.081  0.00  0.00    +0.000 A 
ATOM      3  C   UNL     1      -4.549  11.262  16.307  0.00  0.00    +0.000 A 
ATOM      4  C   UNL     1      -4.780  11.868  17.542  0.00  0.00    +0.000 A 
ATOM      5  C   UNL     1      -3.817  11.825  18.575  0.00  0.00    +0.000 A 
ATOM      6  C   UNL     1      -2.585  11.158  18.391  0.00  0.00    +0.000 A 
ATOM      7  C   UNL     1      -2.387  10.573  17.111  0.00  0.00    +0.000 A 
ATOM      8  C   UNL     1      -1.583  11.165  19.503  0.00  0.00    +0.000 A 
ATOM      9  C   UNL     1      -0.402  10.393  19.459  0.00  0.00    +0.000 A 
ATOM     10  C   UNL     1       0.630  10.544  20.382  0.00  0.00    +0.000 A 
ATOM     11  C   UNL     1       0.477  11.425  21.428  0.00  0.00    +0.000 A 
ATOM     12  C   UNL     1      -0.712  12.146  21.580  0.00  0.00    +0.000 A 
ATOM     13  C   UNL     1      -1.752  12.016  20.634  0.00  0.00    +0.000 A 
ATOM     14  C   UNL     1      -2.959  12.942  20.738  0.00  0.00    +0.000 C 
ATOM     15  C   UNL     1      -4.170  12.428  19.922  0.00  0.00    +0.000 C 
ATOM     16  N   UNL     1      -3.284  13.421  22.103  0.00  0.00    +0.000 NA
ATOM     17  C   UNL     1      -4.355  12.835  22.882  0.00  0.00    +0.000 C 
ATOM     18  C   UNL     1      -2.142  13.825  22.919  0.00  0.00    +0.000 C 
ATOM     19  C   UNL     1      -0.819  13.076  22.754  0.00  0.00    +0.000 C 
ENDROOT
BRANCH   7  20
ATOM     20  O   UNL     1      -1.211   9.954  16.760  0.00  0.00    +0.000 OA
ATOM     21  H   UNL     1      -0.515  10.475  17.198  0.00  0.00    +0.000 HD
ENDBRANCH   7  20
TORSDOF 1
ENDMDL
