MODEL 1
REMARK VINA RESULT:      -9.5      0.000      0.000
REMARK  Name = 
REMARK  4 active torsions:
REMARK  status: ('A' for Active; 'I' for Inactive)
REMARK    1  A    between atoms: C_1  and  C_2
REMARK    2  A    between atoms: C_4  and  N_5
REMARK    3  A    between atoms: C_8  and  C_9
REMARK    4  A    between atoms: C_10  and  C_11
REMARK                            x       y       z     vdW  Elec       q    Type
REMARK                         _______ _______ _______ _____ _____    ______ ____
ROOT
ATOM      1  N   UNL     1       2.869   6.513  19.142  0.00  0.00    +0.000 N 
ATOM      2  C   UNL     1       2.763   5.537  20.129  0.00  0.00    +0.000 A 
ATOM      3  C   UNL     1       3.058   4.253  19.865  0.00  0.00    +0.000 A 
ATOM      4  C   UNL     1       3.856   3.913  18.713  0.00  0.00    +0.000 A 
ATOM      5  C   UNL     1       4.582   2.592  18.685  0.00  0.00    +0.000 C 
ATOM      6  C   UNL     1       4.032   4.841  17.761  0.00  0.00    +0.000 A 
ATOM      7  C   UNL     1       3.431   6.215  17.895  0.00  0.00    +0.000 A 
ATOM      8  O   UNL     1       3.520   7.009  16.958  0.00  0.00    +0.000 OA
ENDROOT
BRANCH   6   9
ATOM      9  C   UNL     1       5.004   4.621  16.709  0.00  0.00    +0.000 A 
ATOM     10  C   UNL     1       6.165   5.348  16.897  0.00  0.00    +0.000 A 
ATOM     11  C   UNL     1       7.143   5.142  16.009  0.00  0.00    +0.000 A 
ATOM     12  C   UNL     1       6.778   4.641  14.814  0.00  0.00    +0.000 A 
ATOM     13  N   UNL     1       7.501   5.349  14.044  0.00  0.00    +0.000 NA
ATOM     14  C   UNL     1       8.021   5.115  12.885  0.00  0.00    +0.000 A 
ATOM     15  N   UNL     1       8.880   6.029  13.428  0.00  0.00    +0.000 N 
ATOM     16  N   UNL     1       7.172   4.233  12.386  0.00  0.00    +0.000 NA
ATOM     17  C   UNL     1       6.018   3.675  13.066  0.00  0.00    +0.000 A 
ATOM     18  C   UNL     1       5.725   3.920  14.437  0.00  0.00    +0.000 A 
ATOM     19  C   UNL     1       4.824   3.761  15.576  0.00  0.00    +0.000 A 
ATOM     20  H   UNL     1       8.450   6.349  14.302  0.00  0.00    +0.000 HD
ATOM     21  H   UNL     1       9.754   6.487  13.324  0.00  0.00    +0.000 HD
ENDBRANCH   6   9
BRANCH   1  25
ATOM     22  C   UNL     1       0.135   9.704  21.851  0.00  0.00    +0.000 C 
ATOM     23  C   UNL     1       0.812   9.308  20.574  0.00  0.00    +0.000 A 
ATOM     24  C   UNL     1       1.530   8.108  20.459  0.00  0.00    +0.000 A 
ATOM     25  C   UNL     1       2.188   7.764  19.258  0.00  0.00    +0.000 A 
ATOM     26  C   UNL     1       2.131   8.637  18.173  0.00  0.00    +0.000 A 
ATOM     27  C   UNL     1       1.385   9.815  18.270  0.00  0.00    +0.000 A 
ATOM     28  C   UNL     1       0.741  10.143  19.461  0.00  0.00    +0.000 A 
ATOM     29  F   UNL     1       0.050  11.291  19.529  0.00  0.00    +0.000 F 
ENDBRANCH   1  25
TORSDOF 2
ENDMDL
MODEL 2
REMARK VINA RESULT:      -8.9      1.701      2.815
REMARK  Name = 
REMARK  4 active torsions:
REMARK  status: ('A' for Active; 'I' for Inactive)
REMARK    1  A    between atoms: C_1  and  C_2
REMARK    2  A    between atoms: C_4  and  N_5
REMARK    3  A    between atoms: C_8  and  C_9
REMARK    4  A    between atoms: C_10  and  C_11
REMARK                            x       y       z     vdW  Elec       q    Type
REMARK                         _______ _______ _______ _____ _____    ______ ____
ROOT
ATOM      1  N   UNL     1       1.599   8.830  19.361  0.00  0.00    +0.000 N 
ATOM      2  C   UNL     1       1.286   8.274  20.599  0.00  0.00    +0.000 A 
ATOM      3  C   UNL     1       1.447   6.960  20.826  0.00  0.00    +0.000 A 
ATOM      4  C   UNL     1       2.301   6.173  19.970  0.00  0.00    +0.000 A 
ATOM      5  C   UNL     1       2.861   4.872  20.484  0.00  0.00    +0.000 C 
ATOM      6  C   UNL     1       2.673   6.692  18.790  0.00  0.00    +0.000 A 
ATOM      7  C   UNL     1       2.233   8.069  18.372  0.00  0.00    +0.000 A 
ATOM      8  O   UNL     1       2.503   8.474  17.240  0.00  0.00    +0.000 OA
ENDROOT
BRANCH   6   9
ATOM      9  C   UNL     1       3.704   6.038  18.009  0.00  0.00    +0.000 A 
ATOM     10  C   UNL     1       4.864   6.786  17.926  0.00  0.00    +0.000 A 
ATOM     11  C   UNL     1       5.891   6.219  17.285  0.00  0.00    +0.000 A 
ATOM     12  C   UNL     1       5.591   5.235  16.417  0.00  0.00    +0.000 A 
ATOM     13  N   UNL     1       6.373   5.535  15.459  0.00  0.00    +0.000 NA
ATOM     14  C   UNL     1       6.958   4.817  14.561  0.00  0.00    +0.000 A 
ATOM     15  N   UNL     1       7.799   5.887  14.694  0.00  0.00    +0.000 N 
ATOM     16  N   UNL     1       6.127   3.795  14.452  0.00  0.00    +0.000 NA
ATOM     17  C   UNL     1       4.923   3.584  15.236  0.00  0.00    +0.000 A 
ATOM     18  C   UNL     1       4.551   4.409  16.335  0.00  0.00    +0.000 A 
ATOM     19  C   UNL     1       3.580   4.762  17.367  0.00  0.00    +0.000 A 
ATOM     20  H   UNL     1       7.321   6.557  15.305  0.00  0.00    +0.000 HD
ATOM     21  H   UNL     1       8.685   6.261  14.451  0.00  0.00    +0.000 HD
ENDBRANCH   6   9
BRANCH   1  25
ATOM     22  C   UNL     1       2.274  13.686  18.383  0.00  0.00    +0.000 C 
ATOM     23  C   UNL     1       1.392  12.484  18.520  0.00  0.00    +0.000 A 
ATOM     24  C   UNL     1       1.907  11.224  18.863  0.00  0.00    +0.000 A 
ATOM     25  C   UNL     1       1.066  10.093  18.958  0.00  0.00    +0.000 A 
ATOM     26  C   UNL     1      -0.296  10.231  18.697  0.00  0.00    +0.000 A 
ATOM     27  C   UNL     1      -0.820  11.490  18.393  0.00  0.00    +0.000 A 
ATOM     28  C   UNL     1       0.020  12.597  18.302  0.00  0.00    +0.000 A 
ATOM     29  F   UNL     1      -0.510  13.789  17.988  0.00  0.00    +0.000 F 
ENDBRANCH   1  25
TORSDOF 2
ENDMDL
MODEL 3
REMARK VINA RESULT:      -8.7      3.949      5.246
REMARK  Name = 
REMARK  4 active torsions:
REMARK  status: ('A' for Active; 'I' for Inactive)
REMARK    1  A    between atoms: C_1  and  C_2
REMARK    2  A    between atoms: C_4  and  N_5
REMARK    3  A    between atoms: C_8  and  C_9
REMARK    4  A    between atoms: C_10  and  C_11
REMARK                            x       y       z     vdW  Elec       q    Type
REMARK                         _______ _______ _______ _____ _____    ______ ____
ROOT
ATOM      1  N   UNL     1       0.783   9.423  19.787  0.00  0.00    +0.000 N 
ATOM      2  C   UNL     1       1.260  10.088  18.661  0.00  0.00    +0.000 A 
ATOM      3  C   UNL     1       2.298   9.603  17.959  0.00  0.00    +0.000 A 
ATOM      4  C   UNL     1       2.683   8.219  18.095  0.00  0.00    +0.000 A 
ATOM      5  C   UNL     1       3.482   7.567  16.995  0.00  0.00    +0.000 C 
ATOM      6  C   UNL     1       2.203   7.522  19.135  0.00  0.00    +0.000 A 
ATOM      7  C   UNL     1       1.268   8.155  20.130  0.00  0.00    +0.000 A 
ATOM      8  O   UNL     1       0.929   7.522  21.131  0.00  0.00    +0.000 OA
ENDROOT
BRANCH   6   9
ATOM      9  C   UNL     1       2.378   6.084  19.182  0.00  0.00    +0.000 A 
ATOM     10  C   UNL     1       3.220   5.685  20.204  0.00  0.00    +0.000 A 
ATOM     11  C   UNL     1       3.375   4.367  20.363  0.00  0.00    +0.000 A 
ATOM     12  C   UNL     1       3.101   3.593  19.296  0.00  0.00    +0.000 A 
ATOM     13  N   UNL     1       4.068   2.769  19.362  0.00  0.00    +0.000 NA
ATOM     14  C   UNL     1       4.183   1.537  18.996  0.00  0.00    +0.000 A 
ATOM     15  N   UNL     1       5.078   1.637  20.025  0.00  0.00    +0.000 N 
ATOM     16  N   UNL     1       3.311   1.470  18.005  0.00  0.00    +0.000 NA
ATOM     17  C   UNL     1       2.440   2.542  17.558  0.00  0.00    +0.000 A 
ATOM     18  C   UNL     1       2.324   3.789  18.233  0.00  0.00    +0.000 A 
ATOM     19  C   UNL     1       1.775   5.141  18.287  0.00  0.00    +0.000 A 
ATOM     20  H   UNL     1       5.123   2.630  20.275  0.00  0.00    +0.000 HD
ATOM     21  H   UNL     1       5.680   1.133  20.632  0.00  0.00    +0.000 HD
ENDBRANCH   6   9
BRANCH   1  25
ATOM     22  C   UNL     1      -2.337  13.134  21.007  0.00  0.00    +0.000 C 
ATOM     23  C   UNL     1      -1.507  11.941  21.372  0.00  0.00    +0.000 A 
ATOM     24  C   UNL     1      -0.764  11.237  20.413  0.00  0.00    +0.000 A 
ATOM     25  C   UNL     1      -0.010  10.095  20.766  0.00  0.00    +0.000 A 
ATOM     26  C   UNL     1      -0.015   9.657  22.090  0.00  0.00    +0.000 A 
ATOM     27  C   UNL     1      -0.722  10.377  23.056  0.00  0.00    +0.000 A 
ATOM     28  C   UNL     1      -1.461  11.501  22.693  0.00  0.00    +0.000 A 
ATOM     29  F   UNL     1      -2.146  12.160  23.640  0.00  0.00    +0.000 F 
ENDBRANCH   1  25
TORSDOF 2
ENDMDL
MODEL 4
REMARK VINA RESULT:      -8.7      1.685      2.769
REMARK  Name = 
REMARK  4 active torsions:
REMARK  status: ('A' for Active; 'I' for Inactive)
REMARK    1  A    between atoms: C_1  and  C_2
REMARK    2  A    between atoms: C_4  and  N_5
REMARK    3  A    between atoms: C_8  and  C_9
REMARK    4  A    between atoms: C_10  and  C_11
REMARK                            x       y       z     vdW  Elec       q    Type
REMARK                         _______ _______ _______ _____ _____    ______ ____
ROOT
ATOM      1  N   UNL     1       1.508   8.777  19.499  0.00  0.00    +0.000 N 
ATOM      2  C   UNL     1       1.196   8.201  20.728  0.00  0.00    +0.000 A 
ATOM      3  C   UNL     1       1.364   6.885  20.937  0.00  0.00    +0.000 A 
ATOM      4  C   UNL     1       2.224   6.116  20.071  0.00  0.00    +0.000 A 
ATOM      5  C   UNL     1       2.791   4.810  20.568  0.00  0.00    +0.000 C 
ATOM      6  C   UNL     1       2.596   6.653  18.900  0.00  0.00    +0.000 A 
ATOM      7  C   UNL     1       2.148   8.033  18.501  0.00  0.00    +0.000 A 
ATOM      8  O   UNL     1       2.418   8.456  17.376  0.00  0.00    +0.000 OA
ENDROOT
BRANCH   6   9
ATOM      9  C   UNL     1       3.632   6.017  18.111  0.00  0.00    +0.000 A 
ATOM     10  C   UNL     1       4.796   6.762  18.061  0.00  0.00    +0.000 A 
ATOM     11  C   UNL     1       5.827   6.209  17.415  0.00  0.00    +0.000 A 
ATOM     12  C   UNL     1       5.532   5.250  16.517  0.00  0.00    +0.000 A 
ATOM     13  N   UNL     1       6.325   5.573  15.576  0.00  0.00    +0.000 NA
ATOM     14  C   UNL     1       6.917   4.878  14.664  0.00  0.00    +0.000 A 
ATOM     15  N   UNL     1       7.760   5.940  14.836  0.00  0.00    +0.000 N 
ATOM     16  N   UNL     1       6.082   3.863  14.519  0.00  0.00    +0.000 NA
ATOM     17  C   UNL     1       4.870   3.636  15.284  0.00  0.00    +0.000 A 
ATOM     18  C   UNL     1       4.489   4.431  16.401  0.00  0.00    +0.000 A 
ATOM     19  C   UNL     1       3.509   4.760  17.432  0.00  0.00    +0.000 A 
ATOM     20  H   UNL     1       7.279   6.595  15.460  0.00  0.00    +0.000 HD
ATOM     21  H   UNL     1       8.650   6.317  14.613  0.00  0.00    +0.000 HD
ENDBRANCH   6   9
BRANCH   1  25
ATOM     22  C   UNL     1      -2.340  11.503  17.839  0.00  0.00    +0.000 C 
ATOM     23  C   UNL     1      -0.908  11.370  18.259  0.00  0.00    +0.000 A 
ATOM     24  C   UNL     1      -0.376  10.146  18.691  0.00  0.00    +0.000 A 
ATOM     25  C   UNL     1       0.968  10.042  19.114  0.00  0.00    +0.000 A 
ATOM     26  C   UNL     1       1.775  11.179  19.109  0.00  0.00    +0.000 A 
ATOM     27  C   UNL     1       1.261  12.392  18.643  0.00  0.00    +0.000 A 
ATOM     28  C   UNL     1      -0.066  12.480  18.230  0.00  0.00    +0.000 A 
ATOM     29  F   UNL     1      -0.536  13.663  17.807  0.00  0.00    +0.000 F 
ENDBRANCH   1  25
TORSDOF 2
ENDMDL
MODEL 5
REMARK VINA RESULT:      -8.7      3.162      8.011
REMARK  Name = 
REMARK  4 active torsions:
REMARK  status: ('A' for Active; 'I' for Inactive)
REMARK    1  A    between atoms: C_1  and  C_2
REMARK    2  A    between atoms: C_4  and  N_5
REMARK    3  A    between atoms: C_8  and  C_9
REMARK    4  A    between atoms: C_10  and  C_11
REMARK                            x       y       z     vdW  Elec       q    Type
REMARK                         _______ _______ _______ _____ _____    ______ ____
ROOT
ATOM      1  N   UNL     1       4.311   4.996  17.295  0.00  0.00    +0.000 N 
ATOM      2  C   UNL     1       4.003   3.857  18.036  0.00  0.00    +0.000 A 
ATOM      3  C   UNL     1       3.436   3.956  19.249  0.00  0.00    +0.000 A 
ATOM      4  C   UNL     1       2.772   5.174  19.645  0.00  0.00    +0.000 A 
ATOM      5  C   UNL     1       1.746   5.128  20.748  0.00  0.00    +0.000 C 
ATOM      6  C   UNL     1       2.996   6.284  18.926  0.00  0.00    +0.000 A 
ATOM      7  C   UNL     1       3.899   6.263  17.723  0.00  0.00    +0.000 A 
ATOM      8  O   UNL     1       4.168   7.319  17.148  0.00  0.00    +0.000 OA
ENDROOT
BRANCH   6   9
ATOM      9  C   UNL     1       2.182   7.463  19.148  0.00  0.00    +0.000 A 
ATOM     10  C   UNL     1       1.939   8.168  17.984  0.00  0.00    +0.000 A 
ATOM     11  C   UNL     1       1.132   9.229  18.091  0.00  0.00    +0.000 A 
ATOM     12  C   UNL     1       1.009   9.773  19.316  0.00  0.00    +0.000 A 
ATOM     13  N   UNL     1       1.049  11.009  19.017  0.00  0.00    +0.000 NA
ATOM     14  C   UNL     1       0.530  12.052  19.572  0.00  0.00    +0.000 A 
ATOM     15  N   UNL     1       0.627  12.420  18.259  0.00  0.00    +0.000 N 
ATOM     16  N   UNL     1       0.449  11.669  20.835  0.00  0.00    +0.000 NA
ATOM     17  C   UNL     1       0.810  10.365  21.359  0.00  0.00    +0.000 A 
ATOM     18  C   UNL     1       1.184   9.267  20.534  0.00  0.00    +0.000 A 
ATOM     19  C   UNL     1       1.669   7.895  20.415  0.00  0.00    +0.000 A 
ATOM     20  H   UNL     1       1.151  11.676  17.788  0.00  0.00    +0.000 HD
ATOM     21  H   UNL     1       0.379  13.104  17.585  0.00  0.00    +0.000 HD
ENDBRANCH   6   9
BRANCH   1  25
ATOM     22  C   UNL     1       5.548   3.563  12.667  0.00  0.00    +0.000 C 
ATOM     23  C   UNL     1       5.881   4.213  13.975  0.00  0.00    +0.000 A 
ATOM     24  C   UNL     1       4.942   4.310  15.013  0.00  0.00    +0.000 A 
ATOM     25  C   UNL     1       5.262   4.953  16.229  0.00  0.00    +0.000 A 
ATOM     26  C   UNL     1       6.530   5.509  16.395  0.00  0.00    +0.000 A 
ATOM     27  C   UNL     1       7.481   5.381  15.380  0.00  0.00    +0.000 A 
ATOM     28  C   UNL     1       7.152   4.745  14.185  0.00  0.00    +0.000 A 
ATOM     29  F   UNL     1       8.081   4.656  13.221  0.00  0.00    +0.000 F 
ENDBRANCH   1  25
TORSDOF 2
ENDMDL
MODEL 6
REMARK VINA RESULT:      -8.7      2.033      3.374
REMARK  Name = 
REMARK  4 active torsions:
REMARK  status: ('A' for Active; 'I' for Inactive)
REMARK    1  A    between atoms: C_1  and  C_2
REMARK    2  A    between atoms: C_4  and  N_5
REMARK    3  A    between atoms: C_8  and  C_9
REMARK    4  A    between atoms: C_10  and  C_11
REMARK                            x       y       z     vdW  Elec       q    Type
REMARK                         _______ _______ _______ _____ _____    ______ ____
ROOT
ATOM      1  N   UNL     1       1.345   8.843  19.766  0.00  0.00    +0.000 N 
ATOM      2  C   UNL     1       0.892   8.387  21.001  0.00  0.00    +0.000 A 
ATOM      3  C   UNL     1       0.915   7.079  21.305  0.00  0.00    +0.000 A 
ATOM      4  C   UNL     1       1.754   6.174  20.559  0.00  0.00    +0.000 A 
ATOM      5  C   UNL     1       2.154   4.860  21.181  0.00  0.00    +0.000 C 
ATOM      6  C   UNL     1       2.258   6.590  19.388  0.00  0.00    +0.000 A 
ATOM      7  C   UNL     1       1.978   7.974  18.869  0.00  0.00    +0.000 A 
ATOM      8  O   UNL     1       2.366   8.289  17.743  0.00  0.00    +0.000 OA
ENDROOT
BRANCH   6   9
ATOM      9  C   UNL     1       3.280   5.806  18.723  0.00  0.00    +0.000 A 
ATOM     10  C   UNL     1       4.369   5.552  19.537  0.00  0.00    +0.000 A 
ATOM     11  C   UNL     1       5.323   4.769  19.023  0.00  0.00    +0.000 A 
ATOM     12  C   UNL     1       5.376   4.685  17.681  0.00  0.00    +0.000 A 
ATOM     13  N   UNL     1       6.634   4.743  17.502  0.00  0.00    +0.000 NA
ATOM     14  C   UNL     1       7.404   4.258  16.587  0.00  0.00    +0.000 A 
ATOM     15  N   UNL     1       8.230   4.334  17.673  0.00  0.00    +0.000 N 
ATOM     16  N   UNL     1       6.582   4.196  15.553  0.00  0.00    +0.000 NA
ATOM     17  C   UNL     1       5.172   4.542  15.559  0.00  0.00    +0.000 A 
ATOM     18  C   UNL     1       4.453   4.875  16.741  0.00  0.00    +0.000 A 
ATOM     19  C   UNL     1       3.217   5.329  17.372  0.00  0.00    +0.000 A 
ATOM     20  H   UNL     1       7.708   4.832  18.400  0.00  0.00    +0.000 HD
ATOM     21  H   UNL     1       9.118   4.085  18.039  0.00  0.00    +0.000 HD
ENDBRANCH   6   9
BRANCH   1  25
ATOM     22  C   UNL     1       2.554  13.529  18.512  0.00  0.00    +0.000 C 
ATOM     23  C   UNL     1       1.547  12.433  18.686  0.00  0.00    +0.000 A 
ATOM     24  C   UNL     1       1.916  11.155  19.131  0.00  0.00    +0.000 A 
ATOM     25  C   UNL     1       0.961  10.123  19.260  0.00  0.00    +0.000 A 
ATOM     26  C   UNL     1      -0.369  10.378  18.930  0.00  0.00    +0.000 A 
ATOM     27  C   UNL     1      -0.749  11.660  18.524  0.00  0.00    +0.000 A 
ATOM     28  C   UNL     1       0.204  12.669  18.400  0.00  0.00    +0.000 A 
ATOM     29  F   UNL     1      -0.188  13.884  17.987  0.00  0.00    +0.000 F 
ENDBRANCH   1  25
TORSDOF 2
ENDMDL
MODEL 7
REMARK VINA RESULT:      -8.5      0.629      1.368
REMARK  Name = 
REMARK  4 active torsions:
REMARK  status: ('A' for Active; 'I' for Inactive)
REMARK    1  A    between atoms: C_1  and  C_2
REMARK    2  A    between atoms: C_4  and  N_5
REMARK    3  A    between atoms: C_8  and  C_9
REMARK    4  A    between atoms: C_10  and  C_11
REMARK                            x       y       z     vdW  Elec       q    Type
REMARK                         _______ _______ _______ _____ _____    ______ ____
ROOT
ATOM      1  N   UNL     1       2.864   5.897  19.332  0.00  0.00    +0.000 N 
ATOM      2  C   UNL     1       2.738   4.810  20.193  0.00  0.00    +0.000 A 
ATOM      3  C   UNL     1       3.007   3.562  19.775  0.00  0.00    +0.000 A 
ATOM      4  C   UNL     1       3.799   3.348  18.589  0.00  0.00    +0.000 A 
ATOM      5  C   UNL     1       4.499   2.026  18.400  0.00  0.00    +0.000 C 
ATOM      6  C   UNL     1       3.994   4.382  17.757  0.00  0.00    +0.000 A 
ATOM      7  C   UNL     1       3.421   5.740  18.057  0.00  0.00    +0.000 A 
ATOM      8  O   UNL     1       3.526   6.640  17.222  0.00  0.00    +0.000 OA
ENDROOT
BRANCH   6   9
ATOM      9  C   UNL     1       4.962   4.271  16.684  0.00  0.00    +0.000 A 
ATOM     10  C   UNL     1       6.126   4.971  16.943  0.00  0.00    +0.000 A 
ATOM     11  C   UNL     1       7.101   4.858  16.036  0.00  0.00    +0.000 A 
ATOM     12  C   UNL     1       6.731   4.487  14.796  0.00  0.00    +0.000 A 
ATOM     13  N   UNL     1       7.454   5.270  14.102  0.00  0.00    +0.000 NA
ATOM     14  C   UNL     1       7.969   5.159  12.924  0.00  0.00    +0.000 A 
ATOM     15  N   UNL     1       8.833   6.008  13.557  0.00  0.00    +0.000 N 
ATOM     16  N   UNL     1       7.116   4.337  12.336  0.00  0.00    +0.000 NA
ATOM     17  C   UNL     1       5.962   3.713  12.958  0.00  0.00    +0.000 A 
ATOM     18  C   UNL     1       5.674   3.812  14.348  0.00  0.00    +0.000 A 
ATOM     19  C   UNL     1       4.777   3.536  15.467  0.00  0.00    +0.000 A 
ATOM     20  H   UNL     1       8.406   6.235  14.461  0.00  0.00    +0.000 HD
ATOM     21  H   UNL     1       9.708   6.472  13.499  0.00  0.00    +0.000 HD
ENDBRANCH   6   9
BRANCH   1  25
ATOM     22  C   UNL     1       1.592  10.509  17.881  0.00  0.00    +0.000 C 
ATOM     23  C   UNL     1       1.622   9.414  18.903  0.00  0.00    +0.000 A 
ATOM     24  C   UNL     1       2.215   8.171  18.637  0.00  0.00    +0.000 A 
ATOM     25  C   UNL     1       2.208   7.137  19.600  0.00  0.00    +0.000 A 
ATOM     26  C   UNL     1       1.592   7.355  20.831  0.00  0.00    +0.000 A 
ATOM     27  C   UNL     1       1.033   8.604  21.116  0.00  0.00    +0.000 A 
ATOM     28  C   UNL     1       1.047   9.615  20.156  0.00  0.00    +0.000 A 
ATOM     29  F   UNL     1       0.484  10.796  20.451  0.00  0.00    +0.000 F 
ENDBRANCH   1  25
TORSDOF 2
ENDMDL
MODEL 8
REMARK VINA RESULT:      -8.5      2.004      3.313
REMARK  Name = 
REMARK  4 active torsions:
REMARK  status: ('A' for Active; 'I' for Inactive)
REMARK    1  A    between atoms: C_1  and  C_2
REMARK    2  A    between atoms: C_4  and  N_5
REMARK    3  A    between atoms: C_8  and  C_9
REMARK    4  A    between atoms: C_10  and  C_11
REMARK                            x       y       z     vdW  Elec       q    Type
REMARK                         _______ _______ _______ _____ _____    ______ ____
ROOT
ATOM      1  N   UNL     1       1.329   8.774  19.924  0.00  0.00    +0.000 N 
ATOM      2  C   UNL     1       0.871   8.268  21.138  0.00  0.00    +0.000 A 
ATOM      3  C   UNL     1       0.897   6.949  21.390  0.00  0.00    +0.000 A 
ATOM      4  C   UNL     1       1.742   6.076  20.612  0.00  0.00    +0.000 A 
ATOM      5  C   UNL     1       2.143   4.739  21.182  0.00  0.00    +0.000 C 
ATOM      6  C   UNL     1       2.252   6.541  19.461  0.00  0.00    +0.000 A 
ATOM      7  C   UNL     1       1.969   7.944  18.997  0.00  0.00    +0.000 A 
ATOM      8  O   UNL     1       2.363   8.305  17.886  0.00  0.00    +0.000 OA
ENDROOT
BRANCH   6   9
ATOM      9  C   UNL     1       3.279   5.786  18.771  0.00  0.00    +0.000 A 
ATOM     10  C   UNL     1       4.356   5.488  19.585  0.00  0.00    +0.000 A 
ATOM     11  C   UNL     1       5.314   4.728  19.045  0.00  0.00    +0.000 A 
ATOM     12  C   UNL     1       5.385   4.710  17.700  0.00  0.00    +0.000 A 
ATOM     13  N   UNL     1       6.645   4.773  17.541  0.00  0.00    +0.000 NA
ATOM     14  C   UNL     1       7.425   4.331  16.612  0.00  0.00    +0.000 A 
ATOM     15  N   UNL     1       8.237   4.349  17.711  0.00  0.00    +0.000 N 
ATOM     16  N   UNL     1       6.616   4.325  15.566  0.00  0.00    +0.000 NA
ATOM     17  C   UNL     1       5.207   4.675  15.571  0.00  0.00    +0.000 A 
ATOM     18  C   UNL     1       4.475   4.952  16.760  0.00  0.00    +0.000 A 
ATOM     19  C   UNL     1       3.232   5.379  17.397  0.00  0.00    +0.000 A 
ATOM     20  H   UNL     1       7.707   4.812  18.456  0.00  0.00    +0.000 HD
ATOM     21  H   UNL     1       9.119   4.079  18.076  0.00  0.00    +0.000 HD
ENDBRANCH   6   9
BRANCH   1  25
ATOM     22  C   UNL     1      -2.049  11.766  17.772  0.00  0.00    +0.000 C 
ATOM     23  C   UNL     1      -0.698  11.528  18.374  0.00  0.00    +0.000 A 
ATOM     24  C   UNL     1      -0.322  10.273  18.875  0.00  0.00    +0.000 A 
ATOM     25  C   UNL     1       0.944  10.072  19.468  0.00  0.00    +0.000 A 
ATOM     26  C   UNL     1       1.831  11.143  19.565  0.00  0.00    +0.000 A 
ATOM     27  C   UNL     1       1.477  12.386  19.032  0.00  0.00    +0.000 A 
ATOM     28  C   UNL     1       0.224  12.570  18.451  0.00  0.00    +0.000 A 
ATOM     29  F   UNL     1      -0.094  13.780  17.967  0.00  0.00    +0.000 F 
ENDBRANCH   1  25
TORSDOF 2
ENDMDL
MODEL 9
REMARK VINA RESULT:      -8.5      5.439     11.320
REMARK  Name = 
REMARK  4 active torsions:
REMARK  status: ('A' for Active; 'I' for Inactive)
REMARK    1  A    between atoms: C_1  and  C_2
REMARK    2  A    between atoms: C_4  and  N_5
REMARK    3  A    between atoms: C_8  and  C_9
REMARK    4  A    between atoms: C_10  and  C_11
REMARK                            x       y       z     vdW  Elec       q    Type
REMARK                         _______ _______ _______ _____ _____    ______ ____
ROOT
ATOM      1  N   UNL     1       1.024  10.960  19.297  0.00  0.00    +0.000 N 
ATOM      2  C   UNL     1       1.774  12.073  18.924  0.00  0.00    +0.000 A 
ATOM      3  C   UNL     1       1.204  13.284  18.811  0.00  0.00    +0.000 A 
ATOM      4  C   UNL     1      -0.065  13.552  19.443  0.00  0.00    +0.000 A 
ATOM      5  C   UNL     1      -0.455  14.978  19.735  0.00  0.00    +0.000 C 
ATOM      6  C   UNL     1      -0.798  12.512  19.868  0.00  0.00    +0.000 A 
ATOM      7  C   UNL     1      -0.306  11.099  19.713  0.00  0.00    +0.000 A 
ATOM      8  O   UNL     1      -1.047  10.162  20.016  0.00  0.00    +0.000 OA
ENDROOT
BRANCH   6   9
ATOM      9  C   UNL     1      -1.960  12.743  20.703  0.00  0.00    +0.000 A 
ATOM     10  C   UNL     1      -1.648  12.772  22.050  0.00  0.00    +0.000 A 
ATOM     11  C   UNL     1      -2.654  13.056  22.885  0.00  0.00    +0.000 A 
ATOM     12  C   UNL     1      -3.900  12.835  22.426  0.00  0.00    +0.000 A 
ATOM     13  N   UNL     1      -4.430  12.314  23.458  0.00  0.00    +0.000 NA
ATOM     14  C   UNL     1      -5.643  12.304  23.899  0.00  0.00    +0.000 A 
ATOM     15  N   UNL     1      -4.901  12.179  25.040  0.00  0.00    +0.000 N 
ATOM     16  N   UNL     1      -6.334  12.426  22.779  0.00  0.00    +0.000 NA
ATOM     17  C   UNL     1      -5.783  12.593  21.447  0.00  0.00    +0.000 A 
ATOM     18  C   UNL     1      -4.395  12.780  21.192  0.00  0.00    +0.000 A 
ATOM     19  C   UNL     1      -3.303  12.919  20.233  0.00  0.00    +0.000 A 
ATOM     20  H   UNL     1      -3.928  12.052  24.742  0.00  0.00    +0.000 HD
ATOM     21  H   UNL     1      -4.926  12.179  26.032  0.00  0.00    +0.000 HD
ENDBRANCH   6   9
BRANCH   1  25
ATOM     22  C   UNL     1       1.850   6.281  20.853  0.00  0.00    +0.000 C 
ATOM     23  C   UNL     1       1.923   7.351  19.806  0.00  0.00    +0.000 A 
ATOM     24  C   UNL     1       1.431   8.645  20.036  0.00  0.00    +0.000 A 
ATOM     25  C   UNL     1       1.479   9.633  19.028  0.00  0.00    +0.000 A 
ATOM     26  C   UNL     1       2.016   9.313  17.782  0.00  0.00    +0.000 A 
ATOM     27  C   UNL     1       2.542   8.037  17.560  0.00  0.00    +0.000 A 
ATOM     28  C   UNL     1       2.487   7.071  18.563  0.00  0.00    +0.000 A 
ATOM     29  F   UNL     1       2.982   5.850  18.313  0.00  0.00    +0.000 F 
ENDBRANCH   1  25
TORSDOF 2
ENDMDL
