MODEL 1
REMARK VINA RESULT:      -7.3      0.000      0.000
REMARK  Name = 
REMARK  4 active torsions:
REMARK  status: ('A' for Active; 'I' for Inactive)
REMARK    1  A    between atoms: C_2  and  C_4
REMARK    2  A    between atoms: C_7  and  O_8
REMARK    3  A    between atoms: O_8  and  C_9
REMARK    4  A    between atoms: C_12  and  N_13
REMARK                            x       y       z     vdW  Elec       q    Type
REMARK                         _______ _______ _______ _____ _____    ______ ____
ROOT
ATOM      1  C   UNL     1       5.702   5.031  15.571  0.00  0.00    +0.000 A 
ATOM      2  C   UNL     1       5.365   6.339  15.941  0.00  0.00    +0.000 A 
ATOM      3  C   UNL     1       4.326   6.558  16.850  0.00  0.00    +0.000 A 
ATOM      4  C   UNL     1       3.621   5.479  17.390  0.00  0.00    +0.000 A 
ATOM      5  C   UNL     1       3.989   4.174  17.054  0.00  0.00    +0.000 A 
ATOM      6  C   UNL     1       5.002   3.951  16.119  0.00  0.00    +0.000 A 
ENDROOT
BRANCH   1   8
ATOM      7  N   UNL     1       6.578   3.725  13.719  0.00  0.00    +0.000 N 
ATOM      8  C   UNL     1       6.791   4.748  14.601  0.00  0.00    +0.000 C 
ATOM      9  O   UNL     1       7.809   5.426  14.562  0.00  0.00    +0.000 OA
ATOM     10  H   UNL     1       7.268   3.625  12.983  0.00  0.00    +0.000 HD
ATOM     11  H   UNL     1       5.659   3.343  13.555  0.00  0.00    +0.000 HD
ENDBRANCH   1   8
BRANCH   4  12
ATOM     12  O   UNL     1       2.629   5.803  18.286  0.00  0.00    +0.000 OA
BRANCH  12  13
ATOM     13  C   UNL     1       2.218   4.887  19.228  0.00  0.00    +0.000 A 
ATOM     14  C   UNL     1       2.768   5.035  20.501  0.00  0.00    +0.000 A 
ATOM     15  C   UNL     1       2.414   4.154  21.528  0.00  0.00    +0.000 A 
ATOM     16  C   UNL     1       1.475   3.144  21.306  0.00  0.00    +0.000 A 
ATOM     17  C   UNL     1       0.949   2.988  20.024  0.00  0.00    +0.000 A 
ATOM     18  C   UNL     1       1.277   3.883  19.000  0.00  0.00    +0.000 A 
BRANCH  16  19
ATOM     19  N   UNL     1       1.241   2.171  22.285  0.00  0.00    +0.000 N 
ATOM     20  H   UNL     1       0.467   2.392  22.905  0.00  0.00    +0.000 HD
ATOM     21  H   UNL     1       1.183   1.227  21.919  0.00  0.00    +0.000 HD
ENDBRANCH  16  19
ENDBRANCH  12  13
ENDBRANCH   4  12
TORSDOF 4
ENDMDL
MODEL 2
REMARK VINA RESULT:      -7.1      1.533      1.962
REMARK  Name = 
REMARK  4 active torsions:
REMARK  status: ('A' for Active; 'I' for Inactive)
REMARK    1  A    between atoms: C_2  and  C_4
REMARK    2  A    between atoms: C_7  and  O_8
REMARK    3  A    between atoms: O_8  and  C_9
REMARK    4  A    between atoms: C_12  and  N_13
REMARK                            x       y       z     vdW  Elec       q    Type
REMARK                         _______ _______ _______ _____ _____    ______ ____
ROOT
ATOM      1  C   UNL     1       6.525   4.940  15.211  0.00  0.00    +0.000 A 
ATOM      2  C   UNL     1       7.246   4.494  16.325  0.00  0.00    +0.000 A 
ATOM      3  C   UNL     1       6.759   4.740  17.612  0.00  0.00    +0.000 A 
ATOM      4  C   UNL     1       5.559   5.432  17.792  0.00  0.00    +0.000 A 
ATOM      5  C   UNL     1       4.818   5.836  16.678  0.00  0.00    +0.000 A 
ATOM      6  C   UNL     1       5.318   5.623  15.391  0.00  0.00    +0.000 A 
ENDROOT
BRANCH   1   8
ATOM      7  N   UNL     1       6.490   3.630  13.165  0.00  0.00    +0.000 N 
ATOM      8  C   UNL     1       7.006   4.711  13.824  0.00  0.00    +0.000 C 
ATOM      9  O   UNL     1       7.789   5.478  13.281  0.00  0.00    +0.000 OA
ATOM     10  H   UNL     1       6.726   3.557  12.182  0.00  0.00    +0.000 HD
ATOM     11  H   UNL     1       5.658   3.155  13.484  0.00  0.00    +0.000 HD
ENDBRANCH   1   8
BRANCH   4  12
ATOM     12  O   UNL     1       5.161   5.607  19.097  0.00  0.00    +0.000 OA
BRANCH  12  13
ATOM     13  C   UNL     1       4.007   5.016  19.557  0.00  0.00    +0.000 A 
ATOM     14  C   UNL     1       4.033   3.624  19.652  0.00  0.00    +0.000 A 
ATOM     15  C   UNL     1       2.909   2.928  20.108  0.00  0.00    +0.000 A 
ATOM     16  C   UNL     1       1.763   3.616  20.515  0.00  0.00    +0.000 A 
ATOM     17  C   UNL     1       1.737   5.005  20.394  0.00  0.00    +0.000 A 
ATOM     18  C   UNL     1       2.868   5.709  19.966  0.00  0.00    +0.000 A 
BRANCH  16  19
ATOM     19  N   UNL     1       0.591   2.915  20.821  0.00  0.00    +0.000 N 
ATOM     20  H   UNL     1       0.316   2.246  20.109  0.00  0.00    +0.000 HD
ATOM     21  H   UNL     1       0.586   2.511  21.752  0.00  0.00    +0.000 HD
ENDBRANCH  16  19
ENDBRANCH  12  13
ENDBRANCH   4  12
TORSDOF 4
ENDMDL
MODEL 3
REMARK VINA RESULT:      -7.1      1.570      1.870
REMARK  Name = 
REMARK  4 active torsions:
REMARK  status: ('A' for Active; 'I' for Inactive)
REMARK    1  A    between atoms: C_2  and  C_4
REMARK    2  A    between atoms: C_7  and  O_8
REMARK    3  A    between atoms: O_8  and  C_9
REMARK    4  A    between atoms: C_12  and  N_13
REMARK                            x       y       z     vdW  Elec       q    Type
REMARK                         _______ _______ _______ _____ _____    ______ ____
ROOT
ATOM      1  C   UNL     1       6.518   4.932  15.256  0.00  0.00    +0.000 A 
ATOM      2  C   UNL     1       5.298   5.567  15.514  0.00  0.00    +0.000 A 
ATOM      3  C   UNL     1       4.883   5.768  16.833  0.00  0.00    +0.000 A 
ATOM      4  C   UNL     1       5.679   5.334  17.897  0.00  0.00    +0.000 A 
ATOM      5  C   UNL     1       6.918   4.741  17.638  0.00  0.00    +0.000 A 
ATOM      6  C   UNL     1       7.320   4.507  16.321  0.00  0.00    +0.000 A 
ENDROOT
BRANCH   1   8
ATOM      7  N   UNL     1       6.487   3.593  13.229  0.00  0.00    +0.000 N 
ATOM      8  C   UNL     1       6.997   4.687  13.871  0.00  0.00    +0.000 C 
ATOM      9  O   UNL     1       7.772   5.453  13.314  0.00  0.00    +0.000 OA
ATOM     10  H   UNL     1       6.720   3.509  12.246  0.00  0.00    +0.000 HD
ATOM     11  H   UNL     1       5.659   3.118  13.556  0.00  0.00    +0.000 HD
ENDBRANCH   1   8
BRANCH   4  12
ATOM     12  O   UNL     1       5.187   5.594  19.154  0.00  0.00    +0.000 OA
BRANCH  12  13
ATOM     13  C   UNL     1       4.015   5.009  19.576  0.00  0.00    +0.000 A 
ATOM     14  C   UNL     1       4.021   3.615  19.644  0.00  0.00    +0.000 A 
ATOM     15  C   UNL     1       2.877   2.926  20.060  0.00  0.00    +0.000 A 
ATOM     16  C   UNL     1       1.732   3.621  20.455  0.00  0.00    +0.000 A 
ATOM     17  C   UNL     1       1.727   5.013  20.361  0.00  0.00    +0.000 A 
ATOM     18  C   UNL     1       2.876   5.709  19.973  0.00  0.00    +0.000 A 
BRANCH  16  19
ATOM     19  N   UNL     1       0.544   2.930  20.721  0.00  0.00    +0.000 N 
ATOM     20  H   UNL     1       0.659   2.148  21.359  0.00  0.00    +0.000 HD
ATOM     21  H   UNL     1      -0.230   3.532  20.983  0.00  0.00    +0.000 HD
ENDBRANCH  16  19
ENDBRANCH  12  13
ENDBRANCH   4  12
TORSDOF 4
ENDMDL
MODEL 4
REMARK VINA RESULT:      -7.1      0.167      1.182
REMARK  Name = 
REMARK  4 active torsions:
REMARK  status: ('A' for Active; 'I' for Inactive)
REMARK    1  A    between atoms: C_2  and  C_4
REMARK    2  A    between atoms: C_7  and  O_8
REMARK    3  A    between atoms: O_8  and  C_9
REMARK    4  A    between atoms: C_12  and  N_13
REMARK                            x       y       z     vdW  Elec       q    Type
REMARK                         _______ _______ _______ _____ _____    ______ ____
ROOT
ATOM      1  C   UNL     1       5.671   5.002  15.720  0.00  0.00    +0.000 A 
ATOM      2  C   UNL     1       4.842   3.988  16.215  0.00  0.00    +0.000 A 
ATOM      3  C   UNL     1       3.789   4.308  17.076  0.00  0.00    +0.000 A 
ATOM      4  C   UNL     1       3.563   5.636  17.450  0.00  0.00    +0.000 A 
ATOM      5  C   UNL     1       4.364   6.651  16.919  0.00  0.00    +0.000 A 
ATOM      6  C   UNL     1       5.438   6.331  16.086  0.00  0.00    +0.000 A 
ENDROOT
BRANCH   1   8
ATOM      7  N   UNL     1       6.636   3.684  13.921  0.00  0.00    +0.000 N 
ATOM      8  C   UNL     1       6.808   4.709  14.810  0.00  0.00    +0.000 C 
ATOM      9  O   UNL     1       7.830   5.382  14.821  0.00  0.00    +0.000 OA
ATOM     10  H   UNL     1       7.363   3.577  13.223  0.00  0.00    +0.000 HD
ATOM     11  H   UNL     1       5.725   3.306  13.710  0.00  0.00    +0.000 HD
ENDBRANCH   1   8
BRANCH   4  12
ATOM     12  O   UNL     1       2.493   5.845  18.288  0.00  0.00    +0.000 OA
BRANCH  12  13
ATOM     13  C   UNL     1       2.166   4.910  19.243  0.00  0.00    +0.000 A 
ATOM     14  C   UNL     1       2.801   5.053  20.477  0.00  0.00    +0.000 A 
ATOM     15  C   UNL     1       2.537   4.153  21.514  0.00  0.00    +0.000 A 
ATOM     16  C   UNL     1       1.605   3.127  21.345  0.00  0.00    +0.000 A 
ATOM     17  C   UNL     1       0.993   2.976  20.101  0.00  0.00    +0.000 A 
ATOM     18  C   UNL     1       1.231   3.890  19.069  0.00  0.00    +0.000 A 
BRANCH  16  19
ATOM     19  N   UNL     1       1.458   2.138  22.325  0.00  0.00    +0.000 N 
ATOM     20  H   UNL     1       1.479   1.191  21.958  0.00  0.00    +0.000 HD
ATOM     21  H   UNL     1       2.075   2.256  23.122  0.00  0.00    +0.000 HD
ENDBRANCH  16  19
ENDBRANCH  12  13
ENDBRANCH   4  12
TORSDOF 4
ENDMDL
MODEL 5
REMARK VINA RESULT:      -7.1      1.530      1.894
REMARK  Name = 
REMARK  4 active torsions:
REMARK  status: ('A' for Active; 'I' for Inactive)
REMARK    1  A    between atoms: C_2  and  C_4
REMARK    2  A    between atoms: C_7  and  O_8
REMARK    3  A    between atoms: O_8  and  C_9
REMARK    4  A    between atoms: C_12  and  N_13
REMARK                            x       y       z     vdW  Elec       q    Type
REMARK                         _______ _______ _______ _____ _____    ______ ____
ROOT
ATOM      1  C   UNL     1       6.538   4.917  15.135  0.00  0.00    +0.000 A 
ATOM      2  C   UNL     1       7.284   4.494  16.242  0.00  0.00    +0.000 A 
ATOM      3  C   UNL     1       6.803   4.722  17.534  0.00  0.00    +0.000 A 
ATOM      4  C   UNL     1       5.582   5.374  17.727  0.00  0.00    +0.000 A 
ATOM      5  C   UNL     1       4.818   5.755  16.621  0.00  0.00    +0.000 A 
ATOM      6  C   UNL     1       5.311   5.560  15.329  0.00  0.00    +0.000 A 
ENDROOT
BRANCH   1   8
ATOM      7  N   UNL     1       6.466   3.656  13.060  0.00  0.00    +0.000 N 
ATOM      8  C   UNL     1       7.012   4.706  13.744  0.00  0.00    +0.000 C 
ATOM      9  O   UNL     1       7.817   5.463  13.218  0.00  0.00    +0.000 OA
ATOM     10  H   UNL     1       6.699   3.598  12.076  0.00  0.00    +0.000 HD
ATOM     11  H   UNL     1       5.620   3.199  13.368  0.00  0.00    +0.000 HD
ENDBRANCH   1   8
BRANCH   4  12
ATOM     12  O   UNL     1       5.193   5.535  19.036  0.00  0.00    +0.000 OA
BRANCH  12  13
ATOM     13  C   UNL     1       4.155   4.789  19.548  0.00  0.00    +0.000 A 
ATOM     14  C   UNL     1       3.029   5.509  19.950  0.00  0.00    +0.000 A 
ATOM     15  C   UNL     1       1.921   4.844  20.484  0.00  0.00    +0.000 A 
ATOM     16  C   UNL     1       1.908   3.451  20.583  0.00  0.00    +0.000 A 
ATOM     17  C   UNL     1       3.046   2.741  20.201  0.00  0.00    +0.000 A 
ATOM     18  C   UNL     1       4.146   3.398  19.640  0.00  0.00    +0.000 A 
BRANCH  16  19
ATOM     19  N   UNL     1       0.868   2.801  21.258  0.00  0.00    +0.000 N 
ATOM     20  H   UNL     1      -0.056   3.032  20.906  0.00  0.00    +0.000 HD
ATOM     21  H   UNL     1       1.004   1.800  21.355  0.00  0.00    +0.000 HD
ENDBRANCH  16  19
ENDBRANCH  12  13
ENDBRANCH   4  12
TORSDOF 4
ENDMDL
MODEL 6
REMARK VINA RESULT:      -7.1      0.157      1.177
REMARK  Name = 
REMARK  4 active torsions:
REMARK  status: ('A' for Active; 'I' for Inactive)
REMARK    1  A    between atoms: C_2  and  C_4
REMARK    2  A    between atoms: C_7  and  O_8
REMARK    3  A    between atoms: O_8  and  C_9
REMARK    4  A    between atoms: C_12  and  N_13
REMARK                            x       y       z     vdW  Elec       q    Type
REMARK                         _______ _______ _______ _____ _____    ______ ____
ROOT
ATOM      1  C   UNL     1       5.635   5.048  15.686  0.00  0.00    +0.000 A 
ATOM      2  C   UNL     1       5.307   6.341  16.111  0.00  0.00    +0.000 A 
ATOM      3  C   UNL     1       4.234   6.535  16.984  0.00  0.00    +0.000 A 
ATOM      4  C   UNL     1       3.483   5.444  17.432  0.00  0.00    +0.000 A 
ATOM      5  C   UNL     1       3.840   4.151  17.042  0.00  0.00    +0.000 A 
ATOM      6  C   UNL     1       4.890   3.956  16.142  0.00  0.00    +0.000 A 
ENDROOT
BRANCH   1   8
ATOM      7  N   UNL     1       6.627   3.729  13.903  0.00  0.00    +0.000 N 
ATOM      8  C   UNL     1       6.761   4.793  14.751  0.00  0.00    +0.000 C 
ATOM      9  O   UNL     1       7.740   5.526  14.709  0.00  0.00    +0.000 OA
ATOM     10  H   UNL     1       7.339   3.642  13.186  0.00  0.00    +0.000 HD
ATOM     11  H   UNL     1       5.735   3.290  13.732  0.00  0.00    +0.000 HD
ENDBRANCH   1   8
BRANCH   4  12
ATOM     12  O   UNL     1       2.458   5.742  18.300  0.00  0.00    +0.000 OA
BRANCH  12  13
ATOM     13  C   UNL     1       2.168   4.897  19.347  0.00  0.00    +0.000 A 
ATOM     14  C   UNL     1       1.233   3.896  19.079  0.00  0.00    +0.000 A 
ATOM     15  C   UNL     1       0.870   2.987  20.078  0.00  0.00    +0.000 A 
ATOM     16  C   UNL     1       1.467   3.040  21.340  0.00  0.00    +0.000 A 
ATOM     17  C   UNL     1       2.381   4.059  21.606  0.00  0.00    +0.000 A 
ATOM     18  C   UNL     1       2.770   4.953  20.603  0.00  0.00    +0.000 A 
BRANCH  16  19
ATOM     19  N   UNL     1       0.991   2.234  22.380  0.00  0.00    +0.000 N 
ATOM     20  H   UNL     1       0.608   2.757  23.162  0.00  0.00    +0.000 HD
ATOM     21  H   UNL     1       0.371   1.491  22.072  0.00  0.00    +0.000 HD
ENDBRANCH  16  19
ENDBRANCH  12  13
ENDBRANCH   4  12
TORSDOF 4
ENDMDL
MODEL 7
REMARK VINA RESULT:      -7.1      1.514      1.730
REMARK  Name = 
REMARK  4 active torsions:
REMARK  status: ('A' for Active; 'I' for Inactive)
REMARK    1  A    between atoms: C_2  and  C_4
REMARK    2  A    between atoms: C_7  and  O_8
REMARK    3  A    between atoms: O_8  and  C_9
REMARK    4  A    between atoms: C_12  and  N_13
REMARK                            x       y       z     vdW  Elec       q    Type
REMARK                         _______ _______ _______ _____ _____    ______ ____
ROOT
ATOM      1  C   UNL     1       6.566   5.004  15.348  0.00  0.00    +0.000 A 
ATOM      2  C   UNL     1       5.306   5.579  15.551  0.00  0.00    +0.000 A 
ATOM      3  C   UNL     1       4.830   5.769  16.851  0.00  0.00    +0.000 A 
ATOM      4  C   UNL     1       5.604   5.385  17.949  0.00  0.00    +0.000 A 
ATOM      5  C   UNL     1       6.880   4.853  17.745  0.00  0.00    +0.000 A 
ATOM      6  C   UNL     1       7.346   4.630  16.447  0.00  0.00    +0.000 A 
ENDROOT
BRANCH   1   8
ATOM      7  N   UNL     1       6.511   3.795  13.241  0.00  0.00    +0.000 N 
ATOM      8  C   UNL     1       7.111   4.773  13.985  0.00  0.00    +0.000 C 
ATOM      9  O   UNL     1       8.019   5.456  13.532  0.00  0.00    +0.000 OA
ATOM     10  H   UNL     1       6.804   3.733  12.273  0.00  0.00    +0.000 HD
ATOM     11  H   UNL     1       5.606   3.418  13.482  0.00  0.00    +0.000 HD
ENDBRANCH   1   8
BRANCH   4  12
ATOM     12  O   UNL     1       5.050   5.630  19.184  0.00  0.00    +0.000 OA
BRANCH  12  13
ATOM     13  C   UNL     1       4.017   4.848  19.649  0.00  0.00    +0.000 A 
ATOM     14  C   UNL     1       2.874   5.534  20.060  0.00  0.00    +0.000 A 
ATOM     15  C   UNL     1       1.769   4.830  20.550  0.00  0.00    +0.000 A 
ATOM     16  C   UNL     1       1.776   3.434  20.593  0.00  0.00    +0.000 A 
ATOM     17  C   UNL     1       2.932   2.758  20.203  0.00  0.00    +0.000 A 
ATOM     18  C   UNL     1       4.030   3.454  19.686  0.00  0.00    +0.000 A 
BRANCH  16  19
ATOM     19  N   UNL     1       0.737   2.742  21.225  0.00  0.00    +0.000 N 
ATOM     20  H   UNL     1       0.774   1.736  21.092  0.00  0.00    +0.000 HD
ATOM     21  H   UNL     1       0.606   2.998  22.198  0.00  0.00    +0.000 HD
ENDBRANCH  16  19
ENDBRANCH  12  13
ENDBRANCH   4  12
TORSDOF 4
ENDMDL
MODEL 8
REMARK VINA RESULT:      -6.7      4.708      6.470
REMARK  Name = 
REMARK  4 active torsions:
REMARK  status: ('A' for Active; 'I' for Inactive)
REMARK    1  A    between atoms: C_2  and  C_4
REMARK    2  A    between atoms: C_7  and  O_8
REMARK    3  A    between atoms: O_8  and  C_9
REMARK    4  A    between atoms: C_12  and  N_13
REMARK                            x       y       z     vdW  Elec       q    Type
REMARK                         _______ _______ _______ _____ _____    ______ ____
ROOT
ATOM      1  C   UNL     1       0.200  10.306  19.289  0.00  0.00    +0.000 A 
ATOM      2  C   UNL     1       0.325   9.653  20.522  0.00  0.00    +0.000 A 
ATOM      3  C   UNL     1       1.159   8.537  20.636  0.00  0.00    +0.000 A 
ATOM      4  C   UNL     1       1.865   8.068  19.525  0.00  0.00    +0.000 A 
ATOM      5  C   UNL     1       1.773   8.748  18.308  0.00  0.00    +0.000 A 
ATOM      6  C   UNL     1       0.915   9.842  18.180  0.00  0.00    +0.000 A 
ENDROOT
BRANCH   1   8
ATOM      7  N   UNL     1      -0.456  12.268  18.016  0.00  0.00    +0.000 N 
ATOM      8  C   UNL     1      -0.681  11.490  19.117  0.00  0.00    +0.000 C 
ATOM      9  O   UNL     1      -1.594  11.730  19.895  0.00  0.00    +0.000 OA
ATOM     10  H   UNL     1      -1.140  12.995  17.840  0.00  0.00    +0.000 HD
ATOM     11  H   UNL     1       0.094  11.944  17.234  0.00  0.00    +0.000 HD
ENDBRANCH   1   8
BRANCH   4  12
ATOM     12  O   UNL     1       2.669   6.974  19.748  0.00  0.00    +0.000 OA
BRANCH  12  13
ATOM     13  C   UNL     1       2.237   5.713  19.403  0.00  0.00    +0.000 A 
ATOM     14  C   UNL     1       1.691   4.953  20.438  0.00  0.00    +0.000 A 
ATOM     15  C   UNL     1       1.224   3.659  20.189  0.00  0.00    +0.000 A 
ATOM     16  C   UNL     1       1.257   3.126  18.899  0.00  0.00    +0.000 A 
ATOM     17  C   UNL     1       1.827   3.883  17.875  0.00  0.00    +0.000 A 
ATOM     18  C   UNL     1       2.270   5.189  18.111  0.00  0.00    +0.000 A 
BRANCH  16  19
ATOM     19  N   UNL     1       0.936   1.781  18.682  0.00  0.00    +0.000 N 
ATOM     20  H   UNL     1      -0.063   1.599  18.641  0.00  0.00    +0.000 HD
ATOM     21  H   UNL     1       1.436   1.359  17.906  0.00  0.00    +0.000 HD
ENDBRANCH  16  19
ENDBRANCH  12  13
ENDBRANCH   4  12
TORSDOF 4
ENDMDL
MODEL 9
REMARK VINA RESULT:      -6.6      1.026      1.932
REMARK  Name = 
REMARK  4 active torsions:
REMARK  status: ('A' for Active; 'I' for Inactive)
REMARK    1  A    between atoms: C_2  and  C_4
REMARK    2  A    between atoms: C_7  and  O_8
REMARK    3  A    between atoms: O_8  and  C_9
REMARK    4  A    between atoms: C_12  and  N_13
REMARK                            x       y       z     vdW  Elec       q    Type
REMARK                         _______ _______ _______ _____ _____    ______ ____
ROOT
ATOM      1  C   UNL     1       5.821   5.761  16.443  0.00  0.00    +0.000 A 
ATOM      2  C   UNL     1       5.189   4.512  16.441  0.00  0.00    +0.000 A 
ATOM      3  C   UNL     1       3.914   4.377  16.997  0.00  0.00    +0.000 A 
ATOM      4  C   UNL     1       3.269   5.483  17.559  0.00  0.00    +0.000 A 
ATOM      5  C   UNL     1       3.884   6.737  17.519  0.00  0.00    +0.000 A 
ATOM      6  C   UNL     1       5.172   6.869  16.996  0.00  0.00    +0.000 A 
ENDROOT
BRANCH   1   8
ATOM      7  N   UNL     1       7.497   5.198  14.776  0.00  0.00    +0.000 N 
ATOM      8  C   UNL     1       7.180   5.951  15.872  0.00  0.00    +0.000 C 
ATOM      9  O   UNL     1       7.960   6.775  16.330  0.00  0.00    +0.000 OA
ATOM     10  H   UNL     1       8.373   5.427  14.320  0.00  0.00    +0.000 HD
ATOM     11  H   UNL     1       6.792   4.728  14.227  0.00  0.00    +0.000 HD
ENDBRANCH   1   8
BRANCH   4  12
ATOM     12  O   UNL     1       2.012   5.246  18.065  0.00  0.00    +0.000 OA
BRANCH  12  13
ATOM     13  C   UNL     1       1.854   4.491  19.205  0.00  0.00    +0.000 A 
ATOM     14  C   UNL     1       1.095   3.329  19.064  0.00  0.00    +0.000 A 
ATOM     15  C   UNL     1       0.874   2.494  20.164  0.00  0.00    +0.000 A 
ATOM     16  C   UNL     1       1.445   2.786  21.405  0.00  0.00    +0.000 A 
ATOM     17  C   UNL     1       2.182   3.962  21.543  0.00  0.00    +0.000 A 
ATOM     18  C   UNL     1       2.430   4.787  20.440  0.00  0.00    +0.000 A 
BRANCH  16  19
ATOM     19  N   UNL     1       1.097   2.038  22.535  0.00  0.00    +0.000 N 
ATOM     20  H   UNL     1       0.958   1.050  22.345  0.00  0.00    +0.000 HD
ATOM     21  H   UNL     1       1.704   2.195  23.333  0.00  0.00    +0.000 HD
ENDBRANCH  16  19
ENDBRANCH  12  13
ENDBRANCH   4  12
TORSDOF 4
ENDMDL
