MODEL 1
REMARK VINA RESULT:      -8.5      0.000      0.000
REMARK  Name = 
REMARK  9 active torsions:
REMARK  status: ('A' for Active; 'I' for Inactive)
REMARK    1  A    between atoms: C_1  and  C_2
REMARK    2  A    between atoms: C_2  and  C_3
REMARK    3  A    between atoms: C_2  and  C_4
REMARK    4  A    between atoms: C_9  and  S_10
REMARK    5  A    between atoms: S_10  and  C_11
REMARK    6  A    between atoms: C_14  and  C_15
REMARK    7  A    between atoms: C_16  and  C_17
REMARK    8  A    between atoms: C_22  and  C_23
REMARK    9  A    between atoms: C_23  and  O_25
REMARK                            x       y       z     vdW  Elec       q    Type
REMARK                         _______ _______ _______ _____ _____    ______ ____
ROOT
ATOM      1  C   UNL     1       3.407   6.005  18.726  0.00  0.00    +0.000 A 
ATOM      2  C   UNL     1       3.617   7.008  17.768  0.00  0.00    +0.000 A 
ATOM      3  C   UNL     1       2.864   8.195  17.788  0.00  0.00    +0.000 A 
ATOM      4  C   UNL     1       1.879   8.418  18.765  0.00  0.00    +0.000 A 
ATOM      5  C   UNL     1       1.802   7.494  19.833  0.00  0.00    +0.000 A 
ATOM      6 CL   UNL     1       0.814   7.845  21.226  0.00  0.00    +0.000 Cl
ATOM      7  C   UNL     1       2.561   6.298  19.811  0.00  0.00    +0.000 A 
ATOM      8 CL   UNL     1       2.482   5.201  21.167  0.00  0.00    +0.000 Cl
ENDROOT
BRANCH   4   9
ATOM      9  C   UNL     1       1.012   9.609  18.576  0.00  0.00    +0.000 C 
ATOM     10  C   UNL     1       1.043  10.699  19.370  0.00  0.00    +0.000 C 
BRANCH  10  11
ATOM     11  C   UNL     1       0.072  11.812  19.217  0.00  0.00    +0.000 C 
ATOM     12  O   UNL     1       0.130  12.534  18.227  0.00  0.00    +0.000 OA
ATOM     13  N   UNL     1      -0.905  11.917  20.199  0.00  0.00    +0.000 N 
ATOM     14  C   UNL     1      -2.083  12.740  19.956  0.00  0.00    +0.000 C 
ATOM     15  C   UNL     1      -2.255  13.798  21.044  0.00  0.00    +0.000 C 
ATOM     16  C   UNL     1      -2.223  13.195  22.456  0.00  0.00    +0.000 C 
ATOM     17  C   UNL     1      -1.003  12.280  22.627  0.00  0.00    +0.000 C 
ATOM     18  C   UNL     1      -0.871  11.250  21.500  0.00  0.00    +0.000 C 
BRANCH  16  19
ATOM     19  C   UNL     1      -3.515  12.463  22.789  0.00  0.00    +0.000 C 
ATOM     20  O   UNL     1      -4.537  12.510  22.123  0.00  0.00    +0.000 OA
BRANCH  19  21
ATOM     21  O   UNL     1      -3.430  11.706  23.907  0.00  0.00    +0.000 OA
ATOM     22  H   UNL     1      -2.519  11.531  24.213  0.00  0.00    +0.000 HD
ENDBRANCH  19  21
ENDBRANCH  16  19
ENDBRANCH  10  11
ENDBRANCH   4   9
BRANCH   1  23
ATOM     23  S   UNL     1       4.287   4.439  18.589  0.00  0.00    +0.000 S 
BRANCH  23  29
ATOM     24  C   UNL     1       6.482   5.532  17.100  0.00  0.00    +0.000 A 
ATOM     25  C   UNL     1       7.128   5.696  15.845  0.00  0.00    +0.000 A 
ATOM     26  C   UNL     1       6.694   5.060  14.696  0.00  0.00    +0.000 A 
ATOM     27  C   UNL     1       5.583   4.239  14.747  0.00  0.00    +0.000 A 
ATOM     28  C   UNL     1       4.921   4.044  15.964  0.00  0.00    +0.000 A 
ATOM     29  C   UNL     1       5.354   4.674  17.153  0.00  0.00    +0.000 A 
BRANCH  24  31
ATOM     30  C   UNL     1       8.013   5.508  19.118  0.00  0.00    +0.000 C 
ATOM     31  C   UNL     1       7.037   6.342  18.266  0.00  0.00    +0.000 C 
ATOM     32  C   UNL     1       7.735   7.621  17.782  0.00  0.00    +0.000 C 
ENDBRANCH  24  31
ENDBRANCH  23  29
ENDBRANCH   1  23
TORSDOF 7
ENDMDL
MODEL 2
REMARK VINA RESULT:      -8.3      4.394     10.496
REMARK  Name = 
REMARK  9 active torsions:
REMARK  status: ('A' for Active; 'I' for Inactive)
REMARK    1  A    between atoms: C_1  and  C_2
REMARK    2  A    between atoms: C_2  and  C_3
REMARK    3  A    between atoms: C_2  and  C_4
REMARK    4  A    between atoms: C_9  and  S_10
REMARK    5  A    between atoms: S_10  and  C_11
REMARK    6  A    between atoms: C_14  and  C_15
REMARK    7  A    between atoms: C_16  and  C_17
REMARK    8  A    between atoms: C_22  and  C_23
REMARK    9  A    between atoms: C_23  and  O_25
REMARK                            x       y       z     vdW  Elec       q    Type
REMARK                         _______ _______ _______ _____ _____    ______ ____
ROOT
ATOM      1  C   UNL     1      -0.257  11.294  19.551  0.00  0.00    +0.000 A 
ATOM      2  C   UNL     1       0.025  10.431  18.481  0.00  0.00    +0.000 A 
ATOM      3  C   UNL     1       0.750   9.244  18.683  0.00  0.00    +0.000 A 
ATOM      4  C   UNL     1       1.215   8.880  19.957  0.00  0.00    +0.000 A 
ATOM      5  C   UNL     1       0.770   9.651  21.057  0.00  0.00    +0.000 A 
ATOM      6 CL   UNL     1       1.062   9.106  22.687  0.00  0.00    +0.000 Cl
ATOM      7  C   UNL     1       0.041  10.849  20.852  0.00  0.00    +0.000 A 
ATOM      8 CL   UNL     1      -0.538  11.752  22.228  0.00  0.00    +0.000 Cl
ENDROOT
BRANCH   4   9
ATOM      9  C   UNL     1       2.135   7.715  20.024  0.00  0.00    +0.000 C 
ATOM     10  C   UNL     1       2.656   7.102  18.942  0.00  0.00    +0.000 C 
BRANCH  10  11
ATOM     11  C   UNL     1       3.472   5.866  19.054  0.00  0.00    +0.000 C 
ATOM     12  O   UNL     1       3.282   5.098  19.993  0.00  0.00    +0.000 OA
ATOM     13  N   UNL     1       4.368   5.623  18.021  0.00  0.00    +0.000 N 
ATOM     14  C   UNL     1       4.946   4.295  17.868  0.00  0.00    +0.000 C 
ATOM     15  C   UNL     1       6.473   4.349  17.875  0.00  0.00    +0.000 C 
ATOM     16  C   UNL     1       7.026   5.366  16.868  0.00  0.00    +0.000 C 
ATOM     17  C   UNL     1       6.327   6.724  17.027  0.00  0.00    +0.000 C 
ATOM     18  C   UNL     1       4.799   6.607  17.028  0.00  0.00    +0.000 C 
BRANCH  16  19
ATOM     19  C   UNL     1       6.927   4.857  15.437  0.00  0.00    +0.000 C 
ATOM     20  O   UNL     1       6.237   3.918  15.074  0.00  0.00    +0.000 OA
BRANCH  19  21
ATOM     21  O   UNL     1       7.671   5.572  14.561  0.00  0.00    +0.000 OA
ATOM     22  H   UNL     1       7.193   5.860  13.760  0.00  0.00    +0.000 HD
ENDBRANCH  19  21
ENDBRANCH  16  19
ENDBRANCH  10  11
ENDBRANCH   4   9
BRANCH   1  23
ATOM     23  S   UNL     1      -1.063  12.874  19.237  0.00  0.00    +0.000 S 
BRANCH  23  29
ATOM     24  C   UNL     1      -3.718  11.872  18.819  0.00  0.00    +0.000 A 
ATOM     25  C   UNL     1      -5.074  11.833  19.240  0.00  0.00    +0.000 A 
ATOM     26  C   UNL     1      -5.510  12.438  20.404  0.00  0.00    +0.000 A 
ATOM     27  C   UNL     1      -4.608  13.123  21.198  0.00  0.00    +0.000 A 
ATOM     28  C   UNL     1      -3.261  13.180  20.824  0.00  0.00    +0.000 A 
ATOM     29  C   UNL     1      -2.791  12.559  19.644  0.00  0.00    +0.000 A 
BRANCH  24  31
ATOM     30  C   UNL     1      -3.258   9.683  17.630  0.00  0.00    +0.000 C 
ATOM     31  C   UNL     1      -3.396  11.210  17.483  0.00  0.00    +0.000 C 
ATOM     32  C   UNL     1      -4.459  11.536  16.424  0.00  0.00    +0.000 C 
ENDBRANCH  24  31
ENDBRANCH  23  29
ENDBRANCH   1  23
TORSDOF 7
ENDMDL
MODEL 3
REMARK VINA RESULT:      -8.0      2.192      3.034
REMARK  Name = 
REMARK  9 active torsions:
REMARK  status: ('A' for Active; 'I' for Inactive)
REMARK    1  A    between atoms: C_1  and  C_2
REMARK    2  A    between atoms: C_2  and  C_3
REMARK    3  A    between atoms: C_2  and  C_4
REMARK    4  A    between atoms: C_9  and  S_10
REMARK    5  A    between atoms: S_10  and  C_11
REMARK    6  A    between atoms: C_14  and  C_15
REMARK    7  A    between atoms: C_16  and  C_17
REMARK    8  A    between atoms: C_22  and  C_23
REMARK    9  A    between atoms: C_23  and  O_25
REMARK                            x       y       z     vdW  Elec       q    Type
REMARK                         _______ _______ _______ _____ _____    ______ ____
ROOT
ATOM      1  C   UNL     1       3.472   5.953  18.639  0.00  0.00    +0.000 A 
ATOM      2  C   UNL     1       3.709   6.934  17.665  0.00  0.00    +0.000 A 
ATOM      3  C   UNL     1       2.963   8.125  17.644  0.00  0.00    +0.000 A 
ATOM      4  C   UNL     1       1.958   8.374  18.592  0.00  0.00    +0.000 A 
ATOM      5  C   UNL     1       1.851   7.473  19.678  0.00  0.00    +0.000 A 
ATOM      6 CL   UNL     1       0.833   7.858  21.041  0.00  0.00    +0.000 Cl
ATOM      7  C   UNL     1       2.603   6.272  19.698  0.00  0.00    +0.000 A 
ATOM      8 CL   UNL     1       2.488   5.205  21.074  0.00  0.00    +0.000 Cl
ENDROOT
BRANCH   4   9
ATOM      9  C   UNL     1       1.101   9.565  18.360  0.00  0.00    +0.000 C 
ATOM     10  C   UNL     1       1.265  10.747  18.987  0.00  0.00    +0.000 C 
BRANCH  10  11
ATOM     11  C   UNL     1       0.310  11.871  18.813  0.00  0.00    +0.000 C 
ATOM     12  O   UNL     1      -0.797  11.655  18.329  0.00  0.00    +0.000 OA
ATOM     13  N   UNL     1       0.720  13.109  19.290  0.00  0.00    +0.000 N 
ATOM     14  C   UNL     1      -0.261  14.169  19.478  0.00  0.00    +0.000 C 
ATOM     15  C   UNL     1       0.126  15.428  18.703  0.00  0.00    +0.000 C 
ATOM     16  C   UNL     1       1.563  15.878  19.001  0.00  0.00    +0.000 C 
ATOM     17  C   UNL     1       2.540  14.703  18.860  0.00  0.00    +0.000 C 
ATOM     18  C   UNL     1       2.095  13.465  19.644  0.00  0.00    +0.000 C 
BRANCH  16  19
ATOM     19  C   UNL     1       1.679  16.535  20.369  0.00  0.00    +0.000 C 
ATOM     20  O   UNL     1       2.621  16.399  21.133  0.00  0.00    +0.000 OA
BRANCH  19  21
ATOM     21  O   UNL     1       0.629  17.333  20.671  0.00  0.00    +0.000 OA
ATOM     22  H   UNL     1      -0.236  17.008  20.354  0.00  0.00    +0.000 HD
ENDBRANCH  19  21
ENDBRANCH  16  19
ENDBRANCH  10  11
ENDBRANCH   4   9
BRANCH   1  23
ATOM     23  S   UNL     1       4.346   4.380  18.554  0.00  0.00    +0.000 S 
BRANCH  23  29
ATOM     24  C   UNL     1       6.555   5.458  17.076  0.00  0.00    +0.000 A 
ATOM     25  C   UNL     1       7.230   5.584  15.832  0.00  0.00    +0.000 A 
ATOM     26  C   UNL     1       6.839   4.890  14.701  0.00  0.00    +0.000 A 
ATOM     27  C   UNL     1       5.746   4.047  14.758  0.00  0.00    +0.000 A 
ATOM     28  C   UNL     1       5.057   3.889  15.966  0.00  0.00    +0.000 A 
ATOM     29  C   UNL     1       5.445   4.578  17.138  0.00  0.00    +0.000 A 
BRANCH  24  31
ATOM     30  C   UNL     1       8.054   5.563  19.115  0.00  0.00    +0.000 C 
ATOM     31  C   UNL     1       7.062   6.330  18.220  0.00  0.00    +0.000 C 
ATOM     32  C   UNL     1       7.719   7.616  17.700  0.00  0.00    +0.000 C 
ENDBRANCH  24  31
ENDBRANCH  23  29
ENDBRANCH   1  23
TORSDOF 7
ENDMDL
MODEL 4
REMARK VINA RESULT:      -7.9      4.359     10.565
REMARK  Name = 
REMARK  9 active torsions:
REMARK  status: ('A' for Active; 'I' for Inactive)
REMARK    1  A    between atoms: C_1  and  C_2
REMARK    2  A    between atoms: C_2  and  C_3
REMARK    3  A    between atoms: C_2  and  C_4
REMARK    4  A    between atoms: C_9  and  S_10
REMARK    5  A    between atoms: S_10  and  C_11
REMARK    6  A    between atoms: C_14  and  C_15
REMARK    7  A    between atoms: C_16  and  C_17
REMARK    8  A    between atoms: C_22  and  C_23
REMARK    9  A    between atoms: C_23  and  O_25
REMARK                            x       y       z     vdW  Elec       q    Type
REMARK                         _______ _______ _______ _____ _____    ______ ____
ROOT
ATOM      1  C   UNL     1      -0.421  11.231  19.415  0.00  0.00    +0.000 A 
ATOM      2  C   UNL     1       0.062  10.478  18.335  0.00  0.00    +0.000 A 
ATOM      3  C   UNL     1       0.840   9.328  18.548  0.00  0.00    +0.000 A 
ATOM      4  C   UNL     1       1.160   8.893  19.845  0.00  0.00    +0.000 A 
ATOM      5  C   UNL     1       0.519   9.543  20.926  0.00  0.00    +0.000 A 
ATOM      6 CL   UNL     1       0.635   8.887  22.537  0.00  0.00    +0.000 Cl
ATOM      7  C   UNL     1      -0.265  10.703  20.709  0.00  0.00    +0.000 A 
ATOM      8 CL   UNL     1      -1.085  11.453  22.055  0.00  0.00    +0.000 Cl
ENDROOT
BRANCH   4   9
ATOM      9  C   UNL     1       2.148   7.788  19.953  0.00  0.00    +0.000 C 
ATOM     10  C   UNL     1       2.532   7.015  18.917  0.00  0.00    +0.000 C 
BRANCH  10  11
ATOM     11  C   UNL     1       3.428   5.845  19.098  0.00  0.00    +0.000 C 
ATOM     12  O   UNL     1       3.291   5.123  20.080  0.00  0.00    +0.000 OA
ATOM     13  N   UNL     1       4.338   5.601  18.076  0.00  0.00    +0.000 N 
ATOM     14  C   UNL     1       5.002   4.307  17.999  0.00  0.00    +0.000 C 
ATOM     15  C   UNL     1       6.522   4.463  17.995  0.00  0.00    +0.000 C 
ATOM     16  C   UNL     1       7.005   5.452  16.926  0.00  0.00    +0.000 C 
ATOM     17  C   UNL     1       6.218   6.767  17.008  0.00  0.00    +0.000 C 
ATOM     18  C   UNL     1       4.701   6.550  17.024  0.00  0.00    +0.000 C 
BRANCH  16  19
ATOM     19  C   UNL     1       6.938   4.854  15.528  0.00  0.00    +0.000 C 
ATOM     20  O   UNL     1       6.321   3.844  15.228  0.00  0.00    +0.000 OA
BRANCH  19  21
ATOM     21  O   UNL     1       7.619   5.571  14.605  0.00  0.00    +0.000 OA
ATOM     22  H   UNL     1       8.291   5.065  14.108  0.00  0.00    +0.000 HD
ENDBRANCH  19  21
ENDBRANCH  16  19
ENDBRANCH  10  11
ENDBRANCH   4   9
BRANCH   1  23
ATOM     23  S   UNL     1      -1.295  12.777  19.108  0.00  0.00    +0.000 S 
BRANCH  23  29
ATOM     24  C   UNL     1      -4.070  12.596  19.812  0.00  0.00    +0.000 A 
ATOM     25  C   UNL     1      -5.337  11.995  19.585  0.00  0.00    +0.000 A 
ATOM     26  C   UNL     1      -5.565  11.109  18.548  0.00  0.00    +0.000 A 
ATOM     27  C   UNL     1      -4.531  10.773  17.695  0.00  0.00    +0.000 A 
ATOM     28  C   UNL     1      -3.268  11.348  17.878  0.00  0.00    +0.000 A 
ATOM     29  C   UNL     1      -3.015  12.265  18.924  0.00  0.00    +0.000 A 
BRANCH  24  31
ATOM     30  C   UNL     1      -4.714  14.830  20.819  0.00  0.00    +0.000 C 
ATOM     31  C   UNL     1      -3.952  13.507  21.029  0.00  0.00    +0.000 C 
ATOM     32  C   UNL     1      -4.459  12.814  22.302  0.00  0.00    +0.000 C 
ENDBRANCH  24  31
ENDBRANCH  23  29
ENDBRANCH   1  23
TORSDOF 7
ENDMDL
MODEL 5
REMARK VINA RESULT:      -7.9      1.192      2.275
REMARK  Name = 
REMARK  9 active torsions:
REMARK  status: ('A' for Active; 'I' for Inactive)
REMARK    1  A    between atoms: C_1  and  C_2
REMARK    2  A    between atoms: C_2  and  C_3
REMARK    3  A    between atoms: C_2  and  C_4
REMARK    4  A    between atoms: C_9  and  S_10
REMARK    5  A    between atoms: S_10  and  C_11
REMARK    6  A    between atoms: C_14  and  C_15
REMARK    7  A    between atoms: C_16  and  C_17
REMARK    8  A    between atoms: C_22  and  C_23
REMARK    9  A    between atoms: C_23  and  O_25
REMARK                            x       y       z     vdW  Elec       q    Type
REMARK                         _______ _______ _______ _____ _____    ______ ____
ROOT
ATOM      1  C   UNL     1       2.641   6.708  18.525  0.00  0.00    +0.000 A 
ATOM      2  C   UNL     1       2.760   7.817  17.674  0.00  0.00    +0.000 A 
ATOM      3  C   UNL     1       2.185   9.053  18.017  0.00  0.00    +0.000 A 
ATOM      4  C   UNL     1       1.474   9.221  19.217  0.00  0.00    +0.000 A 
ATOM      5  C   UNL     1       1.518   8.160  20.152  0.00  0.00    +0.000 A 
ATOM      6 CL   UNL     1       0.912   8.392  21.770  0.00  0.00    +0.000 Cl
ATOM      7  C   UNL     1       2.097   6.915  19.806  0.00  0.00    +0.000 A 
ATOM      8 CL   UNL     1       2.182   5.642  20.997  0.00  0.00    +0.000 Cl
ENDROOT
BRANCH   4   9
ATOM      9  C   UNL     1       0.743  10.503  19.385  0.00  0.00    +0.000 C 
ATOM     10  C   UNL     1      -0.573  10.590  19.665  0.00  0.00    +0.000 C 
BRANCH  10  11
ATOM     11  C   UNL     1      -1.286  11.892  19.703  0.00  0.00    +0.000 C 
ATOM     12  O   UNL     1      -1.299  12.605  18.704  0.00  0.00    +0.000 OA
ATOM     13  N   UNL     1      -1.969  12.188  20.876  0.00  0.00    +0.000 N 
ATOM     14  C   UNL     1      -2.962  13.254  20.881  0.00  0.00    +0.000 C 
ATOM     15  C   UNL     1      -2.647  14.300  21.949  0.00  0.00    +0.000 C 
ATOM     16  C   UNL     1      -2.428  13.675  23.334  0.00  0.00    +0.000 C 
ATOM     17  C   UNL     1      -1.431  12.511  23.252  0.00  0.00    +0.000 C 
ATOM     18  C   UNL     1      -1.786  11.502  22.155  0.00  0.00    +0.000 C 
BRANCH  16  19
ATOM     19  C   UNL     1      -3.739  13.237  23.971  0.00  0.00    +0.000 C 
ATOM     20  O   UNL     1      -4.015  12.091  24.288  0.00  0.00    +0.000 OA
BRANCH  19  21
ATOM     21  O   UNL     1      -4.594  14.262  24.195  0.00  0.00    +0.000 OA
ATOM     22  H   UNL     1      -5.274  14.086  24.874  0.00  0.00    +0.000 HD
ENDBRANCH  19  21
ENDBRANCH  16  19
ENDBRANCH  10  11
ENDBRANCH   4   9
BRANCH   1  23
ATOM     23  S   UNL     1       3.266   5.104  17.994  0.00  0.00    +0.000 S 
BRANCH  23  29
ATOM     24  C   UNL     1       5.934   5.247  16.948  0.00  0.00    +0.000 A 
ATOM     25  C   UNL     1       7.331   5.289  17.203  0.00  0.00    +0.000 A 
ATOM     26  C   UNL     1       7.851   5.371  18.482  0.00  0.00    +0.000 A 
ATOM     27  C   UNL     1       6.997   5.405  19.568  0.00  0.00    +0.000 A 
ATOM     28  C   UNL     1       5.613   5.374  19.360  0.00  0.00    +0.000 A 
ATOM     29  C   UNL     1       5.058   5.301  18.063  0.00  0.00    +0.000 A 
BRANCH  24  31
ATOM     30  C   UNL     1       5.176   6.460  14.857  0.00  0.00    +0.000 C 
ATOM     31  C   UNL     1       5.508   5.096  15.491  0.00  0.00    +0.000 C 
ATOM     32  C   UNL     1       6.587   4.386  14.660  0.00  0.00    +0.000 C 
ENDBRANCH  24  31
ENDBRANCH  23  29
ENDBRANCH   1  23
TORSDOF 7
ENDMDL
MODEL 6
REMARK VINA RESULT:      -7.9      4.751     10.476
REMARK  Name = 
REMARK  9 active torsions:
REMARK  status: ('A' for Active; 'I' for Inactive)
REMARK    1  A    between atoms: C_1  and  C_2
REMARK    2  A    between atoms: C_2  and  C_3
REMARK    3  A    between atoms: C_2  and  C_4
REMARK    4  A    between atoms: C_9  and  S_10
REMARK    5  A    between atoms: S_10  and  C_11
REMARK    6  A    between atoms: C_14  and  C_15
REMARK    7  A    between atoms: C_16  and  C_17
REMARK    8  A    between atoms: C_22  and  C_23
REMARK    9  A    between atoms: C_23  and  O_25
REMARK                            x       y       z     vdW  Elec       q    Type
REMARK                         _______ _______ _______ _____ _____    ______ ____
ROOT
ATOM      1  C   UNL     1      -0.826  11.884  19.905  0.00  0.00    +0.000 A 
ATOM      2  C   UNL     1      -0.778  10.513  20.198  0.00  0.00    +0.000 A 
ATOM      3  C   UNL     1       0.223   9.692  19.649  0.00  0.00    +0.000 A 
ATOM      4  C   UNL     1       1.206  10.213  18.792  0.00  0.00    +0.000 A 
ATOM      5  C   UNL     1       1.266  11.620  18.650  0.00  0.00    +0.000 A 
ATOM      6 CL   UNL     1       2.620  12.363  17.842  0.00  0.00    +0.000 Cl
ATOM      7  C   UNL     1       0.256  12.446  19.203  0.00  0.00    +0.000 A 
ATOM      8 CL   UNL     1       0.384  14.180  19.055  0.00  0.00    +0.000 Cl
ENDROOT
BRANCH   4   9
ATOM      9  C   UNL     1       2.089   9.230  18.114  0.00  0.00    +0.000 C 
ATOM     10  C   UNL     1       2.321   7.983  18.572  0.00  0.00    +0.000 C 
BRANCH  10  11
ATOM     11  C   UNL     1       3.307   7.078  17.927  0.00  0.00    +0.000 C 
ATOM     12  O   UNL     1       4.242   7.556  17.291  0.00  0.00    +0.000 OA
ATOM     13  N   UNL     1       3.138   5.718  18.156  0.00  0.00    +0.000 N 
ATOM     14  C   UNL     1       4.230   4.799  17.863  0.00  0.00    +0.000 C 
ATOM     15  C   UNL     1       3.787   3.701  16.899  0.00  0.00    +0.000 C 
ATOM     16  C   UNL     1       2.510   2.990  17.368  0.00  0.00    +0.000 C 
ATOM     17  C   UNL     1       1.423   4.011  17.733  0.00  0.00    +0.000 C 
ATOM     18  C   UNL     1       1.927   5.096  18.690  0.00  0.00    +0.000 C 
BRANCH  16  19
ATOM     19  C   UNL     1       2.784   2.037  18.523  0.00  0.00    +0.000 C 
ATOM     20  O   UNL     1       3.880   1.840  19.023  0.00  0.00    +0.000 OA
BRANCH  19  21
ATOM     21  O   UNL     1       1.672   1.423  18.988  0.00  0.00    +0.000 OA
ATOM     22  H   UNL     1       0.855   1.956  18.926  0.00  0.00    +0.000 HD
ENDBRANCH  19  21
ENDBRANCH  16  19
ENDBRANCH  10  11
ENDBRANCH   4   9
BRANCH   1  23
ATOM     23  S   UNL     1      -2.200  12.879  20.509  0.00  0.00    +0.000 S 
BRANCH  23  29
ATOM     24  C   UNL     1      -4.949  12.642  19.727  0.00  0.00    +0.000 A 
ATOM     25  C   UNL     1      -5.913  12.058  18.862  0.00  0.00    +0.000 A 
ATOM     26  C   UNL     1      -5.563  11.252  17.794  0.00  0.00    +0.000 A 
ATOM     27  C   UNL     1      -4.229  10.983  17.548  0.00  0.00    +0.000 A 
ATOM     28  C   UNL     1      -3.247  11.545  18.372  0.00  0.00    +0.000 A 
ATOM     29  C   UNL     1      -3.581  12.380  19.462  0.00  0.00    +0.000 A 
BRANCH  24  31
ATOM     30  C   UNL     1      -6.912  13.973  20.619  0.00  0.00    +0.000 C 
ATOM     31  C   UNL     1      -5.487  13.459  20.898  0.00  0.00    +0.000 C 
ATOM     32  C   UNL     1      -5.473  12.649  22.202  0.00  0.00    +0.000 C 
ENDBRANCH  24  31
ENDBRANCH  23  29
ENDBRANCH   1  23
TORSDOF 7
ENDMDL
MODEL 7
REMARK VINA RESULT:      -7.8      4.624     10.119
REMARK  Name = 
REMARK  9 active torsions:
REMARK  status: ('A' for Active; 'I' for Inactive)
REMARK    1  A    between atoms: C_1  and  C_2
REMARK    2  A    between atoms: C_2  and  C_3
REMARK    3  A    between atoms: C_2  and  C_4
REMARK    4  A    between atoms: C_9  and  S_10
REMARK    5  A    between atoms: S_10  and  C_11
REMARK    6  A    between atoms: C_14  and  C_15
REMARK    7  A    between atoms: C_16  and  C_17
REMARK    8  A    between atoms: C_22  and  C_23
REMARK    9  A    between atoms: C_23  and  O_25
REMARK                            x       y       z     vdW  Elec       q    Type
REMARK                         _______ _______ _______ _____ _____    ______ ____
ROOT
ATOM      1  C   UNL     1      -0.995  11.931  19.809  0.00  0.00    +0.000 A 
ATOM      2  C   UNL     1      -0.559  11.579  18.523  0.00  0.00    +0.000 A 
ATOM      3  C   UNL     1       0.359  10.532  18.334  0.00  0.00    +0.000 A 
ATOM      4  C   UNL     1       0.870   9.803  19.420  0.00  0.00    +0.000 A 
ATOM      5  C   UNL     1       0.289  10.035  20.690  0.00  0.00    +0.000 A 
ATOM      6 CL   UNL     1       0.658   8.981  22.029  0.00  0.00    +0.000 Cl
ATOM      7  C   UNL     1      -0.635  11.091  20.880  0.00  0.00    +0.000 A 
ATOM      8 CL   UNL     1      -1.373  11.321  22.444  0.00  0.00    +0.000 Cl
ENDROOT
BRANCH   4   9
ATOM      9  C   UNL     1       1.977   8.857  19.127  0.00  0.00    +0.000 C 
ATOM     10  C   UNL     1       1.808   7.658  18.534  0.00  0.00    +0.000 C 
BRANCH  10  11
ATOM     11  C   UNL     1       2.927   6.694  18.373  0.00  0.00    +0.000 C 
ATOM     12  O   UNL     1       3.832   6.944  17.583  0.00  0.00    +0.000 OA
ATOM     13  N   UNL     1       2.906   5.580  19.203  0.00  0.00    +0.000 N 
ATOM     14  C   UNL     1       4.112   4.778  19.360  0.00  0.00    +0.000 C 
ATOM     15  C   UNL     1       3.854   3.314  19.012  0.00  0.00    +0.000 C 
ATOM     16  C   UNL     1       2.646   2.738  19.764  0.00  0.00    +0.000 C 
ATOM     17  C   UNL     1       1.429   3.662  19.624  0.00  0.00    +0.000 C 
ATOM     18  C   UNL     1       1.749   5.120  19.970  0.00  0.00    +0.000 C 
BRANCH  16  19
ATOM     19  C   UNL     1       2.967   2.463  21.225  0.00  0.00    +0.000 C 
ATOM     20  O   UNL     1       2.196   2.635  22.156  0.00  0.00    +0.000 OA
BRANCH  19  21
ATOM     21  O   UNL     1       4.211   1.966  21.417  0.00  0.00    +0.000 OA
ATOM     22  H   UNL     1       4.238   1.041  21.728  0.00  0.00    +0.000 HD
ENDBRANCH  19  21
ENDBRANCH  16  19
ENDBRANCH  10  11
ENDBRANCH   4   9
BRANCH   1  23
ATOM     23  S   UNL     1      -2.060  13.366  20.031  0.00  0.00    +0.000 S 
BRANCH  23  29
ATOM     24  C   UNL     1      -4.437  11.951  19.273  0.00  0.00    +0.000 A 
ATOM     25  C   UNL     1      -5.769  11.571  19.589  0.00  0.00    +0.000 A 
ATOM     26  C   UNL     1      -6.357  11.862  20.807  0.00  0.00    +0.000 A 
ATOM     27  C   UNL     1      -5.642  12.558  21.763  0.00  0.00    +0.000 A 
ATOM     28  C   UNL     1      -4.324  12.946  21.495  0.00  0.00    +0.000 A 
ATOM     29  C   UNL     1      -3.699  12.649  20.263  0.00  0.00    +0.000 A 
BRANCH  24  31
ATOM     30  C   UNL     1      -3.600  10.118  17.738  0.00  0.00    +0.000 C 
ATOM     31  C   UNL     1      -3.944  11.614  17.870  0.00  0.00    +0.000 C 
ATOM     32  C   UNL     1      -4.975  12.005  16.802  0.00  0.00    +0.000 C 
ENDBRANCH  24  31
ENDBRANCH  23  29
ENDBRANCH   1  23
TORSDOF 7
ENDMDL
MODEL 8
REMARK VINA RESULT:      -7.8      4.629     10.289
REMARK  Name = 
REMARK  9 active torsions:
REMARK  status: ('A' for Active; 'I' for Inactive)
REMARK    1  A    between atoms: C_1  and  C_2
REMARK    2  A    between atoms: C_2  and  C_3
REMARK    3  A    between atoms: C_2  and  C_4
REMARK    4  A    between atoms: C_9  and  S_10
REMARK    5  A    between atoms: S_10  and  C_11
REMARK    6  A    between atoms: C_14  and  C_15
REMARK    7  A    between atoms: C_16  and  C_17
REMARK    8  A    between atoms: C_22  and  C_23
REMARK    9  A    between atoms: C_23  and  O_25
REMARK                            x       y       z     vdW  Elec       q    Type
REMARK                         _______ _______ _______ _____ _____    ______ ____
ROOT
ATOM      1  C   UNL     1      -1.155  11.859  20.291  0.00  0.00    +0.000 A 
ATOM      2  C   UNL     1      -0.749  11.402  19.029  0.00  0.00    +0.000 A 
ATOM      3  C   UNL     1       0.136  10.318  18.904  0.00  0.00    +0.000 A 
ATOM      4  C   UNL     1       0.643   9.656  20.034  0.00  0.00    +0.000 A 
ATOM      5  C   UNL     1       0.088   9.995  21.290  0.00  0.00    +0.000 A 
ATOM      6 CL   UNL     1       0.448   9.031  22.698  0.00  0.00    +0.000 Cl
ATOM      7  C   UNL     1      -0.804  11.089  21.415  0.00  0.00    +0.000 A 
ATOM      8 CL   UNL     1      -1.511  11.452  22.968  0.00  0.00    +0.000 Cl
ENDROOT
BRANCH   4   9
ATOM      9  C   UNL     1       1.719   8.659  19.796  0.00  0.00    +0.000 C 
ATOM     10  C   UNL     1       1.906   8.015  18.626  0.00  0.00    +0.000 C 
BRANCH  10  11
ATOM     11  C   UNL     1       2.918   6.938  18.473  0.00  0.00    +0.000 C 
ATOM     12  O   UNL     1       3.839   7.082  17.676  0.00  0.00    +0.000 OA
ATOM     13  N   UNL     1       2.786   5.843  19.319  0.00  0.00    +0.000 N 
ATOM     14  C   UNL     1       3.903   4.922  19.482  0.00  0.00    +0.000 C 
ATOM     15  C   UNL     1       3.491   3.488  19.155  0.00  0.00    +0.000 C 
ATOM     16  C   UNL     1       2.234   3.052  19.920  0.00  0.00    +0.000 C 
ATOM     17  C   UNL     1       1.119   4.096  19.773  0.00  0.00    +0.000 C 
ATOM     18  C   UNL     1       1.592   5.517  20.098  0.00  0.00    +0.000 C 
BRANCH  16  19
ATOM     19  C   UNL     1       2.534   2.764  21.384  0.00  0.00    +0.000 C 
ATOM     20  O   UNL     1       1.798   3.044  22.318  0.00  0.00    +0.000 OA
BRANCH  19  21
ATOM     21  O   UNL     1       3.711   2.124  21.575  0.00  0.00    +0.000 OA
ATOM     22  H   UNL     1       3.746   1.563  22.374  0.00  0.00    +0.000 HD
ENDBRANCH  19  21
ENDBRANCH  16  19
ENDBRANCH  10  11
ENDBRANCH   4   9
BRANCH   1  23
ATOM     23  S   UNL     1      -2.177  13.337  20.421  0.00  0.00    +0.000 S 
BRANCH  23  29
ATOM     24  C   UNL     1      -4.884  12.765  21.177  0.00  0.00    +0.000 A 
ATOM     25  C   UNL     1      -6.108  12.107  20.881  0.00  0.00    +0.000 A 
ATOM     26  C   UNL     1      -6.319  11.427  19.696  0.00  0.00    +0.000 A 
ATOM     27  C   UNL     1      -5.309  11.364  18.753  0.00  0.00    +0.000 A 
ATOM     28  C   UNL     1      -4.090  12.006  19.002  0.00  0.00    +0.000 A 
ATOM     29  C   UNL     1      -3.856  12.715  20.202  0.00  0.00    +0.000 A 
BRANCH  24  31
ATOM     30  C   UNL     1      -4.951  14.950  22.457  0.00  0.00    +0.000 C 
ATOM     31  C   UNL     1      -4.775  13.423  22.549  0.00  0.00    +0.000 C 
ATOM     32  C   UNL     1      -5.799  12.842  23.535  0.00  0.00    +0.000 C 
ENDBRANCH  24  31
ENDBRANCH  23  29
ENDBRANCH   1  23
TORSDOF 7
ENDMDL
MODEL 9
REMARK VINA RESULT:      -7.7      4.419      9.938
REMARK  Name = 
REMARK  9 active torsions:
REMARK  status: ('A' for Active; 'I' for Inactive)
REMARK    1  A    between atoms: C_1  and  C_2
REMARK    2  A    between atoms: C_2  and  C_3
REMARK    3  A    between atoms: C_2  and  C_4
REMARK    4  A    between atoms: C_9  and  S_10
REMARK    5  A    between atoms: S_10  and  C_11
REMARK    6  A    between atoms: C_14  and  C_15
REMARK    7  A    between atoms: C_16  and  C_17
REMARK    8  A    between atoms: C_22  and  C_23
REMARK    9  A    between atoms: C_23  and  O_25
REMARK                            x       y       z     vdW  Elec       q    Type
REMARK                         _______ _______ _______ _____ _____    ______ ____
ROOT
ATOM      1  C   UNL     1      -1.208  11.434  20.167  0.00  0.00    +0.000 A 
ATOM      2  C   UNL     1      -0.936  11.140  18.823  0.00  0.00    +0.000 A 
ATOM      3  C   UNL     1       0.099  10.256  18.473  0.00  0.00    +0.000 A 
ATOM      4  C   UNL     1       0.893   9.638  19.452  0.00  0.00    +0.000 A 
ATOM      5  C   UNL     1       0.497   9.788  20.802  0.00  0.00    +0.000 A 
ATOM      6 CL   UNL     1       1.248   8.829  22.049  0.00  0.00    +0.000 Cl
ATOM      7  C   UNL     1      -0.546  10.681  21.154  0.00  0.00    +0.000 A 
ATOM      8 CL   UNL     1      -1.046  10.807  22.821  0.00  0.00    +0.000 Cl
ENDROOT
BRANCH   4   9
ATOM      9  C   UNL     1       2.079   8.883  18.970  0.00  0.00    +0.000 C 
ATOM     10  C   UNL     1       2.011   7.814  18.150  0.00  0.00    +0.000 C 
BRANCH  10  11
ATOM     11  C   UNL     1       3.213   7.018  17.794  0.00  0.00    +0.000 C 
ATOM     12  O   UNL     1       4.035   7.481  17.010  0.00  0.00    +0.000 OA
ATOM     13  N   UNL     1       3.362   5.800  18.446  0.00  0.00    +0.000 N 
ATOM     14  C   UNL     1       4.653   5.126  18.425  0.00  0.00    +0.000 C 
ATOM     15  C   UNL     1       4.530   3.708  17.872  0.00  0.00    +0.000 C 
ATOM     16  C   UNL     1       3.438   2.896  18.584  0.00  0.00    +0.000 C 
ATOM     17  C   UNL     1       2.124   3.687  18.641  0.00  0.00    +0.000 C 
ATOM     18  C   UNL     1       2.310   5.105  19.188  0.00  0.00    +0.000 C 
BRANCH  16  19
ATOM     19  C   UNL     1       3.878   2.450  19.971  0.00  0.00    +0.000 C 
ATOM     20  O   UNL     1       3.192   2.518  20.978  0.00  0.00    +0.000 OA
BRANCH  19  21
ATOM     21  O   UNL     1       5.125   1.926  19.995  0.00  0.00    +0.000 OA
ATOM     22  H   UNL     1       5.845   2.580  19.907  0.00  0.00    +0.000 HD
ENDBRANCH  19  21
ENDBRANCH  16  19
ENDBRANCH  10  11
ENDBRANCH   4   9
BRANCH   1  23
ATOM     23  S   UNL     1      -2.445  12.677  20.578  0.00  0.00    +0.000 S 
BRANCH  23  29
ATOM     24  C   UNL     1      -0.548  14.827  20.655  0.00  0.00    +0.000 A 
ATOM     25  C   UNL     1       0.219  15.734  21.434  0.00  0.00    +0.000 A 
ATOM     26  C   UNL     1       0.088  15.830  22.808  0.00  0.00    +0.000 A 
ATOM     27  C   UNL     1      -0.811  15.014  23.468  0.00  0.00    +0.000 A 
ATOM     28  C   UNL     1      -1.592  14.111  22.737  0.00  0.00    +0.000 A 
ATOM     29  C   UNL     1      -1.483  14.003  21.332  0.00  0.00    +0.000 A 
BRANCH  24  31
ATOM     30  C   UNL     1      -0.330  16.196  18.535  0.00  0.00    +0.000 C 
ATOM     31  C   UNL     1      -0.252  14.790  19.159  0.00  0.00    +0.000 C 
ATOM     32  C   UNL     1       1.123  14.170  18.873  0.00  0.00    +0.000 C 
ENDBRANCH  24  31
ENDBRANCH  23  29
ENDBRANCH   1  23
TORSDOF 7
ENDMDL
