MODEL 1
REMARK VINA RESULT:      -9.5      0.000      0.000
REMARK  Name = 
REMARK  7 active torsions:
REMARK  status: ('A' for Active; 'I' for Inactive)
REMARK    1  A    between atoms: O_1  and  C_2
REMARK    2  A    between atoms: C_5  and  O_6
REMARK    3  A    between atoms: O_6  and  C_7
REMARK    4  A    between atoms: C_11  and  C_12
REMARK    5  A    between atoms: C_13  and  C_14
REMARK    6  A    between atoms: C_14  and  C_15
REMARK    7  A    between atoms: C_24  and  C_25
REMARK                            x       y       z     vdW  Elec       q    Type
REMARK                         _______ _______ _______ _____ _____    ______ ____
ROOT
ATOM      1  C   UNL     1       3.062   6.326  17.851  0.00  0.00    +0.000 A 
ATOM      2  C   UNL     1       2.490   7.462  18.415  0.00  0.00    +0.000 A 
ATOM      3  C   UNL     1       2.328   7.367  19.782  0.00  0.00    +0.000 A 
ATOM      4  N   UNL     1       2.232   6.167  20.404  0.00  0.00    +0.000 NA
ATOM      5  C   UNL     1       2.065   5.084  19.597  0.00  0.00    +0.000 A 
ATOM      6  C   UNL     1       1.785   3.808  20.068  0.00  0.00    +0.000 A 
ATOM      7  C   UNL     1       1.125   2.894  19.222  0.00  0.00    +0.000 A 
ATOM      8  C   UNL     1       0.892   3.235  17.899  0.00  0.00    +0.000 A 
ATOM      9  C   UNL     1       1.532   4.359  17.366  0.00  0.00    +0.000 A 
ATOM     10  C   UNL     1       2.247   5.227  18.222  0.00  0.00    +0.000 A 
ENDROOT
BRANCH   1  15
ATOM     11  C   UNL     1       7.015   6.806  17.700  0.00  0.00    +0.000 A 
ATOM     12  C   UNL     1       7.496   5.863  18.585  0.00  0.00    +0.000 A 
ATOM     13  C   UNL     1       6.553   5.122  19.332  0.00  0.00    +0.000 A 
ATOM     14  C   UNL     1       5.138   5.264  19.174  0.00  0.00    +0.000 A 
ATOM     15  C   UNL     1       4.614   6.157  18.226  0.00  0.00    +0.000 A 
ATOM     16  C   UNL     1       5.623   6.906  17.560  0.00  0.00    +0.000 A 
BRANCH  11  17
ATOM     17  O   UNL     1       7.676   7.900  17.179  0.00  0.00    +0.000 OA
BRANCH  17  21
ATOM     18  C   UNL     1       9.218  11.341  18.930  0.00  0.00    +0.000 A 
ATOM     19  C   UNL     1       8.377  11.452  17.822  0.00  0.00    +0.000 A 
ATOM     20  C   UNL     1       7.756  10.311  17.284  0.00  0.00    +0.000 A 
ATOM     21  C   UNL     1       7.968   9.060  17.860  0.00  0.00    +0.000 A 
ATOM     22  C   UNL     1       8.866   8.967  18.940  0.00  0.00    +0.000 A 
ATOM     23  C   UNL     1       9.484  10.102  19.480  0.00  0.00    +0.000 A 
BRANCH  18  24
ATOM     24  O   UNL     1       9.800  12.431  19.496  0.00  0.00    +0.000 OA
ATOM     25  H   UNL     1      10.031  12.215  20.410  0.00  0.00    +0.000 HD
ENDBRANCH  18  24
ENDBRANCH  17  21
ENDBRANCH  11  17
ENDBRANCH   1  15
BRANCH   6  26
ATOM     26  C   UNL     1       2.340   3.371  21.389  0.00  0.00    +0.000 C 
ATOM     27  F   UNL     1       2.630   4.376  22.258  0.00  0.00    +0.000 F 
ATOM     28  F   UNL     1       1.527   2.509  22.063  0.00  0.00    +0.000 F 
ATOM     29  F   UNL     1       3.526   2.700  21.235  0.00  0.00    +0.000 F 
ENDBRANCH   6  26
BRANCH   2  30
ATOM     30  C   UNL     1       1.691   8.490  17.617  0.00  0.00    +0.000 C 
BRANCH  30  31
ATOM     31  C   UNL     1       1.330   9.848  18.252  0.00  0.00    +0.000 A 
ATOM     32  C   UNL     1       2.163  10.978  18.182  0.00  0.00    +0.000 A 
ATOM     33  C   UNL     1       1.741  12.245  18.620  0.00  0.00    +0.000 A 
ATOM     34  C   UNL     1       0.455  12.422  19.128  0.00  0.00    +0.000 A 
ATOM     35  C   UNL     1      -0.395  11.327  19.213  0.00  0.00    +0.000 A 
ATOM     36  C   UNL     1       0.042  10.060  18.783  0.00  0.00    +0.000 A 
ENDBRANCH  30  31
ENDBRANCH   2  30
TORSDOF 7
ENDMDL
MODEL 2
REMARK VINA RESULT:      -9.3      2.678      4.184
REMARK  Name = 
REMARK  7 active torsions:
REMARK  status: ('A' for Active; 'I' for Inactive)
REMARK    1  A    between atoms: O_1  and  C_2
REMARK    2  A    between atoms: C_5  and  O_6
REMARK    3  A    between atoms: O_6  and  C_7
REMARK    4  A    between atoms: C_11  and  C_12
REMARK    5  A    between atoms: C_13  and  C_14
REMARK    6  A    between atoms: C_14  and  C_15
REMARK    7  A    between atoms: C_24  and  C_25
REMARK                            x       y       z     vdW  Elec       q    Type
REMARK                         _______ _______ _______ _____ _____    ______ ____
ROOT
ATOM      1  C   UNL     1       2.863   6.057  17.840  0.00  0.00    +0.000 A 
ATOM      2  C   UNL     1       2.394   7.208  18.465  0.00  0.00    +0.000 A 
ATOM      3  C   UNL     1       2.372   7.107  19.842  0.00  0.00    +0.000 A 
ATOM      4  N   UNL     1       2.299   5.906  20.465  0.00  0.00    +0.000 NA
ATOM      5  C   UNL     1       2.011   4.836  19.675  0.00  0.00    +0.000 A 
ATOM      6  C   UNL     1       1.738   3.567  20.167  0.00  0.00    +0.000 A 
ATOM      7  C   UNL     1       0.962   2.683  19.390  0.00  0.00    +0.000 A 
ATOM      8  C   UNL     1       0.604   3.042  18.100  0.00  0.00    +0.000 A 
ATOM      9  C   UNL     1       1.223   4.147  17.509  0.00  0.00    +0.000 A 
ATOM     10  C   UNL     1       2.054   4.984  18.289  0.00  0.00    +0.000 A 
ENDROOT
BRANCH   1  15
ATOM     11  C   UNL     1       6.689   5.376  16.959  0.00  0.00    +0.000 A 
ATOM     12  C   UNL     1       7.285   5.201  18.191  0.00  0.00    +0.000 A 
ATOM     13  C   UNL     1       6.490   5.405  19.341  0.00  0.00    +0.000 A 
ATOM     14  C   UNL     1       5.097   5.725  19.286  0.00  0.00    +0.000 A 
ATOM     15  C   UNL     1       4.440   5.832  18.050  0.00  0.00    +0.000 A 
ATOM     16  C   UNL     1       5.319   5.674  16.944  0.00  0.00    +0.000 A 
BRANCH  11  17
ATOM     17  O   UNL     1       7.298   5.637  15.748  0.00  0.00    +0.000 OA
BRANCH  17  21
ATOM     18  C   UNL     1       6.432   3.611  12.222  0.00  0.00    +0.000 A 
ATOM     19  C   UNL     1       7.385   4.631  12.212  0.00  0.00    +0.000 A 
ATOM     20  C   UNL     1       7.773   5.253  13.412  0.00  0.00    +0.000 A 
ATOM     21  C   UNL     1       7.217   4.847  14.624  0.00  0.00    +0.000 A 
ATOM     22  C   UNL     1       6.217   3.858  14.599  0.00  0.00    +0.000 A 
ATOM     23  C   UNL     1       5.829   3.235  13.407  0.00  0.00    +0.000 A 
BRANCH  18  24
ATOM     24  O   UNL     1       6.066   2.966  11.084  0.00  0.00    +0.000 OA
ATOM     25  H   UNL     1       6.647   2.202  10.964  0.00  0.00    +0.000 HD
ENDBRANCH  18  24
ENDBRANCH  17  21
ENDBRANCH  11  17
ENDBRANCH   1  15
BRANCH   6  26
ATOM     26  C   UNL     1       2.411   3.100  21.421  0.00  0.00    +0.000 C 
ATOM     27  F   UNL     1       3.662   2.592  21.253  0.00  0.00    +0.000 F 
ATOM     28  F   UNL     1       2.519   4.067  22.374  0.00  0.00    +0.000 F 
ATOM     29  F   UNL     1       1.708   2.085  22.017  0.00  0.00    +0.000 F 
ENDBRANCH   6  26
BRANCH   2  30
ATOM     30  C   UNL     1       1.552   8.269  17.759  0.00  0.00    +0.000 C 
BRANCH  30  31
ATOM     31  C   UNL     1       1.400   9.672  18.381  0.00  0.00    +0.000 A 
ATOM     32  C   UNL     1       2.249  10.748  18.072  0.00  0.00    +0.000 A 
ATOM     33  C   UNL     1       1.991  12.055  18.519  0.00  0.00    +0.000 A 
ATOM     34  C   UNL     1       0.856  12.327  19.281  0.00  0.00    +0.000 A 
ATOM     35  C   UNL     1      -0.005  11.287  19.607  0.00  0.00    +0.000 A 
ATOM     36  C   UNL     1       0.270   9.979  19.164  0.00  0.00    +0.000 A 
ENDBRANCH  30  31
ENDBRANCH   2  30
TORSDOF 7
ENDMDL
MODEL 3
REMARK VINA RESULT:      -9.2      2.708      4.183
REMARK  Name = 
REMARK  7 active torsions:
REMARK  status: ('A' for Active; 'I' for Inactive)
REMARK    1  A    between atoms: O_1  and  C_2
REMARK    2  A    between atoms: C_5  and  O_6
REMARK    3  A    between atoms: O_6  and  C_7
REMARK    4  A    between atoms: C_11  and  C_12
REMARK    5  A    between atoms: C_13  and  C_14
REMARK    6  A    between atoms: C_14  and  C_15
REMARK    7  A    between atoms: C_24  and  C_25
REMARK                            x       y       z     vdW  Elec       q    Type
REMARK                         _______ _______ _______ _____ _____    ______ ____
ROOT
ATOM      1  C   UNL     1       2.915   6.073  17.829  0.00  0.00    +0.000 A 
ATOM      2  C   UNL     1       2.462   7.228  18.459  0.00  0.00    +0.000 A 
ATOM      3  C   UNL     1       2.436   7.122  19.835  0.00  0.00    +0.000 A 
ATOM      4  N   UNL     1       2.343   5.919  20.453  0.00  0.00    +0.000 NA
ATOM      5  C   UNL     1       2.041   4.857  19.657  0.00  0.00    +0.000 A 
ATOM      6  C   UNL     1       1.747   3.591  20.143  0.00  0.00    +0.000 A 
ATOM      7  C   UNL     1       0.958   2.723  19.361  0.00  0.00    +0.000 A 
ATOM      8  C   UNL     1       0.608   3.093  18.072  0.00  0.00    +0.000 A 
ATOM      9  C   UNL     1       1.246   4.191  17.487  0.00  0.00    +0.000 A 
ATOM     10  C   UNL     1       2.088   5.011  18.272  0.00  0.00    +0.000 A 
ENDROOT
BRANCH   1  15
ATOM     11  C   UNL     1       6.725   5.300  16.955  0.00  0.00    +0.000 A 
ATOM     12  C   UNL     1       7.321   5.141  18.189  0.00  0.00    +0.000 A 
ATOM     13  C   UNL     1       6.532   5.385  19.336  0.00  0.00    +0.000 A 
ATOM     14  C   UNL     1       5.145   5.731  19.277  0.00  0.00    +0.000 A 
ATOM     15  C   UNL     1       4.487   5.823  18.040  0.00  0.00    +0.000 A 
ATOM     16  C   UNL     1       5.360   5.624  16.937  0.00  0.00    +0.000 A 
BRANCH  11  17
ATOM     17  O   UNL     1       7.335   5.523  15.737  0.00  0.00    +0.000 OA
BRANCH  17  21
ATOM     18  C   UNL     1       6.588   3.535  12.163  0.00  0.00    +0.000 A 
ATOM     19  C   UNL     1       5.772   3.291  13.268  0.00  0.00    +0.000 A 
ATOM     20  C   UNL     1       5.936   4.033  14.451  0.00  0.00    +0.000 A 
ATOM     21  C   UNL     1       6.911   5.027  14.525  0.00  0.00    +0.000 A 
ATOM     22  C   UNL     1       7.759   5.212  13.418  0.00  0.00    +0.000 A 
ATOM     23  C   UNL     1       7.596   4.477  12.238  0.00  0.00    +0.000 A 
BRANCH  18  24
ATOM     24  O   UNL     1       6.427   2.861  10.994  0.00  0.00    +0.000 OA
ATOM     25  H   UNL     1       5.590   2.376  11.033  0.00  0.00    +0.000 HD
ENDBRANCH  18  24
ENDBRANCH  17  21
ENDBRANCH  11  17
ENDBRANCH   1  15
BRANCH   6  26
ATOM     26  C   UNL     1       2.411   3.108  21.396  0.00  0.00    +0.000 C 
ATOM     27  F   UNL     1       2.562   4.045  22.371  0.00  0.00    +0.000 F 
ATOM     28  F   UNL     1       1.774   2.054  21.979  0.00  0.00    +0.000 F 
ATOM     29  F   UNL     1       3.685   2.666  21.147  0.00  0.00    +0.000 F 
ENDBRANCH   6  26
BRANCH   2  30
ATOM     30  C   UNL     1       1.638   8.305  17.757  0.00  0.00    +0.000 C 
BRANCH  30  31
ATOM     31  C   UNL     1       1.431   9.678  18.428  0.00  0.00    +0.000 A 
ATOM     32  C   UNL     1       2.184  10.819  18.100  0.00  0.00    +0.000 A 
ATOM     33  C   UNL     1       1.866  12.093  18.601  0.00  0.00    +0.000 A 
ATOM     34  C   UNL     1       0.766  12.265  19.438  0.00  0.00    +0.000 A 
ATOM     35  C   UNL     1      -0.001  11.160  19.785  0.00  0.00    +0.000 A 
ATOM     36  C   UNL     1       0.334   9.886  19.287  0.00  0.00    +0.000 A 
ENDBRANCH  30  31
ENDBRANCH   2  30
TORSDOF 7
ENDMDL
MODEL 4
REMARK VINA RESULT:      -9.2      3.815      7.018
REMARK  Name = 
REMARK  7 active torsions:
REMARK  status: ('A' for Active; 'I' for Inactive)
REMARK    1  A    between atoms: O_1  and  C_2
REMARK    2  A    between atoms: C_5  and  O_6
REMARK    3  A    between atoms: O_6  and  C_7
REMARK    4  A    between atoms: C_11  and  C_12
REMARK    5  A    between atoms: C_13  and  C_14
REMARK    6  A    between atoms: C_14  and  C_15
REMARK    7  A    between atoms: C_24  and  C_25
REMARK                            x       y       z     vdW  Elec       q    Type
REMARK                         _______ _______ _______ _____ _____    ______ ____
ROOT
ATOM      1  C   UNL     1       4.851   4.981  18.010  0.00  0.00    +0.000 A 
ATOM      2  C   UNL     1       5.011   4.492  16.718  0.00  0.00    +0.000 A 
ATOM      3  C   UNL     1       3.859   3.932  16.203  0.00  0.00    +0.000 A 
ATOM      4  N   UNL     1       2.885   3.443  17.009  0.00  0.00    +0.000 NA
ATOM      5  C   UNL     1       3.202   3.318  18.326  0.00  0.00    +0.000 A 
ATOM      6  C   UNL     1       2.389   2.686  19.256  0.00  0.00    +0.000 A 
ATOM      7  C   UNL     1       2.973   2.138  20.417  0.00  0.00    +0.000 A 
ATOM      8  C   UNL     1       4.317   2.358  20.675  0.00  0.00    +0.000 A 
ATOM      9  C   UNL     1       5.001   3.319  19.923  0.00  0.00    +0.000 A 
ATOM     10  C   UNL     1       4.373   3.907  18.802  0.00  0.00    +0.000 A 
ENDROOT
BRANCH   1  15
ATOM     11  C   UNL     1       2.137   7.595  19.308  0.00  0.00    +0.000 A 
ATOM     12  C   UNL     1       2.048   8.514  18.283  0.00  0.00    +0.000 A 
ATOM     13  C   UNL     1       2.939   8.374  17.195  0.00  0.00    +0.000 A 
ATOM     14  C   UNL     1       3.880   7.301  17.083  0.00  0.00    +0.000 A 
ATOM     15  C   UNL     1       3.941   6.304  18.068  0.00  0.00    +0.000 A 
ATOM     16  C   UNL     1       3.059   6.549  19.155  0.00  0.00    +0.000 A 
BRANCH  11  17
ATOM     17  O   UNL     1       1.702   7.728  20.611  0.00  0.00    +0.000 OA
BRANCH  17  21
ATOM     18  C   UNL     1      -0.446  10.692  22.582  0.00  0.00    +0.000 A 
ATOM     19  C   UNL     1       0.389  11.041  21.521  0.00  0.00    +0.000 A 
ATOM     20  C   UNL     1       1.037  10.044  20.769  0.00  0.00    +0.000 A 
ATOM     21  C   UNL     1       0.842   8.698  21.073  0.00  0.00    +0.000 A 
ATOM     22  C   UNL     1       0.042   8.376  22.185  0.00  0.00    +0.000 A 
ATOM     23  C   UNL     1      -0.607   9.365  22.934  0.00  0.00    +0.000 A 
BRANCH  18  24
ATOM     24  O   UNL     1      -1.116  11.630  23.301  0.00  0.00    +0.000 OA
ATOM     25  H   UNL     1      -0.761  12.501  23.074  0.00  0.00    +0.000 HD
ENDBRANCH  18  24
ENDBRANCH  17  21
ENDBRANCH  11  17
ENDBRANCH   1  15
BRANCH   6  26
ATOM     26  C   UNL     1       0.900   2.750  19.101  0.00  0.00    +0.000 C 
ATOM     27  F   UNL     1       0.341   1.703  18.438  0.00  0.00    +0.000 F 
ATOM     28  F   UNL     1       0.233   2.850  20.285  0.00  0.00    +0.000 F 
ATOM     29  F   UNL     1       0.522   3.853  18.380  0.00  0.00    +0.000 F 
ENDBRANCH   6  26
BRANCH   2  30
ATOM     30  C   UNL     1       6.369   4.157  16.105  0.00  0.00    +0.000 C 
BRANCH  30  31
ATOM     31  C   UNL     1       6.601   4.353  14.592  0.00  0.00    +0.000 A 
ATOM     32  C   UNL     1       7.549   5.247  14.068  0.00  0.00    +0.000 A 
ATOM     33  C   UNL     1       7.860   5.287  12.698  0.00  0.00    +0.000 A 
ATOM     34  C   UNL     1       7.239   4.411  11.809  0.00  0.00    +0.000 A 
ATOM     35  C   UNL     1       6.295   3.513  12.293  0.00  0.00    +0.000 A 
ATOM     36  C   UNL     1       5.983   3.491  13.665  0.00  0.00    +0.000 A 
ENDBRANCH  30  31
ENDBRANCH   2  30
TORSDOF 7
ENDMDL
MODEL 5
REMARK VINA RESULT:      -9.1      4.501      7.552
REMARK  Name = 
REMARK  7 active torsions:
REMARK  status: ('A' for Active; 'I' for Inactive)
REMARK    1  A    between atoms: O_1  and  C_2
REMARK    2  A    between atoms: C_5  and  O_6
REMARK    3  A    between atoms: O_6  and  C_7
REMARK    4  A    between atoms: C_11  and  C_12
REMARK    5  A    between atoms: C_13  and  C_14
REMARK    6  A    between atoms: C_14  and  C_15
REMARK    7  A    between atoms: C_24  and  C_25
REMARK                            x       y       z     vdW  Elec       q    Type
REMARK                         _______ _______ _______ _____ _____    ______ ____
ROOT
ATOM      1  C   UNL     1       0.644  11.190  19.139  0.00  0.00    +0.000 A 
ATOM      2  C   UNL     1       1.654  12.129  19.325  0.00  0.00    +0.000 A 
ATOM      3  C   UNL     1       1.750  12.572  20.629  0.00  0.00    +0.000 A 
ATOM      4  N   UNL     1       0.694  12.520  21.476  0.00  0.00    +0.000 NA
ATOM      5  C   UNL     1      -0.513  12.235  20.915  0.00  0.00    +0.000 A 
ATOM      6  C   UNL     1      -1.716  12.304  21.603  0.00  0.00    +0.000 A 
ATOM      7  C   UNL     1      -2.908  12.515  20.880  0.00  0.00    +0.000 A 
ATOM      8  C   UNL     1      -2.875  12.514  19.494  0.00  0.00    +0.000 A 
ATOM      9  C   UNL     1      -1.725  12.055  18.845  0.00  0.00    +0.000 A 
ATOM     10  C   UNL     1      -0.559  11.782  19.597  0.00  0.00    +0.000 A 
ENDROOT
BRANCH   1  15
ATOM     11  C   UNL     1       2.042   7.478  19.523  0.00  0.00    +0.000 A 
ATOM     12  C   UNL     1       1.532   7.058  20.734  0.00  0.00    +0.000 A 
ATOM     13  C   UNL     1       0.815   7.997  21.507  0.00  0.00    +0.000 A 
ATOM     14  C   UNL     1       0.547   9.334  21.071  0.00  0.00    +0.000 A 
ATOM     15  C   UNL     1       0.982   9.770  19.809  0.00  0.00    +0.000 A 
ATOM     16  C   UNL     1       1.745   8.789  19.121  0.00  0.00    +0.000 A 
BRANCH  11  17
ATOM     17  O   UNL     1       3.077   6.926  18.797  0.00  0.00    +0.000 OA
BRANCH  17  21
ATOM     18  C   UNL     1       3.116   2.811  18.205  0.00  0.00    +0.000 A 
ATOM     19  C   UNL     1       2.022   3.557  17.767  0.00  0.00    +0.000 A 
ATOM     20  C   UNL     1       2.037   4.961  17.856  0.00  0.00    +0.000 A 
ATOM     21  C   UNL     1       3.151   5.619  18.373  0.00  0.00    +0.000 A 
ATOM     22  C   UNL     1       4.216   4.840  18.862  0.00  0.00    +0.000 A 
ATOM     23  C   UNL     1       4.206   3.443  18.773  0.00  0.00    +0.000 A 
BRANCH  18  24
ATOM     24  O   UNL     1       3.146   1.457  18.096  0.00  0.00    +0.000 OA
ATOM     25  H   UNL     1       4.016   1.195  17.764  0.00  0.00    +0.000 HD
ENDBRANCH  18  24
ENDBRANCH  17  21
ENDBRANCH  11  17
ENDBRANCH   1  15
BRANCH   6  26
ATOM     26  C   UNL     1      -1.752  11.978  23.065  0.00  0.00    +0.000 C 
ATOM     27  F   UNL     1      -2.992  11.770  23.583  0.00  0.00    +0.000 F 
ATOM     28  F   UNL     1      -1.013  10.883  23.398  0.00  0.00    +0.000 F 
ATOM     29  F   UNL     1      -1.236  13.003  23.816  0.00  0.00    +0.000 F 
ENDBRANCH   6  26
BRANCH   2  30
ATOM     30  C   UNL     1       2.267  12.945  18.189  0.00  0.00    +0.000 C 
BRANCH  30  31
ATOM     31  C   UNL     1       2.209  14.486  18.227  0.00  0.00    +0.000 A 
ATOM     32  C   UNL     1       3.191  15.309  17.653  0.00  0.00    +0.000 A 
ATOM     33  C   UNL     1       3.034  16.702  17.552  0.00  0.00    +0.000 A 
ATOM     34  C   UNL     1       1.869  17.313  18.013  0.00  0.00    +0.000 A 
ATOM     35  C   UNL     1       0.876  16.530  18.588  0.00  0.00    +0.000 A 
ATOM     36  C   UNL     1       1.050  15.138  18.694  0.00  0.00    +0.000 A 
ENDBRANCH  30  31
ENDBRANCH   2  30
TORSDOF 7
ENDMDL
MODEL 6
REMARK VINA RESULT:      -9.1      2.741      4.299
REMARK  Name = 
REMARK  7 active torsions:
REMARK  status: ('A' for Active; 'I' for Inactive)
REMARK    1  A    between atoms: O_1  and  C_2
REMARK    2  A    between atoms: C_5  and  O_6
REMARK    3  A    between atoms: O_6  and  C_7
REMARK    4  A    between atoms: C_11  and  C_12
REMARK    5  A    between atoms: C_13  and  C_14
REMARK    6  A    between atoms: C_14  and  C_15
REMARK    7  A    between atoms: C_24  and  C_25
REMARK                            x       y       z     vdW  Elec       q    Type
REMARK                         _______ _______ _______ _____ _____    ______ ____
ROOT
ATOM      1  C   UNL     1       2.917   6.032  17.838  0.00  0.00    +0.000 A 
ATOM      2  C   UNL     1       2.464   7.191  18.461  0.00  0.00    +0.000 A 
ATOM      3  C   UNL     1       2.444   7.094  19.838  0.00  0.00    +0.000 A 
ATOM      4  N   UNL     1       2.357   5.896  20.465  0.00  0.00    +0.000 NA
ATOM      5  C   UNL     1       2.054   4.828  19.678  0.00  0.00    +0.000 A 
ATOM      6  C   UNL     1       1.765   3.564  20.175  0.00  0.00    +0.000 A 
ATOM      7  C   UNL     1       0.976   2.688  19.402  0.00  0.00    +0.000 A 
ATOM      8  C   UNL     1       0.619   3.048  18.112  0.00  0.00    +0.000 A 
ATOM      9  C   UNL     1       1.252   4.143  17.516  0.00  0.00    +0.000 A 
ATOM     10  C   UNL     1       2.095   4.971  18.292  0.00  0.00    +0.000 A 
ENDROOT
BRANCH   1  15
ATOM     11  C   UNL     1       6.730   5.291  16.950  0.00  0.00    +0.000 A 
ATOM     12  C   UNL     1       7.328   5.119  18.181  0.00  0.00    +0.000 A 
ATOM     13  C   UNL     1       6.540   5.343  19.332  0.00  0.00    +0.000 A 
ATOM     14  C   UNL     1       5.151   5.682  19.279  0.00  0.00    +0.000 A 
ATOM     15  C   UNL     1       4.491   5.787  18.044  0.00  0.00    +0.000 A 
ATOM     16  C   UNL     1       5.364   5.607  16.937  0.00  0.00    +0.000 A 
BRANCH  11  17
ATOM     17  O   UNL     1       7.339   5.533  15.735  0.00  0.00    +0.000 OA
BRANCH  17  21
ATOM     18  C   UNL     1       6.596   3.574  12.144  0.00  0.00    +0.000 A 
ATOM     19  C   UNL     1       5.770   3.331  13.242  0.00  0.00    +0.000 A 
ATOM     20  C   UNL     1       5.934   4.065  14.430  0.00  0.00    +0.000 A 
ATOM     21  C   UNL     1       6.917   5.049  14.517  0.00  0.00    +0.000 A 
ATOM     22  C   UNL     1       7.774   5.232  13.416  0.00  0.00    +0.000 A 
ATOM     23  C   UNL     1       7.612   4.505  12.231  0.00  0.00    +0.000 A 
BRANCH  18  24
ATOM     24  O   UNL     1       6.436   2.908  10.970  0.00  0.00    +0.000 OA
ATOM     25  H   UNL     1       5.935   3.472  10.364  0.00  0.00    +0.000 HD
ENDBRANCH  18  24
ENDBRANCH  17  21
ENDBRANCH  11  17
ENDBRANCH   1  15
BRANCH   6  26
ATOM     26  C   UNL     1       2.436   3.092  21.429  0.00  0.00    +0.000 C 
ATOM     27  F   UNL     1       3.687   2.584  21.261  0.00  0.00    +0.000 F 
ATOM     28  F   UNL     1       2.542   4.055  22.386  0.00  0.00    +0.000 F 
ATOM     29  F   UNL     1       1.731   2.074  22.019  0.00  0.00    +0.000 F 
ENDBRANCH   6  26
BRANCH   2  30
ATOM     30  C   UNL     1       1.635   8.260  17.754  0.00  0.00    +0.000 C 
BRANCH  30  31
ATOM     31  C   UNL     1       1.364   9.611  18.449  0.00  0.00    +0.000 A 
ATOM     32  C   UNL     1       0.585   9.737  19.611  0.00  0.00    +0.000 A 
ATOM     33  C   UNL     1       0.491  10.947  20.319  0.00  0.00    +0.000 A 
ATOM     34  C   UNL     1       1.196  12.071  19.890  0.00  0.00    +0.000 A 
ATOM     35  C   UNL     1       1.976  11.982  18.744  0.00  0.00    +0.000 A 
ATOM     36  C   UNL     1       2.053  10.768  18.036  0.00  0.00    +0.000 A 
ENDBRANCH  30  31
ENDBRANCH   2  30
TORSDOF 7
ENDMDL
MODEL 7
REMARK VINA RESULT:      -9.0      4.402      7.444
REMARK  Name = 
REMARK  7 active torsions:
REMARK  status: ('A' for Active; 'I' for Inactive)
REMARK    1  A    between atoms: O_1  and  C_2
REMARK    2  A    between atoms: C_5  and  O_6
REMARK    3  A    between atoms: O_6  and  C_7
REMARK    4  A    between atoms: C_11  and  C_12
REMARK    5  A    between atoms: C_13  and  C_14
REMARK    6  A    between atoms: C_14  and  C_15
REMARK    7  A    between atoms: C_24  and  C_25
REMARK                            x       y       z     vdW  Elec       q    Type
REMARK                         _______ _______ _______ _____ _____    ______ ____
ROOT
ATOM      1  C   UNL     1       0.652  11.124  19.063  0.00  0.00    +0.000 A 
ATOM      2  C   UNL     1       1.669  12.056  19.243  0.00  0.00    +0.000 A 
ATOM      3  C   UNL     1       1.790  12.482  20.550  0.00  0.00    +0.000 A 
ATOM      4  N   UNL     1       0.749  12.424  21.416  0.00  0.00    +0.000 NA
ATOM      5  C   UNL     1      -0.468  12.151  20.872  0.00  0.00    +0.000 A 
ATOM      6  C   UNL     1      -1.659  12.216  21.582  0.00  0.00    +0.000 A 
ATOM      7  C   UNL     1      -2.862  12.442  20.883  0.00  0.00    +0.000 A 
ATOM      8  C   UNL     1      -2.854  12.459  19.497  0.00  0.00    +0.000 A 
ATOM      9  C   UNL     1      -1.717  12.004  18.822  0.00  0.00    +0.000 A 
ATOM     10  C   UNL     1      -0.540  11.716  19.550  0.00  0.00    +0.000 A 
ENDROOT
BRANCH   1  15
ATOM     11  C   UNL     1       2.176   7.461  19.432  0.00  0.00    +0.000 A 
ATOM     12  C   UNL     1       1.586   6.973  20.580  0.00  0.00    +0.000 A 
ATOM     13  C   UNL     1       0.765   7.851  21.322  0.00  0.00    +0.000 A 
ATOM     14  C   UNL     1       0.476   9.191  20.912  0.00  0.00    +0.000 A 
ATOM     15  C   UNL     1       0.995   9.694  19.709  0.00  0.00    +0.000 A 
ATOM     16  C   UNL     1       1.856   8.773  19.053  0.00  0.00    +0.000 A 
BRANCH  11  17
ATOM     17  O   UNL     1       3.292   6.981  18.779  0.00  0.00    +0.000 OA
BRANCH  17  21
ATOM     18  C   UNL     1       3.730   2.856  18.499  0.00  0.00    +0.000 A 
ATOM     19  C   UNL     1       2.683   3.482  17.823  0.00  0.00    +0.000 A 
ATOM     20  C   UNL     1       2.582   4.885  17.812  0.00  0.00    +0.000 A 
ATOM     21  C   UNL     1       3.535   5.661  18.470  0.00  0.00    +0.000 A 
ATOM     22  C   UNL     1       4.546   5.003  19.193  0.00  0.00    +0.000 A 
ATOM     23  C   UNL     1       4.651   3.607  19.204  0.00  0.00    +0.000 A 
BRANCH  18  24
ATOM     24  O   UNL     1       3.875   1.505  18.494  0.00  0.00    +0.000 OA
ATOM     25  H   UNL     1       3.219   1.128  17.891  0.00  0.00    +0.000 HD
ENDBRANCH  18  24
ENDBRANCH  17  21
ENDBRANCH  11  17
ENDBRANCH   1  15
BRANCH   6  26
ATOM     26  C   UNL     1      -1.671  11.872  23.040  0.00  0.00    +0.000 C 
ATOM     27  F   UNL     1      -0.955  10.767  23.380  0.00  0.00    +0.000 F 
ATOM     28  F   UNL     1      -1.220  12.878  23.841  0.00  0.00    +0.000 F 
ATOM     29  F   UNL     1      -2.942  11.604  23.480  0.00  0.00    +0.000 F 
ENDBRANCH   6  26
BRANCH   2  30
ATOM     30  C   UNL     1       2.266  12.884  18.107  0.00  0.00    +0.000 C 
BRANCH  30  31
ATOM     31  C   UNL     1       2.121  14.420  18.113  0.00  0.00    +0.000 A 
ATOM     32  C   UNL     1       1.014  15.087  18.664  0.00  0.00    +0.000 A 
ATOM     33  C   UNL     1       0.981  16.485  18.809  0.00  0.00    +0.000 A 
ATOM     34  C   UNL     1       2.072  17.259  18.419  0.00  0.00    +0.000 A 
ATOM     35  C   UNL     1       3.184  16.633  17.868  0.00  0.00    +0.000 A 
ATOM     36  C   UNL     1       3.201  15.233  17.716  0.00  0.00    +0.000 A 
ENDBRANCH  30  31
ENDBRANCH   2  30
TORSDOF 7
ENDMDL
MODEL 8
REMARK VINA RESULT:      -9.0      4.224      7.452
REMARK  Name = 
REMARK  7 active torsions:
REMARK  status: ('A' for Active; 'I' for Inactive)
REMARK    1  A    between atoms: O_1  and  C_2
REMARK    2  A    between atoms: C_5  and  O_6
REMARK    3  A    between atoms: O_6  and  C_7
REMARK    4  A    between atoms: C_11  and  C_12
REMARK    5  A    between atoms: C_13  and  C_14
REMARK    6  A    between atoms: C_14  and  C_15
REMARK    7  A    between atoms: C_24  and  C_25
REMARK                            x       y       z     vdW  Elec       q    Type
REMARK                         _______ _______ _______ _____ _____    ______ ____
ROOT
ATOM      1  C   UNL     1       0.585  11.191  18.982  0.00  0.00    +0.000 A 
ATOM      2  C   UNL     1       1.574  12.158  19.122  0.00  0.00    +0.000 A 
ATOM      3  C   UNL     1       1.719  12.603  20.421  0.00  0.00    +0.000 A 
ATOM      4  N   UNL     1       0.707  12.519  21.318  0.00  0.00    +0.000 NA
ATOM      5  C   UNL     1      -0.517  12.200  20.814  0.00  0.00    +0.000 A 
ATOM      6  C   UNL     1      -1.688  12.233  21.558  0.00  0.00    +0.000 A 
ATOM      7  C   UNL     1      -2.918  12.411  20.892  0.00  0.00    +0.000 A 
ATOM      8  C   UNL     1      -2.950  12.413  19.506  0.00  0.00    +0.000 A 
ATOM      9  C   UNL     1      -1.819  11.988  18.802  0.00  0.00    +0.000 A 
ATOM     10  C   UNL     1      -0.612  11.748  19.498  0.00  0.00    +0.000 A 
ENDROOT
BRANCH   1  15
ATOM     11  C   UNL     1       2.168   7.549  19.312  0.00  0.00    +0.000 A 
ATOM     12  C   UNL     1       1.682   7.086  20.517  0.00  0.00    +0.000 A 
ATOM     13  C   UNL     1       0.919   7.978  21.305  0.00  0.00    +0.000 A 
ATOM     14  C   UNL     1       0.584   9.305  20.887  0.00  0.00    +0.000 A 
ATOM     15  C   UNL     1       0.994   9.780  19.632  0.00  0.00    +0.000 A 
ATOM     16  C   UNL     1       1.805   8.848  18.929  0.00  0.00    +0.000 A 
BRANCH  11  17
ATOM     17  O   UNL     1       3.229   7.060  18.578  0.00  0.00    +0.000 OA
BRANCH  17  21
ATOM     18  C   UNL     1       3.745   2.938  18.423  0.00  0.00    +0.000 A 
ATOM     19  C   UNL     1       2.598   3.507  17.868  0.00  0.00    +0.000 A 
ATOM     20  C   UNL     1       2.456   4.906  17.810  0.00  0.00    +0.000 A 
ATOM     21  C   UNL     1       3.466   5.734  18.297  0.00  0.00    +0.000 A 
ATOM     22  C   UNL     1       4.584   5.133  18.904  0.00  0.00    +0.000 A 
ATOM     23  C   UNL     1       4.730   3.742  18.961  0.00  0.00    +0.000 A 
BRANCH  18  24
ATOM     24  O   UNL     1       3.927   1.592  18.457  0.00  0.00    +0.000 OA
ATOM     25  H   UNL     1       4.361   1.362  19.291  0.00  0.00    +0.000 HD
ENDBRANCH  18  24
ENDBRANCH  17  21
ENDBRANCH  11  17
ENDBRANCH   1  15
BRANCH   6  26
ATOM     26  C   UNL     1      -1.645  11.905  23.019  0.00  0.00    +0.000 C 
ATOM     27  F   UNL     1      -0.887  10.825  23.348  0.00  0.00    +0.000 F 
ATOM     28  F   UNL     1      -1.199  12.932  23.795  0.00  0.00    +0.000 F 
ATOM     29  F   UNL     1      -2.894  11.606  23.500  0.00  0.00    +0.000 F 
ENDBRANCH   6  26
BRANCH   2  30
ATOM     30  C   UNL     1       2.110  12.993  17.961  0.00  0.00    +0.000 C 
BRANCH  30  31
ATOM     31  C   UNL     1       2.941  14.261  18.242  0.00  0.00    +0.000 A 
ATOM     32  C   UNL     1       4.346  14.282  18.223  0.00  0.00    +0.000 A 
ATOM     33  C   UNL     1       5.077  15.479  18.315  0.00  0.00    +0.000 A 
ATOM     34  C   UNL     1       4.415  16.702  18.411  0.00  0.00    +0.000 A 
ATOM     35  C   UNL     1       3.026  16.719  18.433  0.00  0.00    +0.000 A 
ATOM     36  C   UNL     1       2.305  15.514  18.353  0.00  0.00    +0.000 A 
ENDBRANCH  30  31
ENDBRANCH   2  30
TORSDOF 7
ENDMDL
MODEL 9
REMARK VINA RESULT:      -9.0      3.791      7.054
REMARK  Name = 
REMARK  7 active torsions:
REMARK  status: ('A' for Active; 'I' for Inactive)
REMARK    1  A    between atoms: O_1  and  C_2
REMARK    2  A    between atoms: C_5  and  O_6
REMARK    3  A    between atoms: O_6  and  C_7
REMARK    4  A    between atoms: C_11  and  C_12
REMARK    5  A    between atoms: C_13  and  C_14
REMARK    6  A    between atoms: C_14  and  C_15
REMARK    7  A    between atoms: C_24  and  C_25
REMARK                            x       y       z     vdW  Elec       q    Type
REMARK                         _______ _______ _______ _____ _____    ______ ____
ROOT
ATOM      1  C   UNL     1       4.834   5.130  18.178  0.00  0.00    +0.000 A 
ATOM      2  C   UNL     1       5.104   4.696  16.884  0.00  0.00    +0.000 A 
ATOM      3  C   UNL     1       4.009   4.133  16.261  0.00  0.00    +0.000 A 
ATOM      4  N   UNL     1       2.988   3.592  16.969  0.00  0.00    +0.000 NA
ATOM      5  C   UNL     1       3.206   3.421  18.302  0.00  0.00    +0.000 A 
ATOM      6  C   UNL     1       2.340   2.736  19.141  0.00  0.00    +0.000 A 
ATOM      7  C   UNL     1       2.846   2.155  20.322  0.00  0.00    +0.000 A 
ATOM      8  C   UNL     1       4.161   2.392  20.691  0.00  0.00    +0.000 A 
ATOM      9  C   UNL     1       4.877   3.396  20.032  0.00  0.00    +0.000 A 
ATOM     10  C   UNL     1       4.323   4.016  18.888  0.00  0.00    +0.000 A 
ENDROOT
BRANCH   1  15
ATOM     11  C   UNL     1       2.025   7.673  19.412  0.00  0.00    +0.000 A 
ATOM     12  C   UNL     1       1.940   8.593  18.388  0.00  0.00    +0.000 A 
ATOM     13  C   UNL     1       2.862   8.478  17.323  0.00  0.00    +0.000 A 
ATOM     14  C   UNL     1       3.831   7.429  17.232  0.00  0.00    +0.000 A 
ATOM     15  C   UNL     1       3.892   6.430  18.216  0.00  0.00    +0.000 A 
ATOM     16  C   UNL     1       2.975   6.650  19.280  0.00  0.00    +0.000 A 
BRANCH  11  17
ATOM     17  O   UNL     1       1.553   7.791  20.703  0.00  0.00    +0.000 OA
BRANCH  17  21
ATOM     18  C   UNL     1      -0.495  10.868  22.607  0.00  0.00    +0.000 A 
ATOM     19  C   UNL     1       0.219  11.139  21.439  0.00  0.00    +0.000 A 
ATOM     20  C   UNL     1       0.826  10.094  20.719  0.00  0.00    +0.000 A 
ATOM     21  C   UNL     1       0.709   8.777  21.161  0.00  0.00    +0.000 A 
ATOM     22  C   UNL     1       0.034   8.539  22.372  0.00  0.00    +0.000 A 
ATOM     23  C   UNL     1      -0.573   9.576  23.091  0.00  0.00    +0.000 A 
BRANCH  18  24
ATOM     24  O   UNL     1      -1.124  11.852  23.302  0.00  0.00    +0.000 OA
ATOM     25  H   UNL     1      -1.926  11.483  23.697  0.00  0.00    +0.000 HD
ENDBRANCH  18  24
ENDBRANCH  17  21
ENDBRANCH  11  17
ENDBRANCH   1  15
BRANCH   6  26
ATOM     26  C   UNL     1       0.866   2.775  18.874  0.00  0.00    +0.000 C 
ATOM     27  F   UNL     1       0.466   3.708  17.969  0.00  0.00    +0.000 F 
ATOM     28  F   UNL     1       0.358   1.586  18.445  0.00  0.00    +0.000 F 
ATOM     29  F   UNL     1       0.161   3.078  20.011  0.00  0.00    +0.000 F 
ENDBRANCH   6  26
BRANCH   2  30
ATOM     30  C   UNL     1       6.512   4.414  16.365  0.00  0.00    +0.000 C 
BRANCH  30  31
ATOM     31  C   UNL     1       6.766   4.299  14.848  0.00  0.00    +0.000 A 
ATOM     32  C   UNL     1       6.019   3.461  14.003  0.00  0.00    +0.000 A 
ATOM     33  C   UNL     1       6.155   3.497  12.605  0.00  0.00    +0.000 A 
ATOM     34  C   UNL     1       7.038   4.394  12.007  0.00  0.00    +0.000 A 
ATOM     35  C   UNL     1       7.794   5.238  12.812  0.00  0.00    +0.000 A 
ATOM     36  C   UNL     1       7.658   5.184  14.212  0.00  0.00    +0.000 A 
ENDBRANCH  30  31
ENDBRANCH   2  30
TORSDOF 7
ENDMDL
