MODEL 1
REMARK VINA RESULT:      -7.8      0.000      0.000
REMARK  Name = 
REMARK  4 active torsions:
REMARK  status: ('A' for Active; 'I' for Inactive)
REMARK    1  A    between atoms: C_1  and  C_2
REMARK    2  A    between atoms: C_2  and  C_3
REMARK    3  A    between atoms: C_5  and  C_6
REMARK    4  A    between atoms: C_7  and  C_8
REMARK                            x       y       z     vdW  Elec       q    Type
REMARK                         _______ _______ _______ _____ _____    ______ ____
ROOT
ATOM      1  C   UNL     1       8.216   8.763  17.859  0.00  0.00    +0.000 C 
ATOM      2  C   UNL     1       8.835   9.184  18.977  0.00  0.00    +0.000 C 
ENDROOT
BRANCH   1   7
ATOM      3  C   UNL     1       4.843   5.908  16.712  0.00  0.00    +0.000 C 
ATOM      4  C   UNL     1       6.364   5.894  16.647  0.00  0.00    +0.000 C 
ATOM      5  C   UNL     1       6.891   5.094  15.466  0.00  0.00    +0.000 C 
ATOM      6  O   UNL     1       6.849   7.250  16.565  0.00  0.00    +0.000 OA
ATOM      7  C   UNL     1       7.617   7.458  17.708  0.00  0.00    +0.000 C 
ATOM      8  C   UNL     1       7.746   6.450  18.569  0.00  0.00    +0.000 C 
ATOM      9  C   UNL     1       6.958   5.404  17.945  0.00  0.00    +0.000 C 
ATOM     10  O   UNL     1       6.818   4.293  18.437  0.00  0.00    +0.000 OA
ENDBRANCH   1   7
BRANCH   2  11
ATOM     11  C   UNL     1       9.438  10.512  19.167  0.00  0.00    +0.000 A 
ATOM     12  C   UNL     1       9.690  11.051  20.435  0.00  0.00    +0.000 A 
ATOM     13  C   UNL     1      10.319  12.292  20.571  0.00  0.00    +0.000 A 
ATOM     14  C   UNL     1      10.708  12.998  19.436  0.00  0.00    +0.000 A 
ATOM     15 BR   UNL     1      11.570  14.670  19.620  0.00  0.00    +0.000 Br
ATOM     16  C   UNL     1      10.475  12.476  18.167  0.00  0.00    +0.000 A 
ATOM     17  C   UNL     1       9.844  11.234  18.035  0.00  0.00    +0.000 A 
ENDBRANCH   2  11
TORSDOF 2
ENDMDL
MODEL 2
REMARK VINA RESULT:      -7.7      0.365      1.177
REMARK  Name = 
REMARK  4 active torsions:
REMARK  status: ('A' for Active; 'I' for Inactive)
REMARK    1  A    between atoms: C_1  and  C_2
REMARK    2  A    between atoms: C_2  and  C_3
REMARK    3  A    between atoms: C_5  and  C_6
REMARK    4  A    between atoms: C_7  and  C_8
REMARK                            x       y       z     vdW  Elec       q    Type
REMARK                         _______ _______ _______ _____ _____    ______ ____
ROOT
ATOM      1  C   UNL     1       8.148   8.845  17.769  0.00  0.00    +0.000 C 
ATOM      2  C   UNL     1       8.814   9.302  18.844  0.00  0.00    +0.000 C 
ENDROOT
BRANCH   1   7
ATOM      3  C   UNL     1       4.855   5.832  16.805  0.00  0.00    +0.000 C 
ATOM      4  C   UNL     1       6.370   5.882  16.676  0.00  0.00    +0.000 C 
ATOM      5  C   UNL     1       6.881   5.087  15.485  0.00  0.00    +0.000 C 
ATOM      6  O   UNL     1       6.793   7.255  16.554  0.00  0.00    +0.000 OA
ATOM      7  C   UNL     1       7.599   7.513  17.661  0.00  0.00    +0.000 C 
ATOM      8  C   UNL     1       7.807   6.526  18.530  0.00  0.00    +0.000 C 
ATOM      9  C   UNL     1       7.039   5.437  17.954  0.00  0.00    +0.000 C 
ATOM     10  O   UNL     1       6.967   4.329  18.467  0.00  0.00    +0.000 OA
ENDBRANCH   1   7
BRANCH   2  11
ATOM     11  C   UNL     1       9.368  10.656  18.990  0.00  0.00    +0.000 A 
ATOM     12  C   UNL     1       9.246  11.632  17.992  0.00  0.00    +0.000 A 
ATOM     13  C   UNL     1       9.736  12.925  18.196  0.00  0.00    +0.000 A 
ATOM     14  C   UNL     1      10.345  13.252  19.404  0.00  0.00    +0.000 A 
ATOM     15 BR   UNL     1      10.996  15.004  19.684  0.00  0.00    +0.000 Br
ATOM     16  C   UNL     1      10.468  12.300  20.412  0.00  0.00    +0.000 A 
ATOM     17  C   UNL     1       9.977  11.006  20.204  0.00  0.00    +0.000 A 
ENDBRANCH   2  11
TORSDOF 2
ENDMDL
MODEL 3
REMARK VINA RESULT:      -7.1      1.156      1.228
REMARK  Name = 
REMARK  4 active torsions:
REMARK  status: ('A' for Active; 'I' for Inactive)
REMARK    1  A    between atoms: C_1  and  C_2
REMARK    2  A    between atoms: C_2  and  C_3
REMARK    3  A    between atoms: C_5  and  C_6
REMARK    4  A    between atoms: C_7  and  C_8
REMARK                            x       y       z     vdW  Elec       q    Type
REMARK                         _______ _______ _______ _____ _____    ______ ____
ROOT
ATOM      1  C   UNL     1       8.397   8.683  17.518  0.00  0.00    +0.000 C 
ATOM      2  C   UNL     1       8.462   9.665  18.435  0.00  0.00    +0.000 C 
ENDROOT
BRANCH   1   7
ATOM      3  C   UNL     1       4.433   6.417  17.596  0.00  0.00    +0.000 C 
ATOM      4  C   UNL     1       5.852   6.133  17.125  0.00  0.00    +0.000 C 
ATOM      5  C   UNL     1       5.893   5.199  15.926  0.00  0.00    +0.000 C 
ATOM      6  O   UNL     1       6.500   7.376  16.788  0.00  0.00    +0.000 OA
ATOM      7  C   UNL     1       7.582   7.498  17.658  0.00  0.00    +0.000 C 
ATOM      8  C   UNL     1       7.790   6.524  18.542  0.00  0.00    +0.000 C 
ATOM      9  C   UNL     1       6.703   5.605  18.254  0.00  0.00    +0.000 C 
ATOM     10  O   UNL     1       6.536   4.560  18.867  0.00  0.00    +0.000 OA
ENDBRANCH   1   7
BRANCH   2  11
ATOM     11  C   UNL     1       9.267  10.889  18.314  0.00  0.00    +0.000 A 
ATOM     12  C   UNL     1      10.633  10.927  18.619  0.00  0.00    +0.000 A 
ATOM     13  C   UNL     1      11.374  12.098  18.434  0.00  0.00    +0.000 A 
ATOM     14  C   UNL     1      10.751  13.238  17.934  0.00  0.00    +0.000 A 
ATOM     15 BR   UNL     1      11.756  14.818  17.672  0.00  0.00    +0.000 Br
ATOM     16  C   UNL     1       9.397  13.220  17.616  0.00  0.00    +0.000 A 
ATOM     17  C   UNL     1       8.659  12.046  17.803  0.00  0.00    +0.000 A 
ENDBRANCH   2  11
TORSDOF 2
ENDMDL
MODEL 4
REMARK VINA RESULT:      -7.0      4.030      7.489
REMARK  Name = 
REMARK  4 active torsions:
REMARK  status: ('A' for Active; 'I' for Inactive)
REMARK    1  A    between atoms: C_1  and  C_2
REMARK    2  A    between atoms: C_2  and  C_3
REMARK    3  A    between atoms: C_5  and  C_6
REMARK    4  A    between atoms: C_7  and  C_8
REMARK                            x       y       z     vdW  Elec       q    Type
REMARK                         _______ _______ _______ _____ _____    ______ ____
ROOT
ATOM      1  C   UNL     1       8.185   9.674  18.021  0.00  0.00    +0.000 C 
ATOM      2  C   UNL     1       8.427   8.394  18.354  0.00  0.00    +0.000 C 
ENDROOT
BRANCH   1   7
ATOM      3  C   UNL     1      10.457  12.310  20.977  0.00  0.00    +0.000 C 
ATOM      4  C   UNL     1      10.691  11.787  19.567  0.00  0.00    +0.000 C 
ATOM      5  C   UNL     1      12.164  11.563  19.264  0.00  0.00    +0.000 C 
ATOM      6  O   UNL     1       9.971  10.549  19.393  0.00  0.00    +0.000 OA
ATOM      7  C   UNL     1       9.042  10.780  18.380  0.00  0.00    +0.000 C 
ATOM      8  C   UNL     1       9.013  11.986  17.818  0.00  0.00    +0.000 C 
ATOM      9  C   UNL     1      10.056  12.692  18.541  0.00  0.00    +0.000 C 
ATOM     10  O   UNL     1      10.346  13.859  18.318  0.00  0.00    +0.000 OA
ENDBRANCH   1   7
BRANCH   2  11
ATOM     11  C   UNL     1       7.584   7.245  17.989  0.00  0.00    +0.000 A 
ATOM     12  C   UNL     1       7.728   5.985  18.583  0.00  0.00    +0.000 A 
ATOM     13  C   UNL     1       6.868   4.936  18.249  0.00  0.00    +0.000 A 
ATOM     14  C   UNL     1       5.850   5.145  17.322  0.00  0.00    +0.000 A 
ATOM     15 BR   UNL     1       4.678   3.729  16.881  0.00  0.00    +0.000 Br
ATOM     16  C   UNL     1       5.683   6.392  16.728  0.00  0.00    +0.000 A 
ATOM     17  C   UNL     1       6.548   7.439  17.064  0.00  0.00    +0.000 A 
ENDBRANCH   2  11
TORSDOF 2
ENDMDL
MODEL 5
REMARK VINA RESULT:      -6.9      4.053      7.430
REMARK  Name = 
REMARK  4 active torsions:
REMARK  status: ('A' for Active; 'I' for Inactive)
REMARK    1  A    between atoms: C_1  and  C_2
REMARK    2  A    between atoms: C_2  and  C_3
REMARK    3  A    between atoms: C_5  and  C_6
REMARK    4  A    between atoms: C_7  and  C_8
REMARK                            x       y       z     vdW  Elec       q    Type
REMARK                         _______ _______ _______ _____ _____    ______ ____
ROOT
ATOM      1  C   UNL     1       8.219   9.465  18.103  0.00  0.00    +0.000 C 
ATOM      2  C   UNL     1       8.423   8.163  18.374  0.00  0.00    +0.000 C 
ENDROOT
BRANCH   1   7
ATOM      3  C   UNL     1      11.333  12.705  17.295  0.00  0.00    +0.000 C 
ATOM      4  C   UNL     1      10.152  12.527  18.238  0.00  0.00    +0.000 C 
ATOM      5  C   UNL     1       9.467  13.843  18.570  0.00  0.00    +0.000 C 
ATOM      6  O   UNL     1       9.198  11.624  17.642  0.00  0.00    +0.000 OA
ATOM      7  C   UNL     1       9.120  10.524  18.494  0.00  0.00    +0.000 C 
ATOM      8  C   UNL     1       9.868  10.528  19.594  0.00  0.00    +0.000 C 
ATOM      9  C   UNL     1      10.565  11.797  19.493  0.00  0.00    +0.000 C 
ATOM     10  O   UNL     1      11.370  12.183  20.330  0.00  0.00    +0.000 OA
ENDBRANCH   1   7
BRANCH   2  11
ATOM     11  C   UNL     1       7.535   7.061  17.976  0.00  0.00    +0.000 A 
ATOM     12  C   UNL     1       7.674   5.761  18.478  0.00  0.00    +0.000 A 
ATOM     13  C   UNL     1       6.772   4.756  18.117  0.00  0.00    +0.000 A 
ATOM     14  C   UNL     1       5.718   5.050  17.257  0.00  0.00    +0.000 A 
ATOM     15 BR   UNL     1       4.491   3.693  16.780  0.00  0.00    +0.000 Br
ATOM     16  C   UNL     1       5.556   6.337  16.754  0.00  0.00    +0.000 A 
ATOM     17  C   UNL     1       6.462   7.340  17.116  0.00  0.00    +0.000 A 
ENDBRANCH   2  11
TORSDOF 2
ENDMDL
MODEL 6
REMARK VINA RESULT:      -6.9      1.132      1.764
REMARK  Name = 
REMARK  4 active torsions:
REMARK  status: ('A' for Active; 'I' for Inactive)
REMARK    1  A    between atoms: C_1  and  C_2
REMARK    2  A    between atoms: C_2  and  C_3
REMARK    3  A    between atoms: C_5  and  C_6
REMARK    4  A    between atoms: C_7  and  C_8
REMARK                            x       y       z     vdW  Elec       q    Type
REMARK                         _______ _______ _______ _____ _____    ______ ____
ROOT
ATOM      1  C   UNL     1       8.196   8.982  17.786  0.00  0.00    +0.000 C 
ATOM      2  C   UNL     1       8.787   9.394  18.921  0.00  0.00    +0.000 C 
ENDROOT
BRANCH   1   7
ATOM      3  C   UNL     1       7.690   4.451  17.541  0.00  0.00    +0.000 C 
ATOM      4  C   UNL     1       6.919   5.610  18.155  0.00  0.00    +0.000 C 
ATOM      5  C   UNL     1       6.180   5.214  19.423  0.00  0.00    +0.000 C 
ATOM      6  O   UNL     1       7.833   6.687  18.448  0.00  0.00    +0.000 OA
ATOM      7  C   UNL     1       7.423   7.767  17.669  0.00  0.00    +0.000 C 
ATOM      8  C   UNL     1       6.359   7.608  16.886  0.00  0.00    +0.000 C 
ATOM      9  C   UNL     1       5.981   6.231  17.149  0.00  0.00    +0.000 C 
ATOM     10  O   UNL     1       5.029   5.687  16.608  0.00  0.00    +0.000 OA
ENDBRANCH   1   7
BRANCH   2  11
ATOM     11  C   UNL     1       9.564  10.633  19.075  0.00  0.00    +0.000 A 
ATOM     12  C   UNL     1       9.934  11.140  20.328  0.00  0.00    +0.000 A 
ATOM     13  C   UNL     1      10.723  12.289  20.427  0.00  0.00    +0.000 A 
ATOM     14  C   UNL     1      11.155  12.934  19.272  0.00  0.00    +0.000 A 
ATOM     15 BR   UNL     1      12.234  14.480  19.407  0.00  0.00    +0.000 Br
ATOM     16  C   UNL     1      10.807  12.441  18.018  0.00  0.00    +0.000 A 
ATOM     17  C   UNL     1      10.016  11.291  17.922  0.00  0.00    +0.000 A 
ENDBRANCH   2  11
TORSDOF 2
ENDMDL
MODEL 7
REMARK VINA RESULT:      -6.8      1.005      1.354
REMARK  Name = 
REMARK  4 active torsions:
REMARK  status: ('A' for Active; 'I' for Inactive)
REMARK    1  A    between atoms: C_1  and  C_2
REMARK    2  A    between atoms: C_2  and  C_3
REMARK    3  A    between atoms: C_5  and  C_6
REMARK    4  A    between atoms: C_7  and  C_8
REMARK                            x       y       z     vdW  Elec       q    Type
REMARK                         _______ _______ _______ _____ _____    ______ ____
ROOT
ATOM      1  C   UNL     1       7.860   8.866  17.582  0.00  0.00    +0.000 C 
ATOM      2  C   UNL     1       8.605   9.104  18.676  0.00  0.00    +0.000 C 
ENDROOT
BRANCH   1   7
ATOM      3  C   UNL     1       6.901   5.135  15.131  0.00  0.00    +0.000 C 
ATOM      4  C   UNL     1       7.019   5.478  16.609  0.00  0.00    +0.000 C 
ATOM      5  C   UNL     1       7.510   4.305  17.443  0.00  0.00    +0.000 C 
ATOM      6  O   UNL     1       7.921   6.592  16.769  0.00  0.00    +0.000 OA
ATOM      7  C   UNL     1       7.169   7.623  17.328  0.00  0.00    +0.000 C 
ATOM      8  C   UNL     1       5.884   7.393  17.588  0.00  0.00    +0.000 C 
ATOM      9  C   UNL     1       5.718   6.020  17.146  0.00  0.00    +0.000 C 
ATOM     10  O   UNL     1       4.652   5.424  17.214  0.00  0.00    +0.000 OA
ENDBRANCH   1   7
BRANCH   2  11
ATOM     11  C   UNL     1       9.305  10.363  18.971  0.00  0.00    +0.000 A 
ATOM     12  C   UNL     1       9.624  10.760  20.276  0.00  0.00    +0.000 A 
ATOM     13  C   UNL     1      10.342  11.937  20.509  0.00  0.00    +0.000 A 
ATOM     14  C   UNL     1      10.752  12.720  19.434  0.00  0.00    +0.000 A 
ATOM     15 BR   UNL     1      11.734  14.305  19.749  0.00  0.00    +0.000 Br
ATOM     16  C   UNL     1      10.453  12.340  18.130  0.00  0.00    +0.000 A 
ATOM     17  C   UNL     1       9.734  11.162  17.901  0.00  0.00    +0.000 A 
ENDBRANCH   2  11
TORSDOF 2
ENDMDL
MODEL 8
REMARK VINA RESULT:      -6.8      4.035      7.557
REMARK  Name = 
REMARK  4 active torsions:
REMARK  status: ('A' for Active; 'I' for Inactive)
REMARK    1  A    between atoms: C_1  and  C_2
REMARK    2  A    between atoms: C_2  and  C_3
REMARK    3  A    between atoms: C_5  and  C_6
REMARK    4  A    between atoms: C_7  and  C_8
REMARK                            x       y       z     vdW  Elec       q    Type
REMARK                         _______ _______ _______ _____ _____    ______ ____
ROOT
ATOM      1  C   UNL     1       8.266   9.766  17.963  0.00  0.00    +0.000 C 
ATOM      2  C   UNL     1       8.414   8.494  18.374  0.00  0.00    +0.000 C 
ENDROOT
BRANCH   1   7
ATOM      3  C   UNL     1      10.505  12.338  21.000  0.00  0.00    +0.000 C 
ATOM      4  C   UNL     1      10.772  11.812  19.597  0.00  0.00    +0.000 C 
ATOM      5  C   UNL     1      12.248  11.552  19.343  0.00  0.00    +0.000 C 
ATOM      6  O   UNL     1      10.027  10.593  19.396  0.00  0.00    +0.000 OA
ATOM      7  C   UNL     1       9.139  10.849  18.353  0.00  0.00    +0.000 C 
ATOM      8  C   UNL     1       9.158  12.057  17.794  0.00  0.00    +0.000 C 
ATOM      9  C   UNL     1      10.194  12.735  18.553  0.00  0.00    +0.000 C 
ATOM     10  O   UNL     1      10.521  13.895  18.344  0.00  0.00    +0.000 OA
ENDBRANCH   1   7
BRANCH   2  11
ATOM     11  C   UNL     1       7.554   7.368  17.980  0.00  0.00    +0.000 A 
ATOM     12  C   UNL     1       6.532   7.495  17.031  0.00  0.00    +0.000 A 
ATOM     13  C   UNL     1       5.777   6.385  16.643  0.00  0.00    +0.000 A 
ATOM     14  C   UNL     1       6.046   5.137  17.198  0.00  0.00    +0.000 A 
ATOM     15 BR   UNL     1       5.032   3.633  16.663  0.00  0.00    +0.000 Br
ATOM     16  C   UNL     1       7.063   4.987  18.135  0.00  0.00    +0.000 A 
ATOM     17  C   UNL     1       7.817   6.100  18.522  0.00  0.00    +0.000 A 
ENDBRANCH   2  11
TORSDOF 2
ENDMDL
MODEL 9
REMARK VINA RESULT:      -6.8      1.128      2.109
REMARK  Name = 
REMARK  4 active torsions:
REMARK  status: ('A' for Active; 'I' for Inactive)
REMARK    1  A    between atoms: C_1  and  C_2
REMARK    2  A    between atoms: C_2  and  C_3
REMARK    3  A    between atoms: C_5  and  C_6
REMARK    4  A    between atoms: C_7  and  C_8
REMARK                            x       y       z     vdW  Elec       q    Type
REMARK                         _______ _______ _______ _____ _____    ______ ____
ROOT
ATOM      1  C   UNL     1       8.262   8.987  17.757  0.00  0.00    +0.000 C 
ATOM      2  C   UNL     1       8.830   9.432  18.892  0.00  0.00    +0.000 C 
ENDROOT
BRANCH   1   7
ATOM      3  C   UNL     1       7.662   4.470  17.475  0.00  0.00    +0.000 C 
ATOM      4  C   UNL     1       6.949   5.632  18.150  0.00  0.00    +0.000 C 
ATOM      5  C   UNL     1       6.277   5.228  19.452  0.00  0.00    +0.000 C 
ATOM      6  O   UNL     1       7.897   6.689  18.405  0.00  0.00    +0.000 OA
ATOM      7  C   UNL     1       7.462   7.788  17.668  0.00  0.00    +0.000 C 
ATOM      8  C   UNL     1       6.351   7.659  16.945  0.00  0.00    +0.000 C 
ATOM      9  C   UNL     1       5.965   6.285  17.210  0.00  0.00    +0.000 C 
ATOM     10  O   UNL     1       4.973   5.766  16.716  0.00  0.00    +0.000 OA
ENDBRANCH   1   7
BRANCH   2  11
ATOM     11  C   UNL     1       9.634  10.656  19.019  0.00  0.00    +0.000 A 
ATOM     12  C   UNL     1      10.081  11.383  17.907  0.00  0.00    +0.000 A 
ATOM     13  C   UNL     1      10.793  12.574  18.073  0.00  0.00    +0.000 A 
ATOM     14  C   UNL     1      11.055  13.050  19.354  0.00  0.00    +0.000 A 
ATOM     15 BR   UNL     1      12.007  14.668  19.578  0.00  0.00    +0.000 Br
ATOM     16  C   UNL     1      10.612  12.349  20.472  0.00  0.00    +0.000 A 
ATOM     17  C   UNL     1       9.901  11.157  20.302  0.00  0.00    +0.000 A 
ENDBRANCH   2  11
TORSDOF 2
ENDMDL
