MODEL 1
REMARK VINA RESULT:      -6.6      0.000      0.000
REMARK  Name = 
REMARK  8 active torsions:
REMARK  status: ('A' for Active; 'I' for Inactive)
REMARK    1  A    between atoms: C_1  and  C_2
REMARK    2  A    between atoms: C_2  and  O_3
REMARK    3  A    between atoms: O_3  and  C_4
REMARK    4  A    between atoms: C_4  and  C_5
REMARK    5  A    between atoms: C_11  and  C_12
REMARK    6  A    between atoms: C_12  and  C_13
REMARK    7  A    between atoms: C_14  and  S_15
REMARK    8  A    between atoms: S_15  and  C_16
REMARK                            x       y       z     vdW  Elec       q    Type
REMARK                         _______ _______ _______ _____ _____    ______ ____
ROOT
ATOM      1  C   UNL     1       2.578   4.507  19.075  0.00  0.00    +0.000 C 
ATOM      2  C   UNL     1       1.950   4.577  20.466  0.00  0.00    +0.000 C 
ATOM      3  S   UNL     1       1.728   3.229  21.441  0.00  0.00    +0.000 S 
ATOM      4  N   UNL     1       1.508   5.788  20.922  0.00  0.00    +0.000 N 
ATOM      5  C   UNL     1       1.729   7.014  20.365  0.00  0.00    +0.000 C 
ATOM      6  O   UNL     1       1.301   8.028  20.907  0.00  0.00    +0.000 OA
ATOM      7  C   UNL     1       2.548   7.055  19.120  0.00  0.00    +0.000 C 
ATOM      8  C   UNL     1       2.993   5.897  18.574  0.00  0.00    +0.000 C 
ATOM      9  H   UNL     1       1.030   5.810  21.815  0.00  0.00    +0.000 HD
ENDROOT
BRANCH   7  10
ATOM     10  C   UNL     1       2.726   8.444  18.534  0.00  0.00    +0.000 C 
ATOM     11  C   UNL     1       1.566   8.915  17.670  0.00  0.00    +0.000 C 
ENDBRANCH   7  10
BRANCH   1  12
ATOM     12  C   UNL     1       1.553   3.838  18.116  0.00  0.00    +0.000 C 
BRANCH  12  13
ATOM     13  O   UNL     1       1.950   2.504  17.797  0.00  0.00    +0.000 OA
BRANCH  13  15
ATOM     14  C   UNL     1       3.721   1.147  18.637  0.00  0.00    +0.000 C 
ATOM     15  C   UNL     1       3.367   2.337  17.764  0.00  0.00    +0.000 C 
ENDBRANCH  13  15
ENDBRANCH  12  13
ENDBRANCH   1  12
BRANCH   8  16
ATOM     16  S   UNL     1       3.995   5.954  17.131  0.00  0.00    +0.000 S 
BRANCH  16  17
ATOM     17  C   UNL     1       5.661   6.210  17.720  0.00  0.00    +0.000 A 
ATOM     18  C   UNL     1       6.303   5.454  18.705  0.00  0.00    +0.000 A 
ATOM     19  C   UNL     1       7.590   5.799  19.138  0.00  0.00    +0.000 A 
ATOM     20  C   UNL     1       8.246   6.904  18.598  0.00  0.00    +0.000 A 
ATOM     21  C   UNL     1       7.621   7.661  17.612  0.00  0.00    +0.000 A 
ATOM     22  C   UNL     1       6.339   7.314  17.178  0.00  0.00    +0.000 A 
ENDBRANCH  16  17
ENDBRANCH   8  16
TORSDOF 6
ENDMDL
MODEL 2
REMARK VINA RESULT:      -6.6      2.958      5.932
REMARK  Name = 
REMARK  8 active torsions:
REMARK  status: ('A' for Active; 'I' for Inactive)
REMARK    1  A    between atoms: C_1  and  C_2
REMARK    2  A    between atoms: C_2  and  O_3
REMARK    3  A    between atoms: O_3  and  C_4
REMARK    4  A    between atoms: C_4  and  C_5
REMARK    5  A    between atoms: C_11  and  C_12
REMARK    6  A    between atoms: C_12  and  C_13
REMARK    7  A    between atoms: C_14  and  S_15
REMARK    8  A    between atoms: S_15  and  C_16
REMARK                            x       y       z     vdW  Elec       q    Type
REMARK                         _______ _______ _______ _____ _____    ______ ____
ROOT
ATOM      1  C   UNL     1       6.099   4.379  16.925  0.00  0.00    +0.000 C 
ATOM      2  C   UNL     1       5.935   5.134  15.607  0.00  0.00    +0.000 C 
ATOM      3  S   UNL     1       6.649   4.641  14.171  0.00  0.00    +0.000 S 
ATOM      4  N   UNL     1       5.206   6.291  15.606  0.00  0.00    +0.000 N 
ATOM      5  C   UNL     1       4.424   6.779  16.612  0.00  0.00    +0.000 C 
ATOM      6  O   UNL     1       3.792   7.819  16.457  0.00  0.00    +0.000 OA
ATOM      7  C   UNL     1       4.339   5.967  17.859  0.00  0.00    +0.000 C 
ATOM      8  C   UNL     1       5.062   4.826  17.964  0.00  0.00    +0.000 C 
ATOM      9  H   UNL     1       5.163   6.820  14.743  0.00  0.00    +0.000 HD
ENDROOT
BRANCH   7  10
ATOM     10  C   UNL     1       3.482   6.583  18.950  0.00  0.00    +0.000 C 
ATOM     11  C   UNL     1       1.984   6.495  18.698  0.00  0.00    +0.000 C 
ENDBRANCH   7  10
BRANCH   1  12
ATOM     12  C   UNL     1       7.551   4.605  17.434  0.00  0.00    +0.000 C 
BRANCH  12  13
ATOM     13  O   UNL     1       7.989   5.935  17.151  0.00  0.00    +0.000 OA
BRANCH  13  15
ATOM     14  C   UNL     1       7.822   8.232  17.762  0.00  0.00    +0.000 C 
ATOM     15  C   UNL     1       7.884   6.807  18.276  0.00  0.00    +0.000 C 
ENDBRANCH  13  15
ENDBRANCH  12  13
ENDBRANCH   1  12
BRANCH   8  16
ATOM     16  S   UNL     1       4.926   3.849  19.419  0.00  0.00    +0.000 S 
BRANCH  16  17
ATOM     17  C   UNL     1       3.234   3.278  19.450  0.00  0.00    +0.000 A 
ATOM     18  C   UNL     1       2.521   2.781  18.355  0.00  0.00    +0.000 A 
ATOM     19  C   UNL     1       1.171   2.432  18.486  0.00  0.00    +0.000 A 
ATOM     20  C   UNL     1       0.517   2.580  19.708  0.00  0.00    +0.000 A 
ATOM     21  C   UNL     1       1.217   3.067  20.808  0.00  0.00    +0.000 A 
ATOM     22  C   UNL     1       2.564   3.411  20.677  0.00  0.00    +0.000 A 
ENDBRANCH  16  17
ENDBRANCH   8  16
TORSDOF 6
ENDMDL
MODEL 3
REMARK VINA RESULT:      -6.5      2.644      5.249
REMARK  Name = 
REMARK  8 active torsions:
REMARK  status: ('A' for Active; 'I' for Inactive)
REMARK    1  A    between atoms: C_1  and  C_2
REMARK    2  A    between atoms: C_2  and  O_3
REMARK    3  A    between atoms: O_3  and  C_4
REMARK    4  A    between atoms: C_4  and  C_5
REMARK    5  A    between atoms: C_11  and  C_12
REMARK    6  A    between atoms: C_12  and  C_13
REMARK    7  A    between atoms: C_14  and  S_15
REMARK    8  A    between atoms: S_15  and  C_16
REMARK                            x       y       z     vdW  Elec       q    Type
REMARK                         _______ _______ _______ _____ _____    ______ ____
ROOT
ATOM      1  C   UNL     1       5.636   6.373  18.136  0.00  0.00    +0.000 C 
ATOM      2  C   UNL     1       6.379   5.285  18.909  0.00  0.00    +0.000 C 
ATOM      3  S   UNL     1       7.864   5.538  19.648  0.00  0.00    +0.000 S 
ATOM      4  N   UNL     1       5.830   4.035  18.966  0.00  0.00    +0.000 N 
ATOM      5  C   UNL     1       4.577   3.661  18.574  0.00  0.00    +0.000 C 
ATOM      6  O   UNL     1       4.201   2.502  18.720  0.00  0.00    +0.000 OA
ATOM      7  C   UNL     1       3.692   4.727  18.025  0.00  0.00    +0.000 C 
ATOM      8  C   UNL     1       4.170   5.989  17.893  0.00  0.00    +0.000 C 
ATOM      9  H   UNL     1       6.365   3.304  19.421  0.00  0.00    +0.000 HD
ENDROOT
BRANCH   7  10
ATOM     10  C   UNL     1       2.327   4.239  17.576  0.00  0.00    +0.000 C 
ATOM     11  C   UNL     1       1.349   3.976  18.712  0.00  0.00    +0.000 C 
ENDBRANCH   7  10
BRANCH   1  12
ATOM     12  C   UNL     1       6.391   6.616  16.799  0.00  0.00    +0.000 C 
BRANCH  12  13
ATOM     13  O   UNL     1       6.993   5.411  16.326  0.00  0.00    +0.000 OA
BRANCH  13  15
ATOM     14  C   UNL     1       5.880   3.691  15.109  0.00  0.00    +0.000 C 
ATOM     15  C   UNL     1       6.556   5.046  15.017  0.00  0.00    +0.000 C 
ENDBRANCH  13  15
ENDBRANCH  12  13
ENDBRANCH   1  12
BRANCH   8  16
ATOM     16  S   UNL     1       3.109   7.252  17.285  0.00  0.00    +0.000 S 
BRANCH  16  17
ATOM     17  C   UNL     1       2.266   7.896  18.722  0.00  0.00    +0.000 A 
ATOM     18  C   UNL     1       2.173   7.262  19.964  0.00  0.00    +0.000 A 
ATOM     19  C   UNL     1       1.418   7.833  20.997  0.00  0.00    +0.000 A 
ATOM     20  C   UNL     1       0.744   9.038  20.799  0.00  0.00    +0.000 A 
ATOM     21  C   UNL     1       0.834   9.682  19.569  0.00  0.00    +0.000 A 
ATOM     22  C   UNL     1       1.590   9.114  18.541  0.00  0.00    +0.000 A 
ENDBRANCH  16  17
ENDBRANCH   8  16
TORSDOF 6
ENDMDL
MODEL 4
REMARK VINA RESULT:      -6.5      0.185      1.066
REMARK  Name = 
REMARK  8 active torsions:
REMARK  status: ('A' for Active; 'I' for Inactive)
REMARK    1  A    between atoms: C_1  and  C_2
REMARK    2  A    between atoms: C_2  and  O_3
REMARK    3  A    between atoms: O_3  and  C_4
REMARK    4  A    between atoms: C_4  and  C_5
REMARK    5  A    between atoms: C_11  and  C_12
REMARK    6  A    between atoms: C_12  and  C_13
REMARK    7  A    between atoms: C_14  and  S_15
REMARK    8  A    between atoms: S_15  and  C_16
REMARK                            x       y       z     vdW  Elec       q    Type
REMARK                         _______ _______ _______ _____ _____    ______ ____
ROOT
ATOM      1  C   UNL     1       2.583   4.316  19.012  0.00  0.00    +0.000 C 
ATOM      2  C   UNL     1       1.915   4.410  20.382  0.00  0.00    +0.000 C 
ATOM      3  S   UNL     1       1.638   3.076  21.361  0.00  0.00    +0.000 S 
ATOM      4  N   UNL     1       1.485   5.633  20.815  0.00  0.00    +0.000 N 
ATOM      5  C   UNL     1       1.746   6.850  20.255  0.00  0.00    +0.000 C 
ATOM      6  O   UNL     1       1.323   7.877  20.776  0.00  0.00    +0.000 OA
ATOM      7  C   UNL     1       2.603   6.865  19.035  0.00  0.00    +0.000 C 
ATOM      8  C   UNL     1       3.041   5.694  18.513  0.00  0.00    +0.000 C 
ATOM      9  H   UNL     1       0.981   5.672  21.693  0.00  0.00    +0.000 HD
ENDROOT
BRANCH   7  10
ATOM     10  C   UNL     1       2.827   8.244  18.444  0.00  0.00    +0.000 C 
ATOM     11  C   UNL     1       1.629   8.807  17.691  0.00  0.00    +0.000 C 
ENDBRANCH   7  10
BRANCH   1  12
ATOM     12  C   UNL     1       1.575   3.659  18.027  0.00  0.00    +0.000 C 
BRANCH  12  13
ATOM     13  O   UNL     1       2.099   2.441  17.499  0.00  0.00    +0.000 OA
BRANCH  13  15
ATOM     14  C   UNL     1       3.655   1.046  18.645  0.00  0.00    +0.000 C 
ATOM     15  C   UNL     1       3.491   2.271  17.766  0.00  0.00    +0.000 C 
ENDBRANCH  13  15
ENDBRANCH  12  13
ENDBRANCH   1  12
BRANCH   8  16
ATOM     16  S   UNL     1       4.086   5.718  17.099  0.00  0.00    +0.000 S 
BRANCH  16  17
ATOM     17  C   UNL     1       5.679   6.260  17.698  0.00  0.00    +0.000 A 
ATOM     18  C   UNL     1       6.425   7.323  17.181  0.00  0.00    +0.000 A 
ATOM     19  C   UNL     1       7.700   7.608  17.688  0.00  0.00    +0.000 A 
ATOM     20  C   UNL     1       8.246   6.831  18.709  0.00  0.00    +0.000 A 
ATOM     21  C   UNL     1       7.511   5.774  19.236  0.00  0.00    +0.000 A 
ATOM     22  C   UNL     1       6.238   5.494  18.734  0.00  0.00    +0.000 A 
ENDBRANCH  16  17
ENDBRANCH   8  16
TORSDOF 6
ENDMDL
MODEL 5
REMARK VINA RESULT:      -6.4      2.954      5.880
REMARK  Name = 
REMARK  8 active torsions:
REMARK  status: ('A' for Active; 'I' for Inactive)
REMARK    1  A    between atoms: C_1  and  C_2
REMARK    2  A    between atoms: C_2  and  O_3
REMARK    3  A    between atoms: O_3  and  C_4
REMARK    4  A    between atoms: C_4  and  C_5
REMARK    5  A    between atoms: C_11  and  C_12
REMARK    6  A    between atoms: C_12  and  C_13
REMARK    7  A    between atoms: C_14  and  S_15
REMARK    8  A    between atoms: S_15  and  C_16
REMARK                            x       y       z     vdW  Elec       q    Type
REMARK                         _______ _______ _______ _____ _____    ______ ____
ROOT
ATOM      1  C   UNL     1       6.085   4.403  16.970  0.00  0.00    +0.000 C 
ATOM      2  C   UNL     1       5.933   5.099  15.618  0.00  0.00    +0.000 C 
ATOM      3  S   UNL     1       6.641   4.529  14.209  0.00  0.00    +0.000 S 
ATOM      4  N   UNL     1       5.219   6.264  15.562  0.00  0.00    +0.000 N 
ATOM      5  C   UNL     1       4.443   6.809  16.544  0.00  0.00    +0.000 C 
ATOM      6  O   UNL     1       3.825   7.848  16.339  0.00  0.00    +0.000 OA
ATOM      7  C   UNL     1       4.346   6.057  17.827  0.00  0.00    +0.000 C 
ATOM      8  C   UNL     1       5.053   4.912  17.986  0.00  0.00    +0.000 C 
ATOM      9  H   UNL     1       5.184   6.753  14.676  0.00  0.00    +0.000 HD
ENDROOT
BRANCH   7  10
ATOM     10  C   UNL     1       3.496   6.734  18.886  0.00  0.00    +0.000 C 
ATOM     11  C   UNL     1       1.997   6.653  18.636  0.00  0.00    +0.000 C 
ENDBRANCH   7  10
BRANCH   1  12
ATOM     12  C   UNL     1       7.539   4.634  17.470  0.00  0.00    +0.000 C 
BRANCH  12  13
ATOM     13  O   UNL     1       7.983   5.955  17.158  0.00  0.00    +0.000 OA
BRANCH  13  15
ATOM     14  C   UNL     1       7.815   8.263  17.728  0.00  0.00    +0.000 C 
ATOM     15  C   UNL     1       7.897   6.848  18.268  0.00  0.00    +0.000 C 
ENDBRANCH  13  15
ENDBRANCH  12  13
ENDBRANCH   1  12
BRANCH   8  16
ATOM     16  S   UNL     1       4.902   4.006  19.485  0.00  0.00    +0.000 S 
BRANCH  16  17
ATOM     17  C   UNL     1       3.191   3.501  19.563  0.00  0.00    +0.000 A 
ATOM     18  C   UNL     1       2.362   3.601  20.684  0.00  0.00    +0.000 A 
ATOM     19  C   UNL     1       1.054   3.100  20.646  0.00  0.00    +0.000 A 
ATOM     20  C   UNL     1       0.563   2.490  19.493  0.00  0.00    +0.000 A 
ATOM     21  C   UNL     1       1.375   2.390  18.368  0.00  0.00    +0.000 A 
ATOM     22  C   UNL     1       2.678   2.893  18.405  0.00  0.00    +0.000 A 
ENDBRANCH  16  17
ENDBRANCH   8  16
TORSDOF 6
ENDMDL
MODEL 6
REMARK VINA RESULT:      -6.3      2.594      5.123
REMARK  Name = 
REMARK  8 active torsions:
REMARK  status: ('A' for Active; 'I' for Inactive)
REMARK    1  A    between atoms: C_1  and  C_2
REMARK    2  A    between atoms: C_2  and  O_3
REMARK    3  A    between atoms: O_3  and  C_4
REMARK    4  A    between atoms: C_4  and  C_5
REMARK    5  A    between atoms: C_11  and  C_12
REMARK    6  A    between atoms: C_12  and  C_13
REMARK    7  A    between atoms: C_14  and  S_15
REMARK    8  A    between atoms: S_15  and  C_16
REMARK                            x       y       z     vdW  Elec       q    Type
REMARK                         _______ _______ _______ _____ _____    ______ ____
ROOT
ATOM      1  C   UNL     1       4.956   6.164  18.039  0.00  0.00    +0.000 C 
ATOM      2  C   UNL     1       5.920   5.292  18.841  0.00  0.00    +0.000 C 
ATOM      3  S   UNL     1       7.539   5.674  19.058  0.00  0.00    +0.000 S 
ATOM      4  N   UNL     1       5.453   4.122  19.371  0.00  0.00    +0.000 N 
ATOM      5  C   UNL     1       4.156   3.705  19.445  0.00  0.00    +0.000 C 
ATOM      6  O   UNL     1       3.876   2.640  19.986  0.00  0.00    +0.000 OA
ATOM      7  C   UNL     1       3.117   4.621  18.894  0.00  0.00    +0.000 C 
ATOM      8  C   UNL     1       3.494   5.785  18.312  0.00  0.00    +0.000 C 
ATOM      9  H   UNL     1       6.118   3.517  19.840  0.00  0.00    +0.000 HD
ENDROOT
BRANCH   7  10
ATOM     10  C   UNL     1       1.700   4.083  18.976  0.00  0.00    +0.000 C 
ATOM     11  C   UNL     1       1.067   4.187  20.356  0.00  0.00    +0.000 C 
ENDBRANCH   7  10
BRANCH   1  12
ATOM     12  C   UNL     1       5.312   6.019  16.533  0.00  0.00    +0.000 C 
BRANCH  12  13
ATOM     13  O   UNL     1       4.916   4.741  16.036  0.00  0.00    +0.000 OA
BRANCH  13  15
ATOM     14  C   UNL     1       7.053   4.936  14.999  0.00  0.00    +0.000 C 
ATOM     15  C   UNL     1       6.012   3.973  15.537  0.00  0.00    +0.000 C 
ENDBRANCH  13  15
ENDBRANCH  12  13
ENDBRANCH   1  12
BRANCH   8  16
ATOM     16  S   UNL     1       2.263   6.882  17.702  0.00  0.00    +0.000 S 
BRANCH  16  17
ATOM     17  C   UNL     1       1.832   7.926  19.086  0.00  0.00    +0.000 A 
ATOM     18  C   UNL     1       1.838   7.542  20.430  0.00  0.00    +0.000 A 
ATOM     19  C   UNL     1       1.406   8.430  21.423  0.00  0.00    +0.000 A 
ATOM     20  C   UNL     1       0.959   9.707  21.086  0.00  0.00    +0.000 A 
ATOM     21  C   UNL     1       0.954  10.104  19.753  0.00  0.00    +0.000 A 
ATOM     22  C   UNL     1       1.389   9.219  18.763  0.00  0.00    +0.000 A 
ENDBRANCH  16  17
ENDBRANCH   8  16
TORSDOF 6
ENDMDL
MODEL 7
REMARK VINA RESULT:      -6.3      1.148      1.433
REMARK  Name = 
REMARK  8 active torsions:
REMARK  status: ('A' for Active; 'I' for Inactive)
REMARK    1  A    between atoms: C_1  and  C_2
REMARK    2  A    between atoms: C_2  and  O_3
REMARK    3  A    between atoms: O_3  and  C_4
REMARK    4  A    between atoms: C_4  and  C_5
REMARK    5  A    between atoms: C_11  and  C_12
REMARK    6  A    between atoms: C_12  and  C_13
REMARK    7  A    between atoms: C_14  and  S_15
REMARK    8  A    between atoms: S_15  and  C_16
REMARK                            x       y       z     vdW  Elec       q    Type
REMARK                         _______ _______ _______ _____ _____    ______ ____
ROOT
ATOM      1  C   UNL     1       2.772   5.290  18.866  0.00  0.00    +0.000 C 
ATOM      2  C   UNL     1       2.277   5.140  20.304  0.00  0.00    +0.000 C 
ATOM      3  S   UNL     1       2.388   3.706  21.167  0.00  0.00    +0.000 S 
ATOM      4  N   UNL     1       1.677   6.213  20.901  0.00  0.00    +0.000 N 
ATOM      5  C   UNL     1       1.626   7.497  20.441  0.00  0.00    +0.000 C 
ATOM      6  O   UNL     1       1.082   8.373  21.105  0.00  0.00    +0.000 OA
ATOM      7  C   UNL     1       2.303   7.779  19.143  0.00  0.00    +0.000 C 
ATOM      8  C   UNL     1       2.889   6.765  18.461  0.00  0.00    +0.000 C 
ATOM      9  H   UNL     1       1.289   6.081  21.828  0.00  0.00    +0.000 HD
ENDROOT
BRANCH   7  10
ATOM     10  C   UNL     1       2.179   9.216  18.672  0.00  0.00    +0.000 C 
ATOM     11  C   UNL     1       0.893   9.523  17.920  0.00  0.00    +0.000 C 
ENDBRANCH   7  10
BRANCH   1  12
ATOM     12  C   UNL     1       1.794   4.518  17.936  0.00  0.00    +0.000 C 
BRANCH  12  13
ATOM     13  O   UNL     1       2.477   3.491  17.217  0.00  0.00    +0.000 OA
BRANCH  13  15
ATOM     14  C   UNL     1       3.663   1.668  18.191  0.00  0.00    +0.000 C 
ATOM     15  C   UNL     1       2.299   2.197  17.791  0.00  0.00    +0.000 C 
ENDBRANCH  13  15
ENDBRANCH  12  13
ENDBRANCH   1  12
BRANCH   8  16
ATOM     16  S   UNL     1       3.723   7.110  16.953  0.00  0.00    +0.000 S 
BRANCH  16  17
ATOM     17  C   UNL     1       5.197   6.102  16.985  0.00  0.00    +0.000 A 
ATOM     18  C   UNL     1       5.427   4.969  16.200  0.00  0.00    +0.000 A 
ATOM     19  C   UNL     1       6.595   4.214  16.369  0.00  0.00    +0.000 A 
ATOM     20  C   UNL     1       7.542   4.578  17.325  0.00  0.00    +0.000 A 
ATOM     21  C   UNL     1       7.328   5.708  18.109  0.00  0.00    +0.000 A 
ATOM     22  C   UNL     1       6.165   6.462  17.937  0.00  0.00    +0.000 A 
ENDBRANCH  16  17
ENDBRANCH   8  16
TORSDOF 6
ENDMDL
MODEL 8
REMARK VINA RESULT:      -6.3      1.013      1.244
REMARK  Name = 
REMARK  8 active torsions:
REMARK  status: ('A' for Active; 'I' for Inactive)
REMARK    1  A    between atoms: C_1  and  C_2
REMARK    2  A    between atoms: C_2  and  O_3
REMARK    3  A    between atoms: O_3  and  C_4
REMARK    4  A    between atoms: C_4  and  C_5
REMARK    5  A    between atoms: C_11  and  C_12
REMARK    6  A    between atoms: C_12  and  C_13
REMARK    7  A    between atoms: C_14  and  S_15
REMARK    8  A    between atoms: S_15  and  C_16
REMARK                            x       y       z     vdW  Elec       q    Type
REMARK                         _______ _______ _______ _____ _____    ______ ____
ROOT
ATOM      1  C   UNL     1       2.550   5.001  18.959  0.00  0.00    +0.000 C 
ATOM      2  C   UNL     1       2.027   4.914  20.391  0.00  0.00    +0.000 C 
ATOM      3  S   UNL     1       1.987   3.485  21.268  0.00  0.00    +0.000 S 
ATOM      4  N   UNL     1       1.529   6.047  20.972  0.00  0.00    +0.000 N 
ATOM      5  C   UNL     1       1.610   7.325  20.501  0.00  0.00    +0.000 C 
ATOM      6  O   UNL     1       1.148   8.257  21.152  0.00  0.00    +0.000 OA
ATOM      7  C   UNL     1       2.326   7.527  19.209  0.00  0.00    +0.000 C 
ATOM      8  C   UNL     1       2.816   6.454  18.543  0.00  0.00    +0.000 C 
ATOM      9  H   UNL     1       1.121   5.963  21.896  0.00  0.00    +0.000 HD
ENDROOT
BRANCH   7  10
ATOM     10  C   UNL     1       2.350   8.965  18.725  0.00  0.00    +0.000 C 
ATOM     11  C   UNL     1       1.143   9.368  17.891  0.00  0.00    +0.000 C 
ENDBRANCH   7  10
BRANCH   1  12
ATOM     12  C   UNL     1       1.511   4.321  18.023  0.00  0.00    +0.000 C 
BRANCH  12  13
ATOM     13  O   UNL     1       1.964   3.032  17.608  0.00  0.00    +0.000 OA
BRANCH  13  15
ATOM     14  C   UNL     1       3.609   1.502  18.403  0.00  0.00    +0.000 C 
ATOM     15  C   UNL     1       3.372   2.859  17.768  0.00  0.00    +0.000 C 
ENDBRANCH  13  15
ENDBRANCH  12  13
ENDBRANCH   1  12
BRANCH   8  16
ATOM     16  S   UNL     1       3.697   6.701  17.041  0.00  0.00    +0.000 S 
BRANCH  16  17
ATOM     17  C   UNL     1       5.248   5.841  17.255  0.00  0.00    +0.000 A 
ATOM     18  C   UNL     1       6.051   5.879  18.398  0.00  0.00    +0.000 A 
ATOM     19  C   UNL     1       7.287   5.220  18.420  0.00  0.00    +0.000 A 
ATOM     20  C   UNL     1       7.737   4.522  17.300  0.00  0.00    +0.000 A 
ATOM     21  C   UNL     1       6.945   4.471  16.157  0.00  0.00    +0.000 A 
ATOM     22  C   UNL     1       5.710   5.125  16.138  0.00  0.00    +0.000 A 
ENDBRANCH  16  17
ENDBRANCH   8  16
TORSDOF 6
ENDMDL
MODEL 9
REMARK VINA RESULT:      -6.2      3.574      4.986
REMARK  Name = 
REMARK  8 active torsions:
REMARK  status: ('A' for Active; 'I' for Inactive)
REMARK    1  A    between atoms: C_1  and  C_2
REMARK    2  A    between atoms: C_2  and  O_3
REMARK    3  A    between atoms: O_3  and  C_4
REMARK    4  A    between atoms: C_4  and  C_5
REMARK    5  A    between atoms: C_11  and  C_12
REMARK    6  A    between atoms: C_12  and  C_13
REMARK    7  A    between atoms: C_14  and  S_15
REMARK    8  A    between atoms: S_15  and  C_16
REMARK                            x       y       z     vdW  Elec       q    Type
REMARK                         _______ _______ _______ _____ _____    ______ ____
ROOT
ATOM      1  C   UNL     1       4.303   4.590  17.471  0.00  0.00    +0.000 C 
ATOM      2  C   UNL     1       4.755   3.748  18.663  0.00  0.00    +0.000 C 
ATOM      3  S   UNL     1       3.862   2.465  19.271  0.00  0.00    +0.000 S 
ATOM      4  N   UNL     1       5.921   4.083  19.292  0.00  0.00    +0.000 N 
ATOM      5  C   UNL     1       6.863   4.978  18.872  0.00  0.00    +0.000 C 
ATOM      6  O   UNL     1       7.888   5.151  19.523  0.00  0.00    +0.000 OA
ATOM      7  C   UNL     1       6.608   5.672  17.578  0.00  0.00    +0.000 C 
ATOM      8  C   UNL     1       5.455   5.432  16.907  0.00  0.00    +0.000 C 
ATOM      9  H   UNL     1       6.175   3.563  20.124  0.00  0.00    +0.000 HD
ENDROOT
BRANCH   7  10
ATOM     10  C   UNL     1       7.675   6.677  17.186  0.00  0.00    +0.000 C 
ATOM     11  C   UNL     1       7.436   8.086  17.711  0.00  0.00    +0.000 C 
ENDBRANCH   7  10
BRANCH   1  12
ATOM     12  C   UNL     1       3.116   5.482  17.932  0.00  0.00    +0.000 C 
BRANCH  12  13
ATOM     13  O   UNL     1       3.423   6.145  19.158  0.00  0.00    +0.000 OA
BRANCH  13  15
ATOM     14  C   UNL     1       1.713   5.297  20.586  0.00  0.00    +0.000 C 
ATOM     15  C   UNL     1       2.259   6.529  19.890  0.00  0.00    +0.000 C 
ENDBRANCH  13  15
ENDBRANCH  12  13
ENDBRANCH   1  12
BRANCH   8  16
ATOM     16  S   UNL     1       5.178   6.221  15.360  0.00  0.00    +0.000 S 
BRANCH  16  17
ATOM     17  C   UNL     1       5.932   5.154  14.142  0.00  0.00    +0.000 A 
ATOM     18  C   UNL     1       7.228   5.284  13.636  0.00  0.00    +0.000 A 
ATOM     19  C   UNL     1       7.684   4.428  12.625  0.00  0.00    +0.000 A 
ATOM     20  C   UNL     1       6.850   3.440  12.104  0.00  0.00    +0.000 A 
ATOM     21  C   UNL     1       5.559   3.296  12.604  0.00  0.00    +0.000 A 
ATOM     22  C   UNL     1       5.107   4.147  13.615  0.00  0.00    +0.000 A 
ENDBRANCH  16  17
ENDBRANCH   8  16
TORSDOF 6
ENDMDL
