MODEL 1
REMARK VINA RESULT:      -6.3      0.000      0.000
REMARK  Name = 
REMARK  1 active torsions:
REMARK  status: ('A' for Active; 'I' for Inactive)
REMARK    1  A    between atoms: C_1  and  N_2
REMARK                            x       y       z     vdW  Elec       q    Type
REMARK                         _______ _______ _______ _____ _____    ______ ____
ROOT
ATOM      1  C   UNL     1       0.950  10.216  18.460  0.00  0.00    +0.000 C 
ATOM      2  N   UNL     1      -0.375  10.052  19.114  0.00  0.00    +0.000 N 
ATOM      3  C   UNL     1      -1.621  10.715  17.953  0.00  0.00    +0.000 A 
ATOM      4  C   UNL     1      -1.779   9.786  16.924  0.00  0.00    +0.000 A 
ATOM      5  C   UNL     1      -3.045   9.810  16.335  0.00  0.00    +0.000 A 
ATOM      6  C   UNL     1      -4.088  10.753  16.670  0.00  0.00    +0.000 A 
ATOM      7  C   UNL     1      -4.019  11.801  17.633  0.00  0.00    +0.000 A 
ATOM      8  C   UNL     1      -2.895  11.883  18.430  0.00  0.00    +0.000 A 
ATOM      9  N   UNL     1      -3.175  12.687  20.088  0.00  0.00    +0.000 NA
ATOM     10  C   UNL     1      -2.553  12.320  21.487  0.00  0.00    +0.000 C 
ATOM     11  N   UNL     1      -2.915  12.898  22.674  0.00  0.00    +0.000 N 
ATOM     12  C   UNL     1      -1.953  13.589  23.539  0.00  0.00    +0.000 C 
ATOM     13  C   UNL     1      -2.295  15.087  23.550  0.00  0.00    +0.000 C 
ATOM     14  N   UNL     1      -3.692  15.346  23.953  0.00  0.00    +0.000 NA
ATOM     15  C   UNL     1      -4.630  14.552  23.126  0.00  0.00    +0.000 C 
ATOM     16  C   UNL     1      -4.290  13.057  23.111  0.00  0.00    +0.000 C 
ATOM     17  C   UNL     1      -1.229  11.096  21.886  0.00  0.00    +0.000 A 
ATOM     18  C   UNL     1      -0.940  10.606  23.143  0.00  0.00    +0.000 A 
ATOM     19  S   UNL     1       0.335   9.449  23.179  0.00  0.00    +0.000 S 
ATOM     20  C   UNL     1       0.581   9.329  21.483  0.00  0.00    +0.000 A 
ATOM     21  C   UNL     1      -0.263  10.130  20.750  0.00  0.00    +0.000 A 
ATOM     22  H   UNL     1      -3.896  16.336  23.822  0.00  0.00    +0.000 HD
ENDROOT
TORSDOF 0
ENDMDL
MODEL 2
REMARK VINA RESULT:      -6.1      3.195      5.097
REMARK  Name = 
REMARK  1 active torsions:
REMARK  status: ('A' for Active; 'I' for Inactive)
REMARK    1  A    between atoms: C_1  and  N_2
REMARK                            x       y       z     vdW  Elec       q    Type
REMARK                         _______ _______ _______ _____ _____    ______ ____
ROOT
ATOM      1  C   UNL     1      -2.493  10.053  17.919  0.00  0.00    +0.000 C 
ATOM      2  N   UNL     1      -2.724  11.401  18.502  0.00  0.00    +0.000 N 
ATOM      3  C   UNL     1      -1.535  11.591  19.876  0.00  0.00    +0.000 A 
ATOM      4  C   UNL     1      -0.275  11.817  19.320  0.00  0.00    +0.000 A 
ATOM      5  C   UNL     1       0.574  12.566  20.137  0.00  0.00    +0.000 A 
ATOM      6  C   UNL     1       0.249  13.004  21.475  0.00  0.00    +0.000 A 
ATOM      7  C   UNL     1      -0.961  12.762  22.186  0.00  0.00    +0.000 A 
ATOM      8  C   UNL     1      -1.999  12.145  21.517  0.00  0.00    +0.000 A 
ATOM      9  N   UNL     1      -3.697  12.553  22.170  0.00  0.00    +0.000 NA
ATOM     10  C   UNL     1      -5.038  12.778  21.377  0.00  0.00    +0.000 C 
ATOM     11  N   UNL     1      -6.214  13.194  21.941  0.00  0.00    +0.000 N 
ATOM     12  C   UNL     1      -7.451  12.411  21.851  0.00  0.00    +0.000 C 
ATOM     13  C   UNL     1      -7.810  11.902  23.256  0.00  0.00    +0.000 C 
ATOM     14  N   UNL     1      -7.914  12.993  24.244  0.00  0.00    +0.000 NA
ATOM     15  C   UNL     1      -6.688  13.825  24.234  0.00  0.00    +0.000 C 
ATOM     16  C   UNL     1      -6.326  14.334  22.834  0.00  0.00    +0.000 C 
ATOM     17  C   UNL     1      -5.380  12.538  19.578  0.00  0.00    +0.000 A 
ATOM     18  C   UNL     1      -6.472  13.031  18.895  0.00  0.00    +0.000 A 
ATOM     19  S   UNL     1      -6.485  12.660  17.213  0.00  0.00    +0.000 S 
ATOM     20  C   UNL     1      -4.942  11.909  17.134  0.00  0.00    +0.000 A 
ATOM     21  C   UNL     1      -4.288  11.876  18.343  0.00  0.00    +0.000 A 
ATOM     22  H   UNL     1      -8.028  12.590  25.173  0.00  0.00    +0.000 HD
ENDROOT
TORSDOF 0
ENDMDL
MODEL 3
REMARK VINA RESULT:      -6.1      2.603      3.876
REMARK  Name = 
REMARK  1 active torsions:
REMARK  status: ('A' for Active; 'I' for Inactive)
REMARK    1  A    between atoms: C_1  and  N_2
REMARK                            x       y       z     vdW  Elec       q    Type
REMARK                         _______ _______ _______ _____ _____    ______ ____
ROOT
ATOM      1  C   UNL     1      -4.280  11.364  16.577  0.00  0.00    +0.000 C 
ATOM      2  N   UNL     1      -4.034  10.988  17.994  0.00  0.00    +0.000 N 
ATOM      3  C   UNL     1      -5.462  11.598  18.957  0.00  0.00    +0.000 A 
ATOM      4  C   UNL     1      -6.541  10.752  18.699  0.00  0.00    +0.000 A 
ATOM      5  C   UNL     1      -7.460  10.677  19.748  0.00  0.00    +0.000 A 
ATOM      6  C   UNL     1      -7.383  11.457  20.963  0.00  0.00    +0.000 A 
ATOM      7  C   UNL     1      -6.387  12.416  21.304  0.00  0.00    +0.000 A 
ATOM      8  C   UNL     1      -5.303  12.559  20.462  0.00  0.00    +0.000 A 
ATOM      9  N   UNL     1      -3.751  13.175  21.290  0.00  0.00    +0.000 NA
ATOM     10  C   UNL     1      -2.254  12.761  21.028  0.00  0.00    +0.000 C 
ATOM     11  N   UNL     1      -1.189  13.185  21.775  0.00  0.00    +0.000 N 
ATOM     12  C   UNL     1      -0.054  13.906  21.190  0.00  0.00    +0.000 C 
ATOM     13  C   UNL     1      -0.061  15.347  21.726  0.00  0.00    +0.000 C 
ATOM     14  N   UNL     1      -0.054  15.402  23.202  0.00  0.00    +0.000 NA
ATOM     15  C   UNL     1      -1.152  14.578  23.760  0.00  0.00    +0.000 C 
ATOM     16  C   UNL     1      -1.148  13.141  23.226  0.00  0.00    +0.000 C 
ATOM     17  C   UNL     1      -1.563  11.673  19.706  0.00  0.00    +0.000 A 
ATOM     18  C   UNL     1      -0.303  11.112  19.705  0.00  0.00    +0.000 A 
ATOM     19  S   UNL     1       0.030  10.116  18.340  0.00  0.00    +0.000 S 
ATOM     20  C   UNL     1      -1.533  10.176  17.628  0.00  0.00    +0.000 A 
ATOM     21  C   UNL     1      -2.430  10.933  18.343  0.00  0.00    +0.000 A 
ATOM     22  H   UNL     1      -0.185  16.368  23.498  0.00  0.00    +0.000 HD
ENDROOT
TORSDOF 0
ENDMDL
MODEL 4
REMARK VINA RESULT:      -5.8      3.168      5.666
REMARK  Name = 
REMARK  1 active torsions:
REMARK  status: ('A' for Active; 'I' for Inactive)
REMARK    1  A    between atoms: C_1  and  N_2
REMARK                            x       y       z     vdW  Elec       q    Type
REMARK                         _______ _______ _______ _____ _____    ______ ____
ROOT
ATOM      1  C   UNL     1      -6.636  12.751  17.122  0.00  0.00    +0.000 C 
ATOM      2  N   UNL     1      -5.806  12.015  18.110  0.00  0.00    +0.000 N 
ATOM      3  C   UNL     1      -6.241  12.672  19.759  0.00  0.00    +0.000 A 
ATOM      4  C   UNL     1      -7.489  12.154  20.107  0.00  0.00    +0.000 A 
ATOM      5  C   UNL     1      -7.683  12.033  21.484  0.00  0.00    +0.000 A 
ATOM      6  C   UNL     1      -6.742  12.477  22.487  0.00  0.00    +0.000 A 
ATOM      7  C   UNL     1      -5.481  13.100  22.264  0.00  0.00    +0.000 A 
ATOM      8  C   UNL     1      -5.025  13.204  20.965  0.00  0.00    +0.000 A 
ATOM      9  N   UNL     1      -3.170  13.272  20.794  0.00  0.00    +0.000 NA
ATOM     10  C   UNL     1      -2.250  12.626  19.692  0.00  0.00    +0.000 C 
ATOM     11  N   UNL     1      -0.881  12.632  19.721  0.00  0.00    +0.000 N 
ATOM     12  C   UNL     1      -0.073  13.214  18.645  0.00  0.00    +0.000 C 
ATOM     13  C   UNL     1       0.642  14.460  19.190  0.00  0.00    +0.000 C 
ATOM     14  N   UNL     1       1.446  14.170  20.394  0.00  0.00    +0.000 NA
ATOM     15  C   UNL     1       0.623  13.489  21.420  0.00  0.00    +0.000 C 
ATOM     16  C   UNL     1      -0.094  12.246  20.878  0.00  0.00    +0.000 C 
ATOM     17  C   UNL     1      -2.733  11.752  18.139  0.00  0.00    +0.000 A 
ATOM     18  C   UNL     1      -1.907  10.955  17.375  0.00  0.00    +0.000 A 
ATOM     19  S   UNL     1      -2.669  10.254  15.998  0.00  0.00    +0.000 S 
ATOM     20  C   UNL     1      -4.265  10.804  16.318  0.00  0.00    +0.000 A 
ATOM     21  C   UNL     1      -4.367  11.546  17.471  0.00  0.00    +0.000 A 
ATOM     22  H   UNL     1       1.792  15.047  20.780  0.00  0.00    +0.000 HD
ENDROOT
TORSDOF 0
ENDMDL
MODEL 5
REMARK VINA RESULT:      -5.8      9.648     11.526
REMARK  Name = 
REMARK  1 active torsions:
REMARK  status: ('A' for Active; 'I' for Inactive)
REMARK    1  A    between atoms: C_1  and  N_2
REMARK                            x       y       z     vdW  Elec       q    Type
REMARK                         _______ _______ _______ _____ _____    ______ ____
ROOT
ATOM      1  C   UNL     1       7.465  12.965  17.080  0.00  0.00    +0.000 C 
ATOM      2  N   UNL     1       8.243  13.669  18.133  0.00  0.00    +0.000 N 
ATOM      3  C   UNL     1       9.674  12.605  18.531  0.00  0.00    +0.000 A 
ATOM      4  C   UNL     1      10.590  12.716  17.484  0.00  0.00    +0.000 A 
ATOM      5  C   UNL     1      11.915  12.504  17.871  0.00  0.00    +0.000 A 
ATOM      6  C   UNL     1      12.329  12.114  19.200  0.00  0.00    +0.000 A 
ATOM      7  C   UNL     1      11.488  11.882  20.326  0.00  0.00    +0.000 A 
ATOM      8  C   UNL     1      10.141  12.159  20.204  0.00  0.00    +0.000 A 
ATOM      9  N   UNL     1       9.287  12.589  21.804  0.00  0.00    +0.000 NA
ATOM     10  C   UNL     1       8.157  13.653  22.071  0.00  0.00    +0.000 C 
ATOM     11  N   UNL     1       7.677  13.980  23.310  0.00  0.00    +0.000 N 
ATOM     12  C   UNL     1       6.260  13.847  23.666  0.00  0.00    +0.000 C 
ATOM     13  C   UNL     1       6.123  12.734  24.717  0.00  0.00    +0.000 C 
ATOM     14  N   UNL     1       6.974  12.965  25.901  0.00  0.00    +0.000 NA
ATOM     15  C   UNL     1       8.380  13.199  25.496  0.00  0.00    +0.000 C 
ATOM     16  C   UNL     1       8.520  14.308  24.446  0.00  0.00    +0.000 C 
ATOM     17  C   UNL     1       7.211  14.674  20.859  0.00  0.00    +0.000 A 
ATOM     18  C   UNL     1       6.458  15.790  21.163  0.00  0.00    +0.000 A 
ATOM     19  S   UNL     1       5.721  16.543  19.800  0.00  0.00    +0.000 S 
ATOM     20  C   UNL     1       6.435  15.561  18.584  0.00  0.00    +0.000 A 
ATOM     21  C   UNL     1       7.281  14.600  19.085  0.00  0.00    +0.000 A 
ATOM     22  H   UNL     1       6.938  12.142  26.500  0.00  0.00    +0.000 HD
ENDROOT
TORSDOF 0
ENDMDL
MODEL 6
REMARK VINA RESULT:      -5.8      2.581      4.479
REMARK  Name = 
REMARK  1 active torsions:
REMARK  status: ('A' for Active; 'I' for Inactive)
REMARK    1  A    between atoms: C_1  and  N_2
REMARK                            x       y       z     vdW  Elec       q    Type
REMARK                         _______ _______ _______ _____ _____    ______ ____
ROOT
ATOM      1  C   UNL     1      -1.061  11.376  18.175  0.00  0.00    +0.000 C 
ATOM      2  N   UNL     1      -0.365  11.899  19.380  0.00  0.00    +0.000 N 
ATOM      3  C   UNL     1      -0.394  10.563  20.626  0.00  0.00    +0.000 A 
ATOM      4  C   UNL     1       0.544   9.604  20.243  0.00  0.00    +0.000 A 
ATOM      5  C   UNL     1       1.084   8.886  21.312  0.00  0.00    +0.000 A 
ATOM      6  C   UNL     1       0.669   9.030  22.689  0.00  0.00    +0.000 A 
ATOM      7  C   UNL     1      -0.335   9.904  23.195  0.00  0.00    +0.000 A 
ATOM      8  C   UNL     1      -0.915  10.805  22.325  0.00  0.00    +0.000 A 
ATOM      9  N   UNL     1      -1.572  12.352  23.131  0.00  0.00    +0.000 NA
ATOM     10  C   UNL     1      -1.549  13.834  22.601  0.00  0.00    +0.000 C 
ATOM     11  N   UNL     1      -1.952  14.924  23.324  0.00  0.00    +0.000 N 
ATOM     12  C   UNL     1      -3.015  15.825  22.865  0.00  0.00    +0.000 C 
ATOM     13  C   UNL     1      -4.221  15.675  23.805  0.00  0.00    +0.000 C 
ATOM     14  N   UNL     1      -3.868  15.907  25.220  0.00  0.00    +0.000 NA
ATOM     15  C   UNL     1      -2.724  15.055  25.619  0.00  0.00    +0.000 C 
ATOM     16  C   UNL     1      -1.519  15.200  24.682  0.00  0.00    +0.000 C 
ATOM     17  C   UNL     1      -1.025  14.470  20.948  0.00  0.00    +0.000 A 
ATOM     18  C   UNL     1      -0.745  15.787  20.646  0.00  0.00    +0.000 A 
ATOM     19  S   UNL     1      -0.248  16.053  19.018  0.00  0.00    +0.000 S 
ATOM     20  C   UNL     1      -0.194  14.407  18.526  0.00  0.00    +0.000 A 
ATOM     21  C   UNL     1      -0.533  13.526  19.526  0.00  0.00    +0.000 A 
ATOM     22  H   UNL     1      -4.670  15.674  25.804  0.00  0.00    +0.000 HD
ENDROOT
TORSDOF 0
ENDMDL
MODEL 7
REMARK VINA RESULT:      -5.8      2.742      6.544
REMARK  Name = 
REMARK  1 active torsions:
REMARK  status: ('A' for Active; 'I' for Inactive)
REMARK    1  A    between atoms: C_1  and  N_2
REMARK                            x       y       z     vdW  Elec       q    Type
REMARK                         _______ _______ _______ _____ _____    ______ ____
ROOT
ATOM      1  C   UNL     1      -6.802  14.475  20.334  0.00  0.00    +0.000 C 
ATOM      2  N   UNL     1      -6.048  13.226  20.620  0.00  0.00    +0.000 N 
ATOM      3  C   UNL     1      -5.507  13.325  22.363  0.00  0.00    +0.000 A 
ATOM      4  C   UNL     1      -6.622  13.085  23.168  0.00  0.00    +0.000 A 
ATOM      5  C   UNL     1      -6.310  12.525  24.408  0.00  0.00    +0.000 A 
ATOM      6  C   UNL     1      -4.967  12.288  24.887  0.00  0.00    +0.000 A 
ATOM      7  C   UNL     1      -3.750  12.572  24.202  0.00  0.00    +0.000 A 
ATOM      8  C   UNL     1      -3.824  13.014  22.896  0.00  0.00    +0.000 A 
ATOM      9  N   UNL     1      -2.328  12.620  21.856  0.00  0.00    +0.000 NA
ATOM     10  C   UNL     1      -2.256  12.195  20.342  0.00  0.00    +0.000 C 
ATOM     11  N   UNL     1      -1.112  11.809  19.697  0.00  0.00    +0.000 N 
ATOM     12  C   UNL     1      -0.611  12.496  18.502  0.00  0.00    +0.000 C 
ATOM     13  C   UNL     1       0.706  13.202  18.861  0.00  0.00    +0.000 C 
ATOM     14  N   UNL     1       1.707  12.278  19.431  0.00  0.00    +0.000 NA
ATOM     15  C   UNL     1       1.133  11.526  20.571  0.00  0.00    +0.000 C 
ATOM     16  C   UNL     1      -0.183  10.822  20.217  0.00  0.00    +0.000 C 
ATOM     17  C   UNL     1      -3.609  12.126  19.087  0.00  0.00    +0.000 A 
ATOM     18  C   UNL     1      -3.549  11.469  17.876  0.00  0.00    +0.000 A 
ATOM     19  S   UNL     1      -4.993  11.566  16.942  0.00  0.00    +0.000 S 
ATOM     20  C   UNL     1      -5.961  12.381  18.105  0.00  0.00    +0.000 A 
ATOM     21  C   UNL     1      -5.298  12.644  19.280  0.00  0.00    +0.000 A 
ATOM     22  H   UNL     1       2.505  12.817  19.763  0.00  0.00    +0.000 HD
ENDROOT
TORSDOF 0
ENDMDL
MODEL 8
REMARK VINA RESULT:      -5.7      3.033      5.903
REMARK  Name = 
REMARK  1 active torsions:
REMARK  status: ('A' for Active; 'I' for Inactive)
REMARK    1  A    between atoms: C_1  and  N_2
REMARK                            x       y       z     vdW  Elec       q    Type
REMARK                         _______ _______ _______ _____ _____    ______ ____
ROOT
ATOM      1  C   UNL     1      -2.497  13.695  24.184  0.00  0.00    +0.000 C 
ATOM      2  N   UNL     1      -3.094  12.649  23.313  0.00  0.00    +0.000 N 
ATOM      3  C   UNL     1      -1.816  12.187  22.092  0.00  0.00    +0.000 A 
ATOM      4  C   UNL     1      -0.870  11.397  22.746  0.00  0.00    +0.000 A 
ATOM      5  C   UNL     1      -0.218  10.491  21.909  0.00  0.00    +0.000 A 
ATOM      6  C   UNL     1      -0.411  10.410  20.478  0.00  0.00    +0.000 A 
ATOM      7  C   UNL     1      -1.276  11.216  19.683  0.00  0.00    +0.000 A 
ATOM      8  C   UNL     1      -2.118  12.100  20.327  0.00  0.00    +0.000 A 
ATOM      9  N   UNL     1      -3.679  12.507  19.393  0.00  0.00    +0.000 NA
ATOM     10  C   UNL     1      -5.136  12.734  19.945  0.00  0.00    +0.000 C 
ATOM     11  N   UNL     1      -6.245  12.911  19.162  0.00  0.00    +0.000 N 
ATOM     12  C   UNL     1      -7.091  14.106  19.252  0.00  0.00    +0.000 C 
ATOM     13  C   UNL     1      -6.947  14.905  17.947  0.00  0.00    +0.000 C 
ATOM     14  N   UNL     1      -7.253  14.096  16.751  0.00  0.00    +0.000 NA
ATOM     15  C   UNL     1      -6.456  12.848  16.746  0.00  0.00    +0.000 C 
ATOM     16  C   UNL     1      -6.595  12.048  18.048  0.00  0.00    +0.000 C 
ATOM     17  C   UNL     1      -5.713  12.842  21.695  0.00  0.00    +0.000 A 
ATOM     18  C   UNL     1      -7.022  12.742  22.118  0.00  0.00    +0.000 A 
ATOM     19  S   UNL     1      -7.229  12.850  23.824  0.00  0.00    +0.000 S 
ATOM     20  C   UNL     1      -5.565  12.896  24.253  0.00  0.00    +0.000 A 
ATOM     21  C   UNL     1      -4.721  12.829  23.170  0.00  0.00    +0.000 A 
ATOM     22  H   UNL     1      -7.022  14.636  15.918  0.00  0.00    +0.000 HD
ENDROOT
TORSDOF 0
ENDMDL
MODEL 9
REMARK VINA RESULT:      -5.6      4.389      5.239
REMARK  Name = 
REMARK  1 active torsions:
REMARK  status: ('A' for Active; 'I' for Inactive)
REMARK    1  A    between atoms: C_1  and  N_2
REMARK                            x       y       z     vdW  Elec       q    Type
REMARK                         _______ _______ _______ _____ _____    ______ ____
ROOT
ATOM      1  C   UNL     1       3.483  15.423  18.943  0.00  0.00    +0.000 C 
ATOM      2  N   UNL     1       2.126  15.119  18.417  0.00  0.00    +0.000 N 
ATOM      3  C   UNL     1       1.159  16.665  18.531  0.00  0.00    +0.000 A 
ATOM      4  C   UNL     1       1.593  17.514  17.512  0.00  0.00    +0.000 A 
ATOM      5  C   UNL     1       0.615  18.407  17.070  0.00  0.00    +0.000 A 
ATOM      6  C   UNL     1      -0.703  18.533  17.649  0.00  0.00    +0.000 A 
ATOM      7  C   UNL     1      -1.233  17.791  18.744  0.00  0.00    +0.000 A 
ATOM      8  C   UNL     1      -0.477  16.757  19.258  0.00  0.00    +0.000 A 
ATOM      9  N   UNL     1      -1.466  15.403  20.074  0.00  0.00    +0.000 NA
ATOM     10  C   UNL     1      -1.223  13.848  20.056  0.00  0.00    +0.000 C 
ATOM     11  N   UNL     1      -2.078  12.922  20.589  0.00  0.00    +0.000 N 
ATOM     12  C   UNL     1      -1.664  11.975  21.631  0.00  0.00    +0.000 C 
ATOM     13  C   UNL     1      -2.405  12.325  22.931  0.00  0.00    +0.000 C 
ATOM     14  N   UNL     1      -3.871  12.354  22.756  0.00  0.00    +0.000 NA
ATOM     15  C   UNL     1      -4.245  13.240  21.629  0.00  0.00    +0.000 C 
ATOM     16  C   UNL     1      -3.506  12.895  20.331  0.00  0.00    +0.000 C 
ATOM     17  C   UNL     1       0.208  12.902  19.371  0.00  0.00    +0.000 A 
ATOM     18  C   UNL     1       0.227  11.546  19.117  0.00  0.00    +0.000 A 
ATOM     19  S   UNL     1       1.705  10.970  18.446  0.00  0.00    +0.000 S 
ATOM     20  C   UNL     1       2.480  12.492  18.260  0.00  0.00    +0.000 A 
ATOM     21  C   UNL     1       1.707  13.552  18.674  0.00  0.00    +0.000 A 
ATOM     22  H   UNL     1      -4.299  12.711  23.610  0.00  0.00    +0.000 HD
ENDROOT
TORSDOF 0
ENDMDL
