MODEL 1
REMARK VINA RESULT:      -8.0      0.000      0.000
REMARK  Name = 
REMARK  8 active torsions:
REMARK  status: ('A' for Active; 'I' for Inactive)
REMARK    1  A    between atoms: C_1  and  N_2
REMARK    2  A    between atoms: N_5  and  C_6
REMARK    3  A    between atoms: C_6  and  C_7
REMARK    4  A    between atoms: C_7  and  C_8
REMARK    5  A    between atoms: C_8  and  N_9
REMARK    6  A    between atoms: C_13  and  C_14
REMARK    7  A    between atoms: C_17  and  N_18
REMARK    8  A    between atoms: C_19  and  C_21
REMARK                            x       y       z     vdW  Elec       q    Type
REMARK                         _______ _______ _______ _____ _____    ______ ____
ROOT
ATOM      1  N   UNL     1       6.225   6.387  16.289  0.00  0.00    +0.000 N 
ATOM      2  C   UNL     1       7.118   6.888  17.161  0.00  0.00    +0.000 A 
ATOM      3  N   UNL     1       7.720   6.324  18.186  0.00  0.00    +0.000 NA
ATOM      4  N   UNL     1       8.452   7.310  18.798  0.00  0.00    +0.000 NA
ATOM      5  C   UNL     1       8.251   8.417  18.108  0.00  0.00    +0.000 A 
ATOM      6  O   UNL     1       7.423   8.215  17.029  0.00  0.00    +0.000 OA
ATOM      7  H   UNL     1       5.734   7.083  15.742  0.00  0.00    +0.000 HD
ENDROOT
BRANCH   5   8
ATOM      8  C   UNL     1       8.674   9.776  18.400  0.00  0.00    +0.000 A 
ATOM      9  C   UNL     1       9.362  10.041  19.586  0.00  0.00    +0.000 A 
ATOM     10  C   UNL     1       9.683  11.353  19.944  0.00  0.00    +0.000 A 
ATOM     11  C   UNL     1       9.334  12.436  19.138  0.00  0.00    +0.000 A 
ATOM     12  C   UNL     1       8.647  12.181  17.945  0.00  0.00    +0.000 A 
ATOM     13  C   UNL     1       8.342  10.862  17.572  0.00  0.00    +0.000 A 
BRANCH  11  14
ATOM     14  N   UNL     1       9.644  13.771  19.508  0.00  0.00    +0.000 N 
ATOM     15  C   UNL     1      10.846  14.406  19.212  0.00  0.00    +0.000 C 
ATOM     16  O   UNL     1      11.760  13.911  18.552  0.00  0.00    +0.000 OA
ATOM     17  H   UNL     1       8.919  14.310  19.973  0.00  0.00    +0.000 HD
BRANCH  15  18
ATOM     18  C   UNL     1      11.071  15.792  19.698  0.00  0.00    +0.000 A 
ATOM     19  C   UNL     1      11.399  15.953  21.059  0.00  0.00    +0.000 A 
ATOM     20  C   UNL     1      11.501  17.225  21.623  0.00  0.00    +0.000 A 
ATOM     21  C   UNL     1      11.297  18.348  20.837  0.00  0.00    +0.000 A 
ATOM     22  C   UNL     1      11.013  18.203  19.475  0.00  0.00    +0.000 A 
ATOM     23  C   UNL     1      10.910  16.929  18.913  0.00  0.00    +0.000 A 
ATOM     24  F   UNL     1      10.629  16.831  17.604  0.00  0.00    +0.000 F 
ENDBRANCH  15  18
ENDBRANCH  11  14
ENDBRANCH   5   8
BRANCH   1  25
ATOM     25  C   UNL     1       5.392   5.289  16.769  0.00  0.00    +0.000 C 
BRANCH  25  26
ATOM     26  C   UNL     1       4.547   5.776  17.943  0.00  0.00    +0.000 C 
BRANCH  26  27
ATOM     27  C   UNL     1       3.087   5.309  17.829  0.00  0.00    +0.000 C 
BRANCH  27  32
ATOM     28  C   UNL     1       1.559   2.641  21.614  0.00  0.00    +0.000 C 
ATOM     29  N   UNL     1       2.003   2.616  20.226  0.00  0.00    +0.000 NA
ATOM     30  C   UNL     1       3.387   3.104  20.084  0.00  0.00    +0.000 C 
ATOM     31  C   UNL     1       3.853   3.129  18.603  0.00  0.00    +0.000 C 
ATOM     32  N   UNL     1       2.950   3.850  17.672  0.00  0.00    +0.000 NA
ATOM     33  C   UNL     1       1.579   3.341  17.891  0.00  0.00    +0.000 C 
ATOM     34  C   UNL     1       1.105   3.398  19.360  0.00  0.00    +0.000 C 
ENDBRANCH  27  32
ENDBRANCH  26  27
ENDBRANCH  25  26
ENDBRANCH   1  25
TORSDOF 7
ENDMDL
MODEL 2
REMARK VINA RESULT:      -8.0      1.365      1.790
REMARK  Name = 
REMARK  8 active torsions:
REMARK  status: ('A' for Active; 'I' for Inactive)
REMARK    1  A    between atoms: C_1  and  N_2
REMARK    2  A    between atoms: N_5  and  C_6
REMARK    3  A    between atoms: C_6  and  C_7
REMARK    4  A    between atoms: C_7  and  C_8
REMARK    5  A    between atoms: C_8  and  N_9
REMARK    6  A    between atoms: C_13  and  C_14
REMARK    7  A    between atoms: C_17  and  N_18
REMARK    8  A    between atoms: C_19  and  C_21
REMARK                            x       y       z     vdW  Elec       q    Type
REMARK                         _______ _______ _______ _____ _____    ______ ____
ROOT
ATOM      1  N   UNL     1       6.983   6.076  16.016  0.00  0.00    +0.000 N 
ATOM      2  C   UNL     1       7.549   6.661  17.086  0.00  0.00    +0.000 A 
ATOM      3  N   UNL     1       7.767   6.197  18.297  0.00  0.00    +0.000 NA
ATOM      4  N   UNL     1       8.277   7.240  19.028  0.00  0.00    +0.000 NA
ATOM      5  C   UNL     1       8.339   8.279  18.216  0.00  0.00    +0.000 A 
ATOM      6  O   UNL     1       7.908   7.974  16.946  0.00  0.00    +0.000 OA
ATOM      7  H   UNL     1       6.714   6.716  15.278  0.00  0.00    +0.000 HD
ENDROOT
BRANCH   5   8
ATOM      8  C   UNL     1       8.671   9.662  18.511  0.00  0.00    +0.000 A 
ATOM      9  C   UNL     1       8.371  10.654  17.574  0.00  0.00    +0.000 A 
ATOM     10  C   UNL     1       8.778  11.975  17.782  0.00  0.00    +0.000 A 
ATOM     11  C   UNL     1       9.488  12.349  18.922  0.00  0.00    +0.000 A 
ATOM     12  C   UNL     1       9.790  11.363  19.870  0.00  0.00    +0.000 A 
ATOM     13  C   UNL     1       9.364  10.040  19.673  0.00  0.00    +0.000 A 
BRANCH  11  14
ATOM     14  N   UNL     1       9.917  13.688  19.128  0.00  0.00    +0.000 N 
ATOM     15  C   UNL     1       9.091  14.713  19.578  0.00  0.00    +0.000 C 
ATOM     16  O   UNL     1       7.911  14.576  19.901  0.00  0.00    +0.000 OA
ATOM     17  H   UNL     1      10.901  13.891  18.986  0.00  0.00    +0.000 HD
BRANCH  15  18
ATOM     18  C   UNL     1       9.646  16.085  19.706  0.00  0.00    +0.000 A 
ATOM     19  C   UNL     1      10.836  16.233  20.446  0.00  0.00    +0.000 A 
ATOM     20  C   UNL     1      11.353  17.500  20.720  0.00  0.00    +0.000 A 
ATOM     21  C   UNL     1      10.704  18.629  20.245  0.00  0.00    +0.000 A 
ATOM     22  C   UNL     1       9.546  18.494  19.473  0.00  0.00    +0.000 A 
ATOM     23  C   UNL     1       9.029  17.225  19.201  0.00  0.00    +0.000 A 
ATOM     24  F   UNL     1       7.912  17.137  18.462  0.00  0.00    +0.000 F 
ENDBRANCH  15  18
ENDBRANCH  11  14
ENDBRANCH   5   8
BRANCH   1  25
ATOM     25  C   UNL     1       6.015   5.018  16.288  0.00  0.00    +0.000 C 
BRANCH  25  26
ATOM     26  C   UNL     1       4.634   5.639  16.482  0.00  0.00    +0.000 C 
BRANCH  26  27
ATOM     27  C   UNL     1       3.793   4.857  17.504  0.00  0.00    +0.000 C 
BRANCH  27  32
ATOM     28  C   UNL     1       1.262   2.905  21.186  0.00  0.00    +0.000 C 
ATOM     29  N   UNL     1       2.504   3.558  20.794  0.00  0.00    +0.000 NA
ATOM     30  C   UNL     1       2.269   4.920  20.280  0.00  0.00    +0.000 C 
ATOM     31  C   UNL     1       3.581   5.607  19.813  0.00  0.00    +0.000 C 
ATOM     32  N   UNL     1       4.393   4.822  18.850  0.00  0.00    +0.000 NA
ATOM     33  C   UNL     1       4.559   3.462  19.406  0.00  0.00    +0.000 C 
ATOM     34  C   UNL     1       3.236   2.766  19.792  0.00  0.00    +0.000 C 
ENDBRANCH  27  32
ENDBRANCH  26  27
ENDBRANCH  25  26
ENDBRANCH   1  25
TORSDOF 7
ENDMDL
MODEL 3
REMARK VINA RESULT:      -7.9      5.933      7.761
REMARK  Name = 
REMARK  8 active torsions:
REMARK  status: ('A' for Active; 'I' for Inactive)
REMARK    1  A    between atoms: C_1  and  N_2
REMARK    2  A    between atoms: N_5  and  C_6
REMARK    3  A    between atoms: C_6  and  C_7
REMARK    4  A    between atoms: C_7  and  C_8
REMARK    5  A    between atoms: C_8  and  N_9
REMARK    6  A    between atoms: C_13  and  C_14
REMARK    7  A    between atoms: C_17  and  N_18
REMARK    8  A    between atoms: C_19  and  C_21
REMARK                            x       y       z     vdW  Elec       q    Type
REMARK                         _______ _______ _______ _____ _____    ______ ____
ROOT
ATOM      1  N   UNL     1       4.492   4.445  19.423  0.00  0.00    +0.000 N 
ATOM      2  C   UNL     1       3.416   5.176  19.765  0.00  0.00    +0.000 A 
ATOM      3  N   UNL     1       2.280   4.815  20.322  0.00  0.00    +0.000 NA
ATOM      4  N   UNL     1       1.490   5.936  20.356  0.00  0.00    +0.000 NA
ATOM      5  C   UNL     1       2.193   6.914  19.816  0.00  0.00    +0.000 A 
ATOM      6  O   UNL     1       3.449   6.503  19.434  0.00  0.00    +0.000 OA
ATOM      7  H   UNL     1       5.135   4.910  18.795  0.00  0.00    +0.000 HD
ENDROOT
BRANCH   5   8
ATOM      8  C   UNL     1       1.785   8.267  19.479  0.00  0.00    +0.000 A 
ATOM      9  C   UNL     1       2.175   8.817  18.255  0.00  0.00    +0.000 A 
ATOM     10  C   UNL     1       1.892  10.151  17.952  0.00  0.00    +0.000 A 
ATOM     11  C   UNL     1       1.214  10.975  18.849  0.00  0.00    +0.000 A 
ATOM     12  C   UNL     1       0.815  10.433  20.078  0.00  0.00    +0.000 A 
ATOM     13  C   UNL     1       1.080   9.087  20.376  0.00  0.00    +0.000 A 
BRANCH  11  14
ATOM     14  N   UNL     1       0.940  12.336  18.551  0.00  0.00    +0.000 N 
ATOM     15  C   UNL     1       1.525  13.415  19.208  0.00  0.00    +0.000 C 
ATOM     16  O   UNL     1       2.383  13.322  20.086  0.00  0.00    +0.000 OA
ATOM     17  H   UNL     1       0.317  12.529  17.772  0.00  0.00    +0.000 HD
BRANCH  15  18
ATOM     18  C   UNL     1       1.117  14.794  18.837  0.00  0.00    +0.000 A 
ATOM     19  C   UNL     1       2.112  15.641  18.310  0.00  0.00    +0.000 A 
ATOM     20  C   UNL     1       1.844  16.986  18.055  0.00  0.00    +0.000 A 
ATOM     21  C   UNL     1       0.580  17.498  18.305  0.00  0.00    +0.000 A 
ATOM     22  C   UNL     1      -0.429  16.658  18.789  0.00  0.00    +0.000 A 
ATOM     23  C   UNL     1      -0.157  15.312  19.045  0.00  0.00    +0.000 A 
ATOM     24  F   UNL     1      -1.150  14.540  19.515  0.00  0.00    +0.000 F 
ENDBRANCH  15  18
ENDBRANCH  11  14
ENDBRANCH   5   8
BRANCH   1  25
ATOM     25  C   UNL     1       4.253   3.037  19.119  0.00  0.00    +0.000 C 
BRANCH  25  26
ATOM     26  C   UNL     1       4.291   2.837  17.606  0.00  0.00    +0.000 C 
BRANCH  26  27
ATOM     27  C   UNL     1       4.111   4.163  16.849  0.00  0.00    +0.000 C 
BRANCH  27  32
ATOM     28  C   UNL     1       7.855   6.993  18.171  0.00  0.00    +0.000 C 
ATOM     29  N   UNL     1       7.261   6.209  17.095  0.00  0.00    +0.000 NA
ATOM     30  C   UNL     1       5.946   6.740  16.692  0.00  0.00    +0.000 C 
ATOM     31  C   UNL     1       5.281   5.883  15.581  0.00  0.00    +0.000 C 
ATOM     32  N   UNL     1       5.186   4.432  15.878  0.00  0.00    +0.000 NA
ATOM     33  C   UNL     1       6.524   3.973  16.310  0.00  0.00    +0.000 C 
ATOM     34  C   UNL     1       7.134   4.790  17.470  0.00  0.00    +0.000 C 
ENDBRANCH  27  32
ENDBRANCH  26  27
ENDBRANCH  25  26
ENDBRANCH   1  25
TORSDOF 7
ENDMDL
MODEL 4
REMARK VINA RESULT:      -7.8      6.278      8.442
REMARK  Name = 
REMARK  8 active torsions:
REMARK  status: ('A' for Active; 'I' for Inactive)
REMARK    1  A    between atoms: C_1  and  N_2
REMARK    2  A    between atoms: N_5  and  C_6
REMARK    3  A    between atoms: C_6  and  C_7
REMARK    4  A    between atoms: C_7  and  C_8
REMARK    5  A    between atoms: C_8  and  N_9
REMARK    6  A    between atoms: C_13  and  C_14
REMARK    7  A    between atoms: C_17  and  N_18
REMARK    8  A    between atoms: C_19  and  C_21
REMARK                            x       y       z     vdW  Elec       q    Type
REMARK                         _______ _______ _______ _____ _____    ______ ____
ROOT
ATOM      1  N   UNL     1       4.458   4.182  19.428  0.00  0.00    +0.000 N 
ATOM      2  C   UNL     1       3.389   4.839  19.912  0.00  0.00    +0.000 A 
ATOM      3  N   UNL     1       2.299   4.386  20.491  0.00  0.00    +0.000 NA
ATOM      4  N   UNL     1       1.486   5.472  20.697  0.00  0.00    +0.000 NA
ATOM      5  C   UNL     1       2.133   6.524  20.229  0.00  0.00    +0.000 A 
ATOM      6  O   UNL     1       3.372   6.195  19.731  0.00  0.00    +0.000 OA
ATOM      7  H   UNL     1       5.052   4.733  18.819  0.00  0.00    +0.000 HD
ENDROOT
BRANCH   5   8
ATOM      8  C   UNL     1       1.675   7.894  20.071  0.00  0.00    +0.000 A 
ATOM      9  C   UNL     1       1.028   8.528  21.135  0.00  0.00    +0.000 A 
ATOM     10  C   UNL     1       0.480   9.803  20.975  0.00  0.00    +0.000 A 
ATOM     11  C   UNL     1       0.560  10.485  19.761  0.00  0.00    +0.000 A 
ATOM     12  C   UNL     1       1.209   9.860  18.690  0.00  0.00    +0.000 A 
ATOM     13  C   UNL     1       1.779   8.587  18.854  0.00  0.00    +0.000 A 
BRANCH  11  14
ATOM     14  N   UNL     1      -0.011  11.775  19.591  0.00  0.00    +0.000 N 
ATOM     15  C   UNL     1       0.618  12.962  19.951  0.00  0.00    +0.000 C 
ATOM     16  O   UNL     1       1.759  13.044  20.407  0.00  0.00    +0.000 OA
ATOM     17  H   UNL     1      -0.914  11.830  19.130  0.00  0.00    +0.000 HD
BRANCH  15  18
ATOM     18  C   UNL     1      -0.105  14.247  19.769  0.00  0.00    +0.000 A 
ATOM     19  C   UNL     1       0.362  15.113  18.760  0.00  0.00    +0.000 A 
ATOM     20  C   UNL     1      -0.179  16.390  18.608  0.00  0.00    +0.000 A 
ATOM     21  C   UNL     1      -1.201  16.811  19.444  0.00  0.00    +0.000 A 
ATOM     22  C   UNL     1      -1.703  15.946  20.423  0.00  0.00    +0.000 A 
ATOM     23  C   UNL     1      -1.158  14.668  20.574  0.00  0.00    +0.000 A 
ATOM     24  F   UNL     1      -1.662  13.870  21.528  0.00  0.00    +0.000 F 
ENDBRANCH  15  18
ENDBRANCH  11  14
ENDBRANCH   5   8
BRANCH   1  25
ATOM     25  C   UNL     1       4.233   2.811  18.982  0.00  0.00    +0.000 C 
BRANCH  25  26
ATOM     26  C   UNL     1       4.171   2.783  17.457  0.00  0.00    +0.000 C 
BRANCH  26  27
ATOM     27  C   UNL     1       4.253   4.195  16.855  0.00  0.00    +0.000 C 
BRANCH  27  32
ATOM     28  C   UNL     1       7.746   7.486  17.717  0.00  0.00    +0.000 C 
ATOM     29  N   UNL     1       7.250   6.473  16.795  0.00  0.00    +0.000 NA
ATOM     30  C   UNL     1       5.920   6.822  16.260  0.00  0.00    +0.000 C 
ATOM     31  C   UNL     1       5.361   5.724  15.315  0.00  0.00    +0.000 C 
ATOM     32  N   UNL     1       5.348   4.353  15.881  0.00  0.00    +0.000 NA
ATOM     33  C   UNL     1       6.694   4.082  16.432  0.00  0.00    +0.000 C 
ATOM     34  C   UNL     1       7.200   5.145  17.430  0.00  0.00    +0.000 C 
ENDBRANCH  27  32
ENDBRANCH  26  27
ENDBRANCH  25  26
ENDBRANCH   1  25
TORSDOF 7
ENDMDL
MODEL 5
REMARK VINA RESULT:      -7.7      7.746      9.536
REMARK  Name = 
REMARK  8 active torsions:
REMARK  status: ('A' for Active; 'I' for Inactive)
REMARK    1  A    between atoms: C_1  and  N_2
REMARK    2  A    between atoms: N_5  and  C_6
REMARK    3  A    between atoms: C_6  and  C_7
REMARK    4  A    between atoms: C_7  and  C_8
REMARK    5  A    between atoms: C_8  and  N_9
REMARK    6  A    between atoms: C_13  and  C_14
REMARK    7  A    between atoms: C_17  and  N_18
REMARK    8  A    between atoms: C_19  and  C_21
REMARK                            x       y       z     vdW  Elec       q    Type
REMARK                         _______ _______ _______ _____ _____    ______ ____
ROOT
ATOM      1  N   UNL     1       2.878   6.045  18.069  0.00  0.00    +0.000 N 
ATOM      2  C   UNL     1       2.402   6.441  19.262  0.00  0.00    +0.000 A 
ATOM      3  N   UNL     1       2.177   5.756  20.362  0.00  0.00    +0.000 NA
ATOM      4  N   UNL     1       1.594   6.624  21.250  0.00  0.00    +0.000 NA
ATOM      5  C   UNL     1       1.498   7.789  20.636  0.00  0.00    +0.000 A 
ATOM      6  O   UNL     1       2.019   7.751  19.363  0.00  0.00    +0.000 OA
ATOM      7  H   UNL     1       2.733   6.708  17.316  0.00  0.00    +0.000 HD
ENDROOT
BRANCH   5   8
ATOM      8  C   UNL     1       0.836   9.008  21.066  0.00  0.00    +0.000 A 
ATOM      9  C   UNL     1       0.327   9.091  22.365  0.00  0.00    +0.000 A 
ATOM     10  C   UNL     1      -0.410  10.207  22.770  0.00  0.00    +0.000 A 
ATOM     11  C   UNL     1      -0.660  11.270  21.904  0.00  0.00    +0.000 A 
ATOM     12  C   UNL     1      -0.151  11.199  20.601  0.00  0.00    +0.000 A 
ATOM     13  C   UNL     1       0.608  10.089  20.197  0.00  0.00    +0.000 A 
BRANCH  11  14
ATOM     14  N   UNL     1      -1.423  12.398  22.308  0.00  0.00    +0.000 N 
ATOM     15  C   UNL     1      -0.875  13.622  22.678  0.00  0.00    +0.000 C 
ATOM     16  O   UNL     1       0.326  13.892  22.649  0.00  0.00    +0.000 OA
ATOM     17  H   UNL     1      -2.435  12.316  22.272  0.00  0.00    +0.000 HD
BRANCH  15  18
ATOM     18  C   UNL     1      -1.777  14.711  23.130  0.00  0.00    +0.000 A 
ATOM     19  C   UNL     1      -2.409  14.549  24.380  0.00  0.00    +0.000 A 
ATOM     20  C   UNL     1      -3.366  15.463  24.819  0.00  0.00    +0.000 A 
ATOM     21  C   UNL     1      -3.692  16.556  24.031  0.00  0.00    +0.000 A 
ATOM     22  C   UNL     1      -3.043  16.752  22.808  0.00  0.00    +0.000 A 
ATOM     23  C   UNL     1      -2.085  15.834  22.369  0.00  0.00    +0.000 A 
ATOM     24  F   UNL     1      -1.488  16.053  21.187  0.00  0.00    +0.000 F 
ENDBRANCH  15  18
ENDBRANCH  11  14
ENDBRANCH   5   8
BRANCH   1  25
ATOM     25  C   UNL     1       2.648   4.650  17.706  0.00  0.00    +0.000 C 
BRANCH  25  26
ATOM     26  C   UNL     1       3.899   4.093  17.031  0.00  0.00    +0.000 C 
BRANCH  26  27
ATOM     27  C   UNL     1       5.157   4.319  17.884  0.00  0.00    +0.000 C 
BRANCH  27  32
ATOM     28  C   UNL     1       7.735   8.452  17.656  0.00  0.00    +0.000 C 
ATOM     29  N   UNL     1       7.647   7.064  17.220  0.00  0.00    +0.000 NA
ATOM     30  C   UNL     1       6.435   6.819  16.416  0.00  0.00    +0.000 C 
ATOM     31  C   UNL     1       6.305   5.332  15.987  0.00  0.00    +0.000 C 
ATOM     32  N   UNL     1       6.401   4.348  17.094  0.00  0.00    +0.000 NA
ATOM     33  C   UNL     1       7.612   4.672  17.879  0.00  0.00    +0.000 C 
ATOM     34  C   UNL     1       7.684   6.137  18.363  0.00  0.00    +0.000 C 
ENDBRANCH  27  32
ENDBRANCH  26  27
ENDBRANCH  25  26
ENDBRANCH   1  25
TORSDOF 7
ENDMDL
MODEL 6
REMARK VINA RESULT:      -7.7      8.384      9.770
REMARK  Name = 
REMARK  8 active torsions:
REMARK  status: ('A' for Active; 'I' for Inactive)
REMARK    1  A    between atoms: C_1  and  N_2
REMARK    2  A    between atoms: N_5  and  C_6
REMARK    3  A    between atoms: C_6  and  C_7
REMARK    4  A    between atoms: C_7  and  C_8
REMARK    5  A    between atoms: C_8  and  N_9
REMARK    6  A    between atoms: C_13  and  C_14
REMARK    7  A    between atoms: C_17  and  N_18
REMARK    8  A    between atoms: C_19  and  C_21
REMARK                            x       y       z     vdW  Elec       q    Type
REMARK                         _______ _______ _______ _____ _____    ______ ____
ROOT
ATOM      1  N   UNL     1       2.919   6.775  18.884  0.00  0.00    +0.000 N 
ATOM      2  C   UNL     1       2.362   7.929  18.474  0.00  0.00    +0.000 A 
ATOM      3  N   UNL     1       2.522   8.604  17.356  0.00  0.00    +0.000 NA
ATOM      4  N   UNL     1       1.799   9.762  17.494  0.00  0.00    +0.000 NA
ATOM      5  C   UNL     1       1.243   9.723  18.690  0.00  0.00    +0.000 A 
ATOM      6  O   UNL     1       1.543   8.563  19.367  0.00  0.00    +0.000 OA
ATOM      7  H   UNL     1       2.820   6.588  19.875  0.00  0.00    +0.000 HD
ENDROOT
BRANCH   5   8
ATOM      8  C   UNL     1       0.493  10.749  19.394  0.00  0.00    +0.000 A 
ATOM      9  C   UNL     1       1.104  11.453  20.435  0.00  0.00    +0.000 A 
ATOM     10  C   UNL     1       0.374  12.366  21.201  0.00  0.00    +0.000 A 
ATOM     11  C   UNL     1      -0.977  12.609  20.955  0.00  0.00    +0.000 A 
ATOM     12  C   UNL     1      -1.598  11.912  19.912  0.00  0.00    +0.000 A 
ATOM     13  C   UNL     1      -0.862  11.009  19.127  0.00  0.00    +0.000 A 
BRANCH  11  14
ATOM     14  N   UNL     1      -1.725  13.524  21.743  0.00  0.00    +0.000 N 
ATOM     15  C   UNL     1      -2.476  13.165  22.858  0.00  0.00    +0.000 C 
ATOM     16  O   UNL     1      -2.541  12.028  23.326  0.00  0.00    +0.000 OA
ATOM     17  H   UNL     1      -1.661  14.509  21.504  0.00  0.00    +0.000 HD
BRANCH  15  18
ATOM     18  C   UNL     1      -3.256  14.209  23.570  0.00  0.00    +0.000 A 
ATOM     19  C   UNL     1      -4.578  14.436  23.136  0.00  0.00    +0.000 A 
ATOM     20  C   UNL     1      -5.334  15.482  23.666  0.00  0.00    +0.000 A 
ATOM     21  C   UNL     1      -4.791  16.300  24.644  0.00  0.00    +0.000 A 
ATOM     22  C   UNL     1      -3.495  16.060  25.114  0.00  0.00    +0.000 A 
ATOM     23  C   UNL     1      -2.740  15.013  24.581  0.00  0.00    +0.000 A 
ATOM     24  F   UNL     1      -1.498  14.819  25.054  0.00  0.00    +0.000 F 
ENDBRANCH  15  18
ENDBRANCH  11  14
ENDBRANCH   5   8
BRANCH   1  25
ATOM     25  C   UNL     1       4.230   6.451  18.330  0.00  0.00    +0.000 C 
BRANCH  25  26
ATOM     26  C   UNL     1       4.066   5.408  17.228  0.00  0.00    +0.000 C 
BRANCH  26  27
ATOM     27  C   UNL     1       4.297   3.981  17.753  0.00  0.00    +0.000 C 
BRANCH  27  32
ATOM     28  C   UNL     1       1.358   2.678  21.419  0.00  0.00    +0.000 C 
ATOM     29  N   UNL     1       1.646   2.531  19.998  0.00  0.00    +0.000 NA
ATOM     30  C   UNL     1       2.972   1.927  19.767  0.00  0.00    +0.000 C 
ATOM     31  C   UNL     1       3.310   1.811  18.256  0.00  0.00    +0.000 C 
ATOM     32  N   UNL     1       3.171   3.070  17.482  0.00  0.00    +0.000 NA
ATOM     33  C   UNL     1       1.841   3.640  17.787  0.00  0.00    +0.000 C 
ATOM     34  C   UNL     1       1.555   3.821  19.293  0.00  0.00    +0.000 C 
ENDBRANCH  27  32
ENDBRANCH  26  27
ENDBRANCH  25  26
ENDBRANCH   1  25
TORSDOF 7
ENDMDL
MODEL 7
REMARK VINA RESULT:      -7.7      8.396      9.830
REMARK  Name = 
REMARK  8 active torsions:
REMARK  status: ('A' for Active; 'I' for Inactive)
REMARK    1  A    between atoms: C_1  and  N_2
REMARK    2  A    between atoms: N_5  and  C_6
REMARK    3  A    between atoms: C_6  and  C_7
REMARK    4  A    between atoms: C_7  and  C_8
REMARK    5  A    between atoms: C_8  and  N_9
REMARK    6  A    between atoms: C_13  and  C_14
REMARK    7  A    between atoms: C_17  and  N_18
REMARK    8  A    between atoms: C_19  and  C_21
REMARK                            x       y       z     vdW  Elec       q    Type
REMARK                         _______ _______ _______ _____ _____    ______ ____
ROOT
ATOM      1  N   UNL     1       3.180   6.878  18.478  0.00  0.00    +0.000 N 
ATOM      2  C   UNL     1       2.412   7.955  18.232  0.00  0.00    +0.000 A 
ATOM      3  N   UNL     1       2.265   8.666  17.135  0.00  0.00    +0.000 NA
ATOM      4  N   UNL     1       1.441   9.715  17.458  0.00  0.00    +0.000 NA
ATOM      5  C   UNL     1       1.136   9.579  18.735  0.00  0.00    +0.000 A 
ATOM      6  O   UNL     1       1.706   8.457  19.290  0.00  0.00    +0.000 OA
ATOM      7  H   UNL     1       3.298   6.662  19.461  0.00  0.00    +0.000 HD
ENDROOT
BRANCH   5   8
ATOM      8  C   UNL     1       0.412  10.483  19.612  0.00  0.00    +0.000 A 
ATOM      9  C   UNL     1      -0.907  10.827  19.305  0.00  0.00    +0.000 A 
ATOM     10  C   UNL     1      -1.589  11.779  20.068  0.00  0.00    +0.000 A 
ATOM     11  C   UNL     1      -0.987  12.412  21.155  0.00  0.00    +0.000 A 
ATOM     12  C   UNL     1       0.333  12.071  21.473  0.00  0.00    +0.000 A 
ATOM     13  C   UNL     1       1.014  11.100  20.721  0.00  0.00    +0.000 A 
BRANCH  11  14
ATOM     14  N   UNL     1      -1.673  13.391  21.921  0.00  0.00    +0.000 N 
ATOM     15  C   UNL     1      -2.488  13.102  23.011  0.00  0.00    +0.000 C 
ATOM     16  O   UNL     1      -2.671  11.975  23.474  0.00  0.00    +0.000 OA
ATOM     17  H   UNL     1      -1.513  14.366  21.687  0.00  0.00    +0.000 HD
BRANCH  15  18
ATOM     18  C   UNL     1      -3.192  14.212  23.702  0.00  0.00    +0.000 A 
ATOM     19  C   UNL     1      -4.505  14.504  23.283  0.00  0.00    +0.000 A 
ATOM     20  C   UNL     1      -5.188  15.609  23.791  0.00  0.00    +0.000 A 
ATOM     21  C   UNL     1      -4.580  16.424  24.733  0.00  0.00    +0.000 A 
ATOM     22  C   UNL     1      -3.292  16.122  25.189  0.00  0.00    +0.000 A 
ATOM     23  C   UNL     1      -2.610  15.016  24.678  0.00  0.00    +0.000 A 
ATOM     24  F   UNL     1      -1.374  14.763  25.135  0.00  0.00    +0.000 F 
ENDBRANCH  15  18
ENDBRANCH  11  14
ENDBRANCH   5   8
BRANCH   1  25
ATOM     25  C   UNL     1       4.389   6.743  17.673  0.00  0.00    +0.000 C 
BRANCH  25  26
ATOM     26  C   UNL     1       5.385   5.851  18.410  0.00  0.00    +0.000 C 
BRANCH  26  27
ATOM     27  C   UNL     1       4.679   4.851  19.339  0.00  0.00    +0.000 C 
BRANCH  27  32
ATOM     28  C   UNL     1       0.627   2.202  18.760  0.00  0.00    +0.000 C 
ATOM     29  N   UNL     1       2.082   2.207  18.679  0.00  0.00    +0.000 NA
ATOM     30  C   UNL     1       2.703   2.463  19.992  0.00  0.00    +0.000 C 
ATOM     31  C   UNL     1       4.253   2.521  19.908  0.00  0.00    +0.000 C 
ATOM     32  N   UNL     1       4.793   3.453  18.889  0.00  0.00    +0.000 NA
ATOM     33  C   UNL     1       4.105   3.169  17.610  0.00  0.00    +0.000 C 
ATOM     34  C   UNL     1       2.564   3.194  17.698  0.00  0.00    +0.000 C 
ENDBRANCH  27  32
ENDBRANCH  26  27
ENDBRANCH  25  26
ENDBRANCH   1  25
TORSDOF 7
ENDMDL
MODEL 8
REMARK VINA RESULT:      -7.7      8.223      9.493
REMARK  Name = 
REMARK  8 active torsions:
REMARK  status: ('A' for Active; 'I' for Inactive)
REMARK    1  A    between atoms: C_1  and  N_2
REMARK    2  A    between atoms: N_5  and  C_6
REMARK    3  A    between atoms: C_6  and  C_7
REMARK    4  A    between atoms: C_7  and  C_8
REMARK    5  A    between atoms: C_8  and  N_9
REMARK    6  A    between atoms: C_13  and  C_14
REMARK    7  A    between atoms: C_17  and  N_18
REMARK    8  A    between atoms: C_19  and  C_21
REMARK                            x       y       z     vdW  Elec       q    Type
REMARK                         _______ _______ _______ _____ _____    ______ ____
ROOT
ATOM      1  N   UNL     1       3.221   6.540  18.810  0.00  0.00    +0.000 N 
ATOM      2  C   UNL     1       2.546   7.652  18.469  0.00  0.00    +0.000 A 
ATOM      3  N   UNL     1       2.583   8.370  17.368  0.00  0.00    +0.000 NA
ATOM      4  N   UNL     1       1.773   9.457  17.584  0.00  0.00    +0.000 NA
ATOM      5  C   UNL     1       1.291   9.335  18.806  0.00  0.00    +0.000 A 
ATOM      6  O   UNL     1       1.727   8.187  19.426  0.00  0.00    +0.000 OA
ATOM      7  H   UNL     1       3.195   6.316  19.798  0.00  0.00    +0.000 HD
ENDROOT
BRANCH   5   8
ATOM      8  C   UNL     1       0.498  10.272  19.584  0.00  0.00    +0.000 A 
ATOM      9  C   UNL     1       0.617  10.282  20.975  0.00  0.00    +0.000 A 
ATOM     10  C   UNL     1      -0.212  11.093  21.754  0.00  0.00    +0.000 A 
ATOM     11  C   UNL     1      -1.177  11.918  21.178  0.00  0.00    +0.000 A 
ATOM     12  C   UNL     1      -1.302  11.918  19.783  0.00  0.00    +0.000 A 
ATOM     13  C   UNL     1      -0.456  11.120  18.996  0.00  0.00    +0.000 A 
BRANCH  11  14
ATOM     14  N   UNL     1      -2.032  12.731  21.968  0.00  0.00    +0.000 N 
ATOM     15  C   UNL     1      -1.743  14.040  22.339  0.00  0.00    +0.000 C 
ATOM     16  O   UNL     1      -0.744  14.667  21.987  0.00  0.00    +0.000 OA
ATOM     17  H   UNL     1      -2.934  12.345  22.232  0.00  0.00    +0.000 HD
BRANCH  15  18
ATOM     18  C   UNL     1      -2.698  14.771  23.212  0.00  0.00    +0.000 A 
ATOM     19  C   UNL     1      -3.933  15.144  22.647  0.00  0.00    +0.000 A 
ATOM     20  C   UNL     1      -4.832  15.941  23.357  0.00  0.00    +0.000 A 
ATOM     21  C   UNL     1      -4.519  16.360  24.640  0.00  0.00    +0.000 A 
ATOM     22  C   UNL     1      -3.314  15.962  25.229  0.00  0.00    +0.000 A 
ATOM     23  C   UNL     1      -2.415  15.165  24.516  0.00  0.00    +0.000 A 
ATOM     24  F   UNL     1      -1.267  14.810  25.113  0.00  0.00    +0.000 F 
ENDBRANCH  15  18
ENDBRANCH  11  14
ENDBRANCH   5   8
BRANCH   1  25
ATOM     25  C   UNL     1       4.521   6.347  18.175  0.00  0.00    +0.000 C 
BRANCH  25  26
ATOM     26  C   UNL     1       4.740   4.858  17.921  0.00  0.00    +0.000 C 
BRANCH  26  27
ATOM     27  C   UNL     1       3.458   4.166  17.433  0.00  0.00    +0.000 C 
BRANCH  27  32
ATOM     28  C   UNL     1       1.290   2.885  21.608  0.00  0.00    +0.000 C 
ATOM     29  N   UNL     1       1.993   2.410  20.423  0.00  0.00    +0.000 NA
ATOM     30  C   UNL     1       3.367   2.940  20.352  0.00  0.00    +0.000 C 
ATOM     31  C   UNL     1       4.109   2.481  19.067  0.00  0.00    +0.000 C 
ATOM     32  N   UNL     1       3.387   2.740  17.798  0.00  0.00    +0.000 NA
ATOM     33  C   UNL     1       2.011   2.220  17.949  0.00  0.00    +0.000 C 
ATOM     34  C   UNL     1       1.262   2.750  19.191  0.00  0.00    +0.000 C 
ENDBRANCH  27  32
ENDBRANCH  26  27
ENDBRANCH  25  26
ENDBRANCH   1  25
TORSDOF 7
ENDMDL
MODEL 9
REMARK VINA RESULT:      -7.7      9.233     12.678
REMARK  Name = 
REMARK  8 active torsions:
REMARK  status: ('A' for Active; 'I' for Inactive)
REMARK    1  A    between atoms: C_1  and  N_2
REMARK    2  A    between atoms: N_5  and  C_6
REMARK    3  A    between atoms: C_6  and  C_7
REMARK    4  A    between atoms: C_7  and  C_8
REMARK    5  A    between atoms: C_8  and  N_9
REMARK    6  A    between atoms: C_13  and  C_14
REMARK    7  A    between atoms: C_17  and  N_18
REMARK    8  A    between atoms: C_19  and  C_21
REMARK                            x       y       z     vdW  Elec       q    Type
REMARK                         _______ _______ _______ _____ _____    ______ ____
ROOT
ATOM      1  N   UNL     1      -3.405  12.861  23.715  0.00  0.00    +0.000 N 
ATOM      2  C   UNL     1      -2.141  12.635  23.315  0.00  0.00    +0.000 A 
ATOM      3  N   UNL     1      -1.095  13.431  23.302  0.00  0.00    +0.000 NA
ATOM      4  N   UNL     1      -0.080  12.730  22.699  0.00  0.00    +0.000 NA
ATOM      5  C   UNL     1      -0.572  11.548  22.380  0.00  0.00    +0.000 A 
ATOM      6  O   UNL     1      -1.885  11.408  22.766  0.00  0.00    +0.000 OA
ATOM      7  H   UNL     1      -4.077  12.170  23.403  0.00  0.00    +0.000 HD
ENDROOT
BRANCH   5   8
ATOM      8  C   UNL     1       0.029  10.477  21.603  0.00  0.00    +0.000 A 
ATOM      9  C   UNL     1       0.724   9.460  22.261  0.00  0.00    +0.000 A 
ATOM     10  C   UNL     1       1.405   8.479  21.534  0.00  0.00    +0.000 A 
ATOM     11  C   UNL     1       1.413   8.477  20.140  0.00  0.00    +0.000 A 
ATOM     12  C   UNL     1       0.715   9.490  19.471  0.00  0.00    +0.000 A 
ATOM     13  C   UNL     1       0.013  10.465  20.198  0.00  0.00    +0.000 A 
BRANCH  11  14
ATOM     14  N   UNL     1       2.118   7.491  19.400  0.00  0.00    +0.000 N 
ATOM     15  C   UNL     1       2.054   6.125  19.657  0.00  0.00    +0.000 C 
ATOM     16  O   UNL     1       1.343   5.604  20.516  0.00  0.00    +0.000 OA
ATOM     17  H   UNL     1       2.660   7.805  18.600  0.00  0.00    +0.000 HD
BRANCH  15  18
ATOM     18  C   UNL     1       2.879   5.197  18.842  0.00  0.00    +0.000 A 
ATOM     19  C   UNL     1       2.205   4.383  17.910  0.00  0.00    +0.000 A 
ATOM     20  C   UNL     1       2.888   3.397  17.198  0.00  0.00    +0.000 A 
ATOM     21  C   UNL     1       4.249   3.224  17.390  0.00  0.00    +0.000 A 
ATOM     22  C   UNL     1       4.939   4.053  18.281  0.00  0.00    +0.000 A 
ATOM     23  C   UNL     1       4.253   5.039  18.994  0.00  0.00    +0.000 A 
ATOM     24  F   UNL     1       4.948   5.810  19.844  0.00  0.00    +0.000 F 
ENDBRANCH  15  18
ENDBRANCH  11  14
ENDBRANCH   5   8
BRANCH   1  25
ATOM     25  C   UNL     1      -3.874  14.242  23.644  0.00  0.00    +0.000 C 
BRANCH  25  26
ATOM     26  C   UNL     1      -4.179  14.594  22.190  0.00  0.00    +0.000 C 
BRANCH  26  27
ATOM     27  C   UNL     1      -5.661  14.375  21.848  0.00  0.00    +0.000 C 
BRANCH  27  32
ATOM     28  C   UNL     1      -7.107  12.757  17.482  0.00  0.00    +0.000 C 
ATOM     29  N   UNL     1      -6.855  12.403  18.872  0.00  0.00    +0.000 NA
ATOM     30  C   UNL     1      -7.735  13.143  19.795  0.00  0.00    +0.000 C 
ATOM     31  C   UNL     1      -7.440  12.810  21.283  0.00  0.00    +0.000 C 
ATOM     32  N   UNL     1      -6.021  12.955  21.691  0.00  0.00    +0.000 NA
ATOM     33  C   UNL     1      -5.194  12.224  20.707  0.00  0.00    +0.000 C 
ATOM     34  C   UNL     1      -5.446  12.626  19.238  0.00  0.00    +0.000 C 
ENDBRANCH  27  32
ENDBRANCH  26  27
ENDBRANCH  25  26
ENDBRANCH   1  25
TORSDOF 7
ENDMDL
