MODEL 1
REMARK VINA RESULT:      -8.1      0.000      0.000
REMARK  Name = 
REMARK  9 active torsions:
REMARK  status: ('A' for Active; 'I' for Inactive)
REMARK    1  A    between atoms: C_1  and  C_2
REMARK    2  A    between atoms: C_6  and  O_7
REMARK    3  A    between atoms: O_7  and  C_8
REMARK    4  A    between atoms: C_8  and  C_9
REMARK    5  A    between atoms: N_11  and  C_12
REMARK    6  A    between atoms: N_11  and  C_20
REMARK    7  A    between atoms: C_12  and  C_13
REMARK    8  A    between atoms: C_20  and  C_21
REMARK    9  A    between atoms: C_26  and  C_27
REMARK                            x       y       z     vdW  Elec       q    Type
REMARK                         _______ _______ _______ _____ _____    ______ ____
ROOT
ATOM      1  C   UNL     1       2.438   8.115  18.227  0.00  0.00    +0.000 C 
ATOM      2  O   UNL     1       2.218   8.810  17.227  0.00  0.00    +0.000 OA
ATOM      3  N   UNL     1       3.369   7.087  18.194  0.00  0.00    +0.000 N 
ENDROOT
BRANCH   1   4
ATOM      4  C   UNL     1       1.657   8.406  19.525  0.00  0.00    +0.000 C 
BRANCH   4   5
ATOM      5  O   UNL     1       1.210   9.741  19.729  0.00  0.00    +0.000 OA
BRANCH   5  11
ATOM      6  C   UNL     1      -2.163  12.431  22.151  0.00  0.00    +0.000 C 
ATOM      7  C   UNL     1      -1.173  11.299  22.071  0.00  0.00    +0.000 A 
ATOM      8  C   UNL     1      -0.985  10.495  23.205  0.00  0.00    +0.000 A 
ATOM      9  C   UNL     1      -0.061   9.459  23.190  0.00  0.00    +0.000 A 
ATOM     10  C   UNL     1       0.689   9.206  22.042  0.00  0.00    +0.000 A 
ATOM     11  C   UNL     1       0.524   9.988  20.895  0.00  0.00    +0.000 A 
ATOM     12  C   UNL     1      -0.430  11.035  20.895  0.00  0.00    +0.000 A 
ATOM     13  C   UNL     1      -0.631  11.900  19.677  0.00  0.00    +0.000 C 
ENDBRANCH   5  11
ENDBRANCH   4   5
ENDBRANCH   1   4
BRANCH   3  14
ATOM     14  C   UNL     1       3.628   6.160  19.296  0.00  0.00    +0.000 C 
BRANCH  14  15
ATOM     15  C   UNL     1       2.709   4.956  19.382  0.00  0.00    +0.000 A 
ATOM     16  C   UNL     1       2.063   4.524  18.208  0.00  0.00    +0.000 A 
ATOM     17  C   UNL     1       1.171   3.448  18.226  0.00  0.00    +0.000 A 
ATOM     18  C   UNL     1       0.910   2.781  19.422  0.00  0.00    +0.000 A 
ATOM     19  C   UNL     1       1.546   3.193  20.589  0.00  0.00    +0.000 A 
ATOM     20 CL   UNL     1       1.224   2.371  22.066  0.00  0.00    +0.000 Cl
ATOM     21  C   UNL     1       2.439   4.268  20.574  0.00  0.00    +0.000 A 
ENDBRANCH  14  15
ENDBRANCH   3  14
BRANCH   3  22
ATOM     22  C   UNL     1       4.178   6.928  16.985  0.00  0.00    +0.000 C 
BRANCH  22  23
ATOM     23  C   UNL     1       5.400   6.109  17.222  0.00  0.00    +0.000 A 
ATOM     24  C   UNL     1       5.737   4.802  16.924  0.00  0.00    +0.000 A 
ATOM     25  C   UNL     1       7.106   4.651  17.250  0.00  0.00    +0.000 A 
ATOM     26  C   UNL     1       7.514   5.865  17.750  0.00  0.00    +0.000 A 
ATOM     27  O   UNL     1       6.487   6.755  17.749  0.00  0.00    +0.000 OA
ENDBRANCH  22  23
ENDBRANCH   3  22
TORSDOF 7
ENDMDL
MODEL 2
REMARK VINA RESULT:      -7.9      2.481      3.786
REMARK  Name = 
REMARK  9 active torsions:
REMARK  status: ('A' for Active; 'I' for Inactive)
REMARK    1  A    between atoms: C_1  and  C_2
REMARK    2  A    between atoms: C_6  and  O_7
REMARK    3  A    between atoms: O_7  and  C_8
REMARK    4  A    between atoms: C_8  and  C_9
REMARK    5  A    between atoms: N_11  and  C_12
REMARK    6  A    between atoms: N_11  and  C_20
REMARK    7  A    between atoms: C_12  and  C_13
REMARK    8  A    between atoms: C_20  and  C_21
REMARK    9  A    between atoms: C_26  and  C_27
REMARK                            x       y       z     vdW  Elec       q    Type
REMARK                         _______ _______ _______ _____ _____    ______ ____
ROOT
ATOM      1  C   UNL     1       1.911   6.006  19.901  0.00  0.00    +0.000 C 
ATOM      2  O   UNL     1       1.334   5.465  20.853  0.00  0.00    +0.000 OA
ATOM      3  N   UNL     1       2.152   5.315  18.722  0.00  0.00    +0.000 N 
ENDROOT
BRANCH   1   4
ATOM      4  C   UNL     1       2.365   7.474  20.039  0.00  0.00    +0.000 C 
BRANCH   4   5
ATOM      5  O   UNL     1       1.436   8.480  19.654  0.00  0.00    +0.000 OA
BRANCH   5  11
ATOM      6  C   UNL     1      -1.596  12.134  21.046  0.00  0.00    +0.000 C 
ATOM      7  C   UNL     1      -0.715  10.950  21.346  0.00  0.00    +0.000 A 
ATOM      8  C   UNL     1      -0.562  10.554  22.683  0.00  0.00    +0.000 A 
ATOM      9  C   UNL     1       0.264   9.488  23.013  0.00  0.00    +0.000 A 
ATOM     10  C   UNL     1       0.949   8.797  22.014  0.00  0.00    +0.000 A 
ATOM     11  C   UNL     1       0.816   9.166  20.672  0.00  0.00    +0.000 A 
ATOM     12  C   UNL     1      -0.040  10.240  20.324  0.00  0.00    +0.000 A 
ATOM     13  C   UNL     1      -0.203  10.666  18.888  0.00  0.00    +0.000 C 
ENDBRANCH   5  11
ENDBRANCH   4   5
ENDBRANCH   1   4
BRANCH   3  14
ATOM     14  C   UNL     1       2.903   5.842  17.584  0.00  0.00    +0.000 C 
BRANCH  14  15
ATOM     15  C   UNL     1       4.361   5.430  17.501  0.00  0.00    +0.000 A 
ATOM     16  C   UNL     1       4.776   4.662  16.396  0.00  0.00    +0.000 A 
ATOM     17  C   UNL     1       6.094   4.213  16.280  0.00  0.00    +0.000 A 
ATOM     18  C   UNL     1       7.025   4.528  17.268  0.00  0.00    +0.000 A 
ATOM     19  C   UNL     1       6.631   5.292  18.362  0.00  0.00    +0.000 A 
ATOM     20 CL   UNL     1       7.780   5.681  19.584  0.00  0.00    +0.000 Cl
ATOM     21  C   UNL     1       5.314   5.743  18.482  0.00  0.00    +0.000 A 
ENDBRANCH  14  15
ENDBRANCH   3  14
BRANCH   3  22
ATOM     22  C   UNL     1       1.592   3.969  18.586  0.00  0.00    +0.000 C 
BRANCH  22  23
ATOM     23  C   UNL     1       2.618   2.905  18.772  0.00  0.00    +0.000 A 
ATOM     24  C   UNL     1       3.021   1.833  17.999  0.00  0.00    +0.000 A 
ATOM     25  C   UNL     1       4.160   1.281  18.632  0.00  0.00    +0.000 A 
ATOM     26  C   UNL     1       4.368   2.033  19.764  0.00  0.00    +0.000 A 
ATOM     27  O   UNL     1       3.434   3.015  19.867  0.00  0.00    +0.000 OA
ENDBRANCH  22  23
ENDBRANCH   3  22
TORSDOF 7
ENDMDL
MODEL 3
REMARK VINA RESULT:      -7.8      1.213      1.369
REMARK  Name = 
REMARK  9 active torsions:
REMARK  status: ('A' for Active; 'I' for Inactive)
REMARK    1  A    between atoms: C_1  and  C_2
REMARK    2  A    between atoms: C_6  and  O_7
REMARK    3  A    between atoms: O_7  and  C_8
REMARK    4  A    between atoms: C_8  and  C_9
REMARK    5  A    between atoms: N_11  and  C_12
REMARK    6  A    between atoms: N_11  and  C_20
REMARK    7  A    between atoms: C_12  and  C_13
REMARK    8  A    between atoms: C_20  and  C_21
REMARK    9  A    between atoms: C_26  and  C_27
REMARK                            x       y       z     vdW  Elec       q    Type
REMARK                         _______ _______ _______ _____ _____    ______ ____
ROOT
ATOM      1  C   UNL     1       2.377   7.987  18.413  0.00  0.00    +0.000 C 
ATOM      2  O   UNL     1       2.237   8.641  17.372  0.00  0.00    +0.000 OA
ATOM      3  N   UNL     1       3.243   6.904  18.468  0.00  0.00    +0.000 N 
ENDROOT
BRANCH   1   4
ATOM      4  C   UNL     1       1.570   8.392  19.664  0.00  0.00    +0.000 C 
BRANCH   4   5
ATOM      5  O   UNL     1       0.974   9.683  19.663  0.00  0.00    +0.000 OA
BRANCH   5  11
ATOM      6  C   UNL     1      -2.094  12.832  21.933  0.00  0.00    +0.000 C 
ATOM      7  C   UNL     1      -1.230  11.599  21.914  0.00  0.00    +0.000 A 
ATOM      8  C   UNL     1      -1.131  10.834  23.086  0.00  0.00    +0.000 A 
ATOM      9  C   UNL     1      -0.323   9.706  23.126  0.00  0.00    +0.000 A 
ATOM     10  C   UNL     1       0.397   9.319  21.996  0.00  0.00    +0.000 A 
ATOM     11  C   UNL     1       0.318  10.058  20.812  0.00  0.00    +0.000 A 
ATOM     12  C   UNL     1      -0.519  11.200  20.756  0.00  0.00    +0.000 A 
ATOM     13  C   UNL     1      -0.624  12.022  19.497  0.00  0.00    +0.000 C 
ENDBRANCH   5  11
ENDBRANCH   4   5
ENDBRANCH   1   4
BRANCH   3  14
ATOM     14  C   UNL     1       3.404   6.022  19.624  0.00  0.00    +0.000 C 
BRANCH  14  15
ATOM     15  C   UNL     1       2.800   4.637  19.492  0.00  0.00    +0.000 A 
ATOM     16  C   UNL     1       1.463   4.450  19.889  0.00  0.00    +0.000 A 
ATOM     17  C   UNL     1       0.859   3.191  19.834  0.00  0.00    +0.000 A 
ATOM     18  C   UNL     1       1.584   2.092  19.376  0.00  0.00    +0.000 A 
ATOM     19  C   UNL     1       2.905   2.262  18.974  0.00  0.00    +0.000 A 
ATOM     20 CL   UNL     1       3.802   0.906  18.409  0.00  0.00    +0.000 Cl
ATOM     21  C   UNL     1       3.512   3.521  19.027  0.00  0.00    +0.000 A 
ENDBRANCH  14  15
ENDBRANCH   3  14
BRANCH   3  22
ATOM     22  C   UNL     1       4.083   6.634  17.301  0.00  0.00    +0.000 C 
BRANCH  22  23
ATOM     23  C   UNL     1       5.535   6.615  17.637  0.00  0.00    +0.000 A 
ATOM     24  C   UNL     1       6.342   5.708  18.295  0.00  0.00    +0.000 A 
ATOM     25  C   UNL     1       7.673   6.170  18.152  0.00  0.00    +0.000 A 
ATOM     26  C   UNL     1       7.594   7.342  17.436  0.00  0.00    +0.000 A 
ATOM     27  O   UNL     1       6.302   7.629  17.126  0.00  0.00    +0.000 OA
ENDBRANCH  22  23
ENDBRANCH   3  22
TORSDOF 7
ENDMDL
MODEL 4
REMARK VINA RESULT:      -7.8      1.563      2.409
REMARK  Name = 
REMARK  9 active torsions:
REMARK  status: ('A' for Active; 'I' for Inactive)
REMARK    1  A    between atoms: C_1  and  C_2
REMARK    2  A    between atoms: C_6  and  O_7
REMARK    3  A    between atoms: O_7  and  C_8
REMARK    4  A    between atoms: C_8  and  C_9
REMARK    5  A    between atoms: N_11  and  C_12
REMARK    6  A    between atoms: N_11  and  C_20
REMARK    7  A    between atoms: C_12  and  C_13
REMARK    8  A    between atoms: C_20  and  C_21
REMARK    9  A    between atoms: C_26  and  C_27
REMARK                            x       y       z     vdW  Elec       q    Type
REMARK                         _______ _______ _______ _____ _____    ______ ____
ROOT
ATOM      1  C   UNL     1       3.622   7.097  17.683  0.00  0.00    +0.000 C 
ATOM      2  O   UNL     1       3.555   7.853  16.706  0.00  0.00    +0.000 OA
ATOM      3  N   UNL     1       4.773   6.370  17.949  0.00  0.00    +0.000 N 
ENDROOT
BRANCH   1   4
ATOM      4  C   UNL     1       2.399   6.969  18.614  0.00  0.00    +0.000 C 
BRANCH   4   5
ATOM      5  O   UNL     1       2.299   7.898  19.687  0.00  0.00    +0.000 OA
BRANCH   5  11
ATOM      6  C   UNL     1      -0.791  11.024  21.958  0.00  0.00    +0.000 C 
ATOM      7  C   UNL     1      -0.186  10.417  20.719  0.00  0.00    +0.000 A 
ATOM      8  C   UNL     1      -0.641  10.860  19.468  0.00  0.00    +0.000 A 
ATOM      9  C   UNL     1      -0.136  10.309  18.298  0.00  0.00    +0.000 A 
ATOM     10  C   UNL     1       0.834   9.309  18.357  0.00  0.00    +0.000 A 
ATOM     11  C   UNL     1       1.310   8.848  19.588  0.00  0.00    +0.000 A 
ATOM     12  C   UNL     1       0.815   9.418  20.786  0.00  0.00    +0.000 A 
ATOM     13  C   UNL     1       1.302   8.941  22.130  0.00  0.00    +0.000 C 
ENDBRANCH   5  11
ENDBRANCH   4   5
ENDBRANCH   1   4
BRANCH   3  14
ATOM     14  C   UNL     1       4.911   5.388  19.024  0.00  0.00    +0.000 C 
BRANCH  14  15
ATOM     15  C   UNL     1       3.877   4.278  19.048  0.00  0.00    +0.000 A 
ATOM     16  C   UNL     1       3.657   3.544  17.867  0.00  0.00    +0.000 A 
ATOM     17  C   UNL     1       2.689   2.538  17.808  0.00  0.00    +0.000 A 
ATOM     18  C   UNL     1       1.922   2.245  18.935  0.00  0.00    +0.000 A 
ATOM     19  C   UNL     1       2.132   2.958  20.111  0.00  0.00    +0.000 A 
ATOM     20 CL   UNL     1       1.185   2.597  21.502  0.00  0.00    +0.000 Cl
ATOM     21  C   UNL     1       3.100   3.964  20.173  0.00  0.00    +0.000 A 
ENDBRANCH  14  15
ENDBRANCH   3  14
BRANCH   3  22
ATOM     22  C   UNL     1       5.952   6.617  17.117  0.00  0.00    +0.000 C 
BRANCH  22  23
ATOM     23  C   UNL     1       6.080   5.633  16.005  0.00  0.00    +0.000 A 
ATOM     24  C   UNL     1       5.171   4.834  15.339  0.00  0.00    +0.000 A 
ATOM     25  C   UNL     1       5.868   4.239  14.260  0.00  0.00    +0.000 A 
ATOM     26  C   UNL     1       7.163   4.692  14.347  0.00  0.00    +0.000 A 
ATOM     27  O   UNL     1       7.308   5.530  15.407  0.00  0.00    +0.000 OA
ENDBRANCH  22  23
ENDBRANCH   3  22
TORSDOF 7
ENDMDL
MODEL 5
REMARK VINA RESULT:      -7.8      1.899      3.259
REMARK  Name = 
REMARK  9 active torsions:
REMARK  status: ('A' for Active; 'I' for Inactive)
REMARK    1  A    between atoms: C_1  and  C_2
REMARK    2  A    between atoms: C_6  and  O_7
REMARK    3  A    between atoms: O_7  and  C_8
REMARK    4  A    between atoms: C_8  and  C_9
REMARK    5  A    between atoms: N_11  and  C_12
REMARK    6  A    between atoms: N_11  and  C_20
REMARK    7  A    between atoms: C_12  and  C_13
REMARK    8  A    between atoms: C_20  and  C_21
REMARK    9  A    between atoms: C_26  and  C_27
REMARK                            x       y       z     vdW  Elec       q    Type
REMARK                         _______ _______ _______ _____ _____    ______ ____
ROOT
ATOM      1  C   UNL     1       4.875   6.257  17.821  0.00  0.00    +0.000 C 
ATOM      2  O   UNL     1       5.042   7.101  16.932  0.00  0.00    +0.000 OA
ATOM      3  N   UNL     1       5.777   5.219  18.002  0.00  0.00    +0.000 N 
ENDROOT
BRANCH   1   4
ATOM      4  C   UNL     1       3.639   6.371  18.737  0.00  0.00    +0.000 C 
BRANCH   4   5
ATOM      5  O   UNL     1       2.434   6.844  18.146  0.00  0.00    +0.000 OA
BRANCH   5  11
ATOM      6  C   UNL     1       0.397   9.466  21.814  0.00  0.00    +0.000 C 
ATOM      7  C   UNL     1       0.988   9.347  20.434  0.00  0.00    +0.000 A 
ATOM      8  C   UNL     1       1.062  10.499  19.637  0.00  0.00    +0.000 A 
ATOM      9  C   UNL     1       1.571  10.434  18.347  0.00  0.00    +0.000 A 
ATOM     10  C   UNL     1       2.017   9.218  17.831  0.00  0.00    +0.000 A 
ATOM     11  C   UNL     1       1.960   8.052  18.601  0.00  0.00    +0.000 A 
ATOM     12  C   UNL     1       1.460   8.113  19.925  0.00  0.00    +0.000 A 
ATOM     13  C   UNL     1       1.380   6.874  20.780  0.00  0.00    +0.000 C 
ENDBRANCH   5  11
ENDBRANCH   4   5
ENDBRANCH   1   4
BRANCH   3  14
ATOM     14  C   UNL     1       5.614   4.129  18.963  0.00  0.00    +0.000 C 
BRANCH  14  15
ATOM     15  C   UNL     1       4.261   3.443  18.967  0.00  0.00    +0.000 A 
ATOM     16  C   UNL     1       3.806   2.857  17.770  0.00  0.00    +0.000 A 
ATOM     17  C   UNL     1       2.551   2.247  17.694  0.00  0.00    +0.000 A 
ATOM     18  C   UNL     1       1.727   2.209  18.818  0.00  0.00    +0.000 A 
ATOM     19  C   UNL     1       2.167   2.777  20.009  0.00  0.00    +0.000 A 
ATOM     20 CL   UNL     1       1.150   2.731  21.397  0.00  0.00    +0.000 Cl
ATOM     21  C   UNL     1       3.421   3.388  20.089  0.00  0.00    +0.000 A 
ENDBRANCH  14  15
ENDBRANCH   3  14
BRANCH   3  22
ATOM     22  C   UNL     1       7.000   5.221  17.197  0.00  0.00    +0.000 C 
BRANCH  22  23
ATOM     23  C   UNL     1       6.773   4.713  15.815  0.00  0.00    +0.000 A 
ATOM     24  C   UNL     1       5.924   3.762  15.284  0.00  0.00    +0.000 A 
ATOM     25  C   UNL     1       6.049   3.846  13.876  0.00  0.00    +0.000 A 
ATOM     26  C   UNL     1       6.984   4.826  13.635  0.00  0.00    +0.000 A 
ATOM     27  O   UNL     1       7.439   5.353  14.803  0.00  0.00    +0.000 OA
ENDBRANCH  22  23
ENDBRANCH   3  22
TORSDOF 7
ENDMDL
MODEL 6
REMARK VINA RESULT:      -7.7      2.698      4.231
REMARK  Name = 
REMARK  9 active torsions:
REMARK  status: ('A' for Active; 'I' for Inactive)
REMARK    1  A    between atoms: C_1  and  C_2
REMARK    2  A    between atoms: C_6  and  O_7
REMARK    3  A    between atoms: O_7  and  C_8
REMARK    4  A    between atoms: C_8  and  C_9
REMARK    5  A    between atoms: N_11  and  C_12
REMARK    6  A    between atoms: N_11  and  C_20
REMARK    7  A    between atoms: C_12  and  C_13
REMARK    8  A    between atoms: C_20  and  C_21
REMARK    9  A    between atoms: C_26  and  C_27
REMARK                            x       y       z     vdW  Elec       q    Type
REMARK                         _______ _______ _______ _____ _____    ______ ____
ROOT
ATOM      1  C   UNL     1       1.757   5.986  19.985  0.00  0.00    +0.000 C 
ATOM      2  O   UNL     1       1.110   5.318  20.800  0.00  0.00    +0.000 OA
ATOM      3  N   UNL     1       2.110   5.463  18.749  0.00  0.00    +0.000 N 
ENDROOT
BRANCH   1   4
ATOM      4  C   UNL     1       2.174   7.423  20.360  0.00  0.00    +0.000 C 
BRANCH   4   5
ATOM      5  O   UNL     1       1.402   8.085  21.355  0.00  0.00    +0.000 OA
BRANCH   5  11
ATOM      6  C   UNL     1      -1.555  11.873  22.533  0.00  0.00    +0.000 C 
ATOM      7  C   UNL     1      -0.750  11.073  21.543  0.00  0.00    +0.000 A 
ATOM      8  C   UNL     1      -0.738  11.486  20.203  0.00  0.00    +0.000 A 
ATOM      9  C   UNL     1      -0.035  10.763  19.248  0.00  0.00    +0.000 A 
ATOM     10  C   UNL     1       0.670   9.618  19.616  0.00  0.00    +0.000 A 
ATOM     11  C   UNL     1       0.680   9.181  20.944  0.00  0.00    +0.000 A 
ATOM     12  C   UNL     1      -0.018   9.923  21.928  0.00  0.00    +0.000 A 
ATOM     13  C   UNL     1      -0.032   9.478  23.368  0.00  0.00    +0.000 C 
ENDBRANCH   5  11
ENDBRANCH   4   5
ENDBRANCH   1   4
BRANCH   3  14
ATOM     14  C   UNL     1       2.948   6.145  17.763  0.00  0.00    +0.000 C 
BRANCH  14  15
ATOM     15  C   UNL     1       4.331   5.560  17.547  0.00  0.00    +0.000 A 
ATOM     16  C   UNL     1       5.236   5.569  18.625  0.00  0.00    +0.000 A 
ATOM     17  C   UNL     1       6.539   5.084  18.481  0.00  0.00    +0.000 A 
ATOM     18  C   UNL     1       6.961   4.578  17.253  0.00  0.00    +0.000 A 
ATOM     19  C   UNL     1       6.075   4.556  16.180  0.00  0.00    +0.000 A 
ATOM     20 CL   UNL     1       6.596   3.932  14.663  0.00  0.00    +0.000 Cl
ATOM     21  C   UNL     1       4.771   5.039  16.321  0.00  0.00    +0.000 A 
ENDBRANCH  14  15
ENDBRANCH   3  14
BRANCH   3  22
ATOM     22  C   UNL     1       1.586   4.147  18.383  0.00  0.00    +0.000 C 
BRANCH  22  23
ATOM     23  C   UNL     1       2.568   3.054  18.633  0.00  0.00    +0.000 A 
ATOM     24  C   UNL     1       3.053   2.021  17.855  0.00  0.00    +0.000 A 
ATOM     25  C   UNL     1       4.097   1.412  18.593  0.00  0.00    +0.000 A 
ATOM     26  C   UNL     1       4.169   2.094  19.784  0.00  0.00    +0.000 A 
ATOM     27  O   UNL     1       3.240   3.087  19.827  0.00  0.00    +0.000 OA
ENDBRANCH  22  23
ENDBRANCH   3  22
TORSDOF 7
ENDMDL
MODEL 7
REMARK VINA RESULT:      -7.7      2.852      4.554
REMARK  Name = 
REMARK  9 active torsions:
REMARK  status: ('A' for Active; 'I' for Inactive)
REMARK    1  A    between atoms: C_1  and  C_2
REMARK    2  A    between atoms: C_6  and  O_7
REMARK    3  A    between atoms: O_7  and  C_8
REMARK    4  A    between atoms: C_8  and  C_9
REMARK    5  A    between atoms: N_11  and  C_12
REMARK    6  A    between atoms: N_11  and  C_20
REMARK    7  A    between atoms: C_12  and  C_13
REMARK    8  A    between atoms: C_20  and  C_21
REMARK    9  A    between atoms: C_26  and  C_27
REMARK                            x       y       z     vdW  Elec       q    Type
REMARK                         _______ _______ _______ _____ _____    ______ ____
ROOT
ATOM      1  C   UNL     1       2.189   7.665  19.244  0.00  0.00    +0.000 C 
ATOM      2  O   UNL     1       1.981   8.022  20.410  0.00  0.00    +0.000 OA
ATOM      3  N   UNL     1       2.585   6.367  18.953  0.00  0.00    +0.000 N 
ENDROOT
BRANCH   1   4
ATOM      4  C   UNL     1       2.003   8.687  18.104  0.00  0.00    +0.000 C 
BRANCH   4   5
ATOM      5  O   UNL     1       0.682   9.160  17.866  0.00  0.00    +0.000 OA
BRANCH   5  11
ATOM      6  C   UNL     1      -2.915  12.220  19.341  0.00  0.00    +0.000 C 
ATOM      7  C   UNL     1      -1.469  11.806  19.267  0.00  0.00    +0.000 A 
ATOM      8  C   UNL     1      -0.509  12.620  19.886  0.00  0.00    +0.000 A 
ATOM      9  C   UNL     1       0.840  12.296  19.819  0.00  0.00    +0.000 A 
ATOM     10  C   UNL     1       1.253  11.153  19.135  0.00  0.00    +0.000 A 
ATOM     11  C   UNL     1       0.320  10.321  18.509  0.00  0.00    +0.000 A 
ATOM     12  C   UNL     1      -1.059  10.632  18.589  0.00  0.00    +0.000 A 
ATOM     13  C   UNL     1      -2.091   9.759  17.922  0.00  0.00    +0.000 C 
ENDBRANCH   5  11
ENDBRANCH   4   5
ENDBRANCH   1   4
BRANCH   3  14
ATOM     14  C   UNL     1       2.940   5.882  17.619  0.00  0.00    +0.000 C 
BRANCH  14  15
ATOM     15  C   UNL     1       4.424   5.783  17.320  0.00  0.00    +0.000 A 
ATOM     16  C   UNL     1       4.928   4.560  16.840  0.00  0.00    +0.000 A 
ATOM     17  C   UNL     1       6.292   4.388  16.585  0.00  0.00    +0.000 A 
ATOM     18  C   UNL     1       7.178   5.441  16.805  0.00  0.00    +0.000 A 
ATOM     19  C   UNL     1       6.693   6.658  17.274  0.00  0.00    +0.000 A 
ATOM     20 CL   UNL     1       7.787   7.959  17.546  0.00  0.00    +0.000 Cl
ATOM     21  C   UNL     1       5.330   6.834  17.529  0.00  0.00    +0.000 A 
ENDBRANCH  14  15
ENDBRANCH   3  14
BRANCH   3  22
ATOM     22  C   UNL     1       2.626   5.397  20.047  0.00  0.00    +0.000 C 
BRANCH  22  23
ATOM     23  C   UNL     1       2.134   4.052  19.634  0.00  0.00    +0.000 A 
ATOM     24  C   UNL     1       0.884   3.558  19.317  0.00  0.00    +0.000 A 
ATOM     25  C   UNL     1       1.077   2.241  18.836  0.00  0.00    +0.000 A 
ATOM     26  C   UNL     1       2.429   2.003  18.912  0.00  0.00    +0.000 A 
ATOM     27  O   UNL     1       3.081   3.090  19.404  0.00  0.00    +0.000 OA
ENDBRANCH  22  23
ENDBRANCH   3  22
TORSDOF 7
ENDMDL
MODEL 8
REMARK VINA RESULT:      -7.7      2.617      4.559
REMARK  Name = 
REMARK  9 active torsions:
REMARK  status: ('A' for Active; 'I' for Inactive)
REMARK    1  A    between atoms: C_1  and  C_2
REMARK    2  A    between atoms: C_6  and  O_7
REMARK    3  A    between atoms: O_7  and  C_8
REMARK    4  A    between atoms: C_8  and  C_9
REMARK    5  A    between atoms: N_11  and  C_12
REMARK    6  A    between atoms: N_11  and  C_20
REMARK    7  A    between atoms: C_12  and  C_13
REMARK    8  A    between atoms: C_20  and  C_21
REMARK    9  A    between atoms: C_26  and  C_27
REMARK                            x       y       z     vdW  Elec       q    Type
REMARK                         _______ _______ _______ _____ _____    ______ ____
ROOT
ATOM      1  C   UNL     1       2.172   7.581  19.314  0.00  0.00    +0.000 C 
ATOM      2  O   UNL     1       1.932   7.847  20.499  0.00  0.00    +0.000 OA
ATOM      3  N   UNL     1       2.673   6.340  18.946  0.00  0.00    +0.000 N 
ENDROOT
BRANCH   1   4
ATOM      4  C   UNL     1       1.908   8.655  18.239  0.00  0.00    +0.000 C 
BRANCH   4   5
ATOM      5  O   UNL     1       1.561   9.957  18.693  0.00  0.00    +0.000 OA
BRANCH   5  11
ATOM      6  C   UNL     1      -2.190  12.718  20.363  0.00  0.00    +0.000 C 
ATOM      7  C   UNL     1      -1.605  11.700  19.420  0.00  0.00    +0.000 A 
ATOM      8  C   UNL     1      -2.443  11.133  18.447  0.00  0.00    +0.000 A 
ATOM      9  C   UNL     1      -1.957  10.168  17.574  0.00  0.00    +0.000 A 
ATOM     10  C   UNL     1      -0.628   9.756  17.655  0.00  0.00    +0.000 A 
ATOM     11  C   UNL     1       0.232  10.303  18.612  0.00  0.00    +0.000 A 
ATOM     12  C   UNL     1      -0.248  11.302  19.494  0.00  0.00    +0.000 A 
ATOM     13  C   UNL     1       0.650  11.910  20.539  0.00  0.00    +0.000 C 
ENDBRANCH   5  11
ENDBRANCH   4   5
ENDBRANCH   1   4
BRANCH   3  14
ATOM     14  C   UNL     1       3.070   5.971  17.588  0.00  0.00    +0.000 C 
BRANCH  14  15
ATOM     15  C   UNL     1       4.546   5.687  17.380  0.00  0.00    +0.000 A 
ATOM     16  C   UNL     1       4.908   4.580  16.589  0.00  0.00    +0.000 A 
ATOM     17  C   UNL     1       6.249   4.238  16.393  0.00  0.00    +0.000 A 
ATOM     18  C   UNL     1       7.255   5.000  16.985  0.00  0.00    +0.000 A 
ATOM     19  C   UNL     1       6.912   6.100  17.765  0.00  0.00    +0.000 A 
ATOM     20 CL   UNL     1       8.153   7.041  18.498  0.00  0.00    +0.000 Cl
ATOM     21  C   UNL     1       5.572   6.446  17.963  0.00  0.00    +0.000 A 
ENDBRANCH  14  15
ENDBRANCH   3  14
BRANCH   3  22
ATOM     22  C   UNL     1       2.788   5.309  19.978  0.00  0.00    +0.000 C 
BRANCH  22  23
ATOM     23  C   UNL     1       2.308   3.979  19.509  0.00  0.00    +0.000 A 
ATOM     24  C   UNL     1       2.936   2.766  19.301  0.00  0.00    +0.000 A 
ATOM     25  C   UNL     1       1.918   1.825  19.013  0.00  0.00    +0.000 A 
ATOM     26  C   UNL     1       0.735   2.526  19.038  0.00  0.00    +0.000 A 
ATOM     27  O   UNL     1       0.958   3.836  19.327  0.00  0.00    +0.000 OA
ENDBRANCH  22  23
ENDBRANCH   3  22
TORSDOF 7
ENDMDL
MODEL 9
REMARK VINA RESULT:      -7.7      2.577      4.075
REMARK  Name = 
REMARK  9 active torsions:
REMARK  status: ('A' for Active; 'I' for Inactive)
REMARK    1  A    between atoms: C_1  and  C_2
REMARK    2  A    between atoms: C_6  and  O_7
REMARK    3  A    between atoms: O_7  and  C_8
REMARK    4  A    between atoms: C_8  and  C_9
REMARK    5  A    between atoms: N_11  and  C_12
REMARK    6  A    between atoms: N_11  and  C_20
REMARK    7  A    between atoms: C_12  and  C_13
REMARK    8  A    between atoms: C_20  and  C_21
REMARK    9  A    between atoms: C_26  and  C_27
REMARK                            x       y       z     vdW  Elec       q    Type
REMARK                         _______ _______ _______ _____ _____    ______ ____
ROOT
ATOM      1  C   UNL     1       1.742   5.727  19.976  0.00  0.00    +0.000 C 
ATOM      2  O   UNL     1       1.168   5.065  20.849  0.00  0.00    +0.000 OA
ATOM      3  N   UNL     1       2.111   5.153  18.768  0.00  0.00    +0.000 N 
ENDROOT
BRANCH   1   4
ATOM      4  C   UNL     1       2.049   7.215  20.246  0.00  0.00    +0.000 C 
BRANCH   4   5
ATOM      5  O   UNL     1       1.203   7.895  21.166  0.00  0.00    +0.000 OA
BRANCH   5  11
ATOM      6  C   UNL     1      -0.890  12.192  22.447  0.00  0.00    +0.000 C 
ATOM      7  C   UNL     1      -0.227  11.282  21.447  0.00  0.00    +0.000 A 
ATOM      8  C   UNL     1      -0.042  11.751  20.138  0.00  0.00    +0.000 A 
ATOM      9  C   UNL     1       0.536  10.938  19.172  0.00  0.00    +0.000 A 
ATOM     10  C   UNL     1       0.941   9.644  19.497  0.00  0.00    +0.000 A 
ATOM     11  C   UNL     1       0.773   9.147  20.793  0.00  0.00    +0.000 A 
ATOM     12  C   UNL     1       0.202   9.977  21.790  0.00  0.00    +0.000 A 
ATOM     13  C   UNL     1       0.002   9.472  23.196  0.00  0.00    +0.000 C 
ENDBRANCH   5  11
ENDBRANCH   4   5
ENDBRANCH   1   4
BRANCH   3  14
ATOM     14  C   UNL     1       2.870   5.832  17.718  0.00  0.00    +0.000 C 
BRANCH  14  15
ATOM     15  C   UNL     1       4.330   5.437  17.593  0.00  0.00    +0.000 A 
ATOM     16  C   UNL     1       4.736   4.737  16.441  0.00  0.00    +0.000 A 
ATOM     17  C   UNL     1       6.056   4.306  16.282  0.00  0.00    +0.000 A 
ATOM     18  C   UNL     1       6.998   4.571  17.274  0.00  0.00    +0.000 A 
ATOM     19  C   UNL     1       6.613   5.268  18.415  0.00  0.00    +0.000 A 
ATOM     20 CL   UNL     1       7.775   5.595  19.642  0.00  0.00    +0.000 Cl
ATOM     21  C   UNL     1       5.293   5.701  18.578  0.00  0.00    +0.000 A 
ENDBRANCH  14  15
ENDBRANCH   3  14
BRANCH   3  22
ATOM     22  C   UNL     1       1.688   3.777  18.501  0.00  0.00    +0.000 C 
BRANCH  22  23
ATOM     23  C   UNL     1       2.754   2.784  18.813  0.00  0.00    +0.000 A 
ATOM     24  C   UNL     1       3.284   1.714  18.117  0.00  0.00    +0.000 A 
ATOM     25  C   UNL     1       4.394   1.253  18.865  0.00  0.00    +0.000 A 
ATOM     26  C   UNL     1       4.459   2.053  19.982  0.00  0.00    +0.000 A 
ATOM     27  O   UNL     1       3.464   2.979  19.968  0.00  0.00    +0.000 OA
ENDBRANCH  22  23
ENDBRANCH   3  22
TORSDOF 7
ENDMDL
