MODEL 1
REMARK VINA RESULT:      -6.6      0.000      0.000
REMARK  Name = 
REMARK  12 active torsions:
REMARK  status: ('A' for Active; 'I' for Inactive)
REMARK    1  A    between atoms: C_2  and  C_3
REMARK    2  A    between atoms: C_2  and  C_5
REMARK    3  A    between atoms: C_3  and  C_4
REMARK    4  A    between atoms: C_5  and  C_7
REMARK    5  A    between atoms: C_10  and  O_11
REMARK    6  A    between atoms: O_11  and  C_12
REMARK    7  A    between atoms: C_12  and  C_13
REMARK    8  A    between atoms: C_13  and  C_14
REMARK    9  A    between atoms: C_14  and  C_15
REMARK   10  A    between atoms: C_15  and  C_16
REMARK   11  A    between atoms: C_16  and  C_17
REMARK   12  A    between atoms: C_17  and  O_19
REMARK                            x       y       z     vdW  Elec       q    Type
REMARK                         _______ _______ _______ _____ _____    ______ ____
ROOT
ATOM      1  C   UNL     1       3.271   5.348  17.717  0.00  0.00    +0.000 A 
ATOM      2  C   UNL     1       3.353   6.725  17.948  0.00  0.00    +0.000 A 
ATOM      3  C   UNL     1       4.486   7.450  17.582  0.00  0.00    +0.000 A 
ATOM      4  C   UNL     1       5.615   6.814  17.056  0.00  0.00    +0.000 A 
ATOM      5  C   UNL     1       5.599   5.414  16.919  0.00  0.00    +0.000 A 
ATOM      6 CL   UNL     1       7.045   4.527  16.518  0.00  0.00    +0.000 Cl
ATOM      7  C   UNL     1       4.409   4.686  17.200  0.00  0.00    +0.000 A 
ATOM      8 CL   UNL     1       4.370   2.976  16.849  0.00  0.00    +0.000 Cl
ENDROOT
BRANCH   1   9
ATOM      9  C   UNL     1       2.045   4.606  18.146  0.00  0.00    +0.000 C 
ATOM     10  O   UNL     1       1.212   4.302  17.293  0.00  0.00    +0.000 OA
BRANCH   9  12
ATOM     11  C   UNL     1       1.291   5.082  20.386  0.00  0.00    +0.000 C 
ATOM     12  C   UNL     1       1.842   4.157  19.581  0.00  0.00    +0.000 C 
BRANCH  12  13
ATOM     13  C   UNL     1       2.279   2.793  20.065  0.00  0.00    +0.000 C 
ATOM     14  C   UNL     1       3.778   2.581  20.268  0.00  0.00    +0.000 C 
ENDBRANCH  12  13
ENDBRANCH   9  12
ENDBRANCH   1   9
BRANCH   4  15
ATOM     15  O   UNL     1       6.622   7.709  16.802  0.00  0.00    +0.000 OA
BRANCH  15  16
ATOM     16  C   UNL     1       7.693   7.795  17.736  0.00  0.00    +0.000 C 
BRANCH  16  17
ATOM     17  C   UNL     1       8.163   9.244  17.854  0.00  0.00    +0.000 C 
BRANCH  17  18
ATOM     18  C   UNL     1       8.837   9.454  19.210  0.00  0.00    +0.000 C 
BRANCH  18  19
ATOM     19  C   UNL     1       9.878  10.570  19.179  0.00  0.00    +0.000 C 
BRANCH  19  20
ATOM     20  C   UNL     1       9.711  11.431  17.927  0.00  0.00    +0.000 C 
BRANCH  20  21
ATOM     21  C   UNL     1      10.992  12.141  17.547  0.00  0.00    +0.000 C 
ATOM     22  O   UNL     1      11.083  13.010  16.696  0.00  0.00    +0.000 OA
BRANCH  21  23
ATOM     23  O   UNL     1      12.055  11.711  18.261  0.00  0.00    +0.000 OA
ATOM     24  H   UNL     1      12.158  12.155  19.129  0.00  0.00    +0.000 HD
ENDBRANCH  21  23
ENDBRANCH  20  21
ENDBRANCH  19  20
ENDBRANCH  18  19
ENDBRANCH  17  18
ENDBRANCH  16  17
ENDBRANCH  15  16
ENDBRANCH   4  15
TORSDOF 11
ENDMDL
MODEL 2
REMARK VINA RESULT:      -6.6      0.873      1.099
REMARK  Name = 
REMARK  12 active torsions:
REMARK  status: ('A' for Active; 'I' for Inactive)
REMARK    1  A    between atoms: C_2  and  C_3
REMARK    2  A    between atoms: C_2  and  C_5
REMARK    3  A    between atoms: C_3  and  C_4
REMARK    4  A    between atoms: C_5  and  C_7
REMARK    5  A    between atoms: C_10  and  O_11
REMARK    6  A    between atoms: O_11  and  C_12
REMARK    7  A    between atoms: C_12  and  C_13
REMARK    8  A    between atoms: C_13  and  C_14
REMARK    9  A    between atoms: C_14  and  C_15
REMARK   10  A    between atoms: C_15  and  C_16
REMARK   11  A    between atoms: C_16  and  C_17
REMARK   12  A    between atoms: C_17  and  O_19
REMARK                            x       y       z     vdW  Elec       q    Type
REMARK                         _______ _______ _______ _____ _____    ______ ____
ROOT
ATOM      1  C   UNL     1       3.137   5.163  17.622  0.00  0.00    +0.000 A 
ATOM      2  C   UNL     1       3.219   6.559  17.652  0.00  0.00    +0.000 A 
ATOM      3  C   UNL     1       4.402   7.217  17.319  0.00  0.00    +0.000 A 
ATOM      4  C   UNL     1       5.572   6.508  17.034  0.00  0.00    +0.000 A 
ATOM      5  C   UNL     1       5.544   5.103  17.107  0.00  0.00    +0.000 A 
ATOM      6 CL   UNL     1       7.010   4.162  17.019  0.00  0.00    +0.000 Cl
ATOM      7  C   UNL     1       4.316   4.428  17.350  0.00  0.00    +0.000 A 
ATOM      8 CL   UNL     1       4.284   2.684  17.258  0.00  0.00    +0.000 Cl
ENDROOT
BRANCH   1   9
ATOM      9  C   UNL     1       1.855   4.496  18.008  0.00  0.00    +0.000 C 
ATOM     10  O   UNL     1       0.953   4.428  17.175  0.00  0.00    +0.000 OA
BRANCH   9  12
ATOM     11  C   UNL     1       0.958   2.703  19.347  0.00  0.00    +0.000 C 
ATOM     12  C   UNL     1       1.669   3.844  19.365  0.00  0.00    +0.000 C 
BRANCH  12  13
ATOM     13  C   UNL     1       2.201   4.467  20.636  0.00  0.00    +0.000 C 
ATOM     14  C   UNL     1       2.335   3.551  21.850  0.00  0.00    +0.000 C 
ENDBRANCH  12  13
ENDBRANCH   9  12
ENDBRANCH   1   9
BRANCH   4  15
ATOM     15  O   UNL     1       6.620   7.351  16.770  0.00  0.00    +0.000 OA
BRANCH  15  16
ATOM     16  C   UNL     1       7.488   7.696  17.844  0.00  0.00    +0.000 C 
BRANCH  16  17
ATOM     17  C   UNL     1       7.929   9.153  17.706  0.00  0.00    +0.000 C 
BRANCH  17  18
ATOM     18  C   UNL     1       8.922   9.494  18.817  0.00  0.00    +0.000 C 
BRANCH  18  19
ATOM     19  C   UNL     1       9.291  10.975  18.840  0.00  0.00    +0.000 C 
BRANCH  19  20
ATOM     20  C   UNL     1      10.714  11.169  19.366  0.00  0.00    +0.000 C 
BRANCH  20  21
ATOM     21  C   UNL     1      11.430  12.307  18.671  0.00  0.00    +0.000 C 
ATOM     22  O   UNL     1      11.523  12.438  17.463  0.00  0.00    +0.000 OA
BRANCH  21  23
ATOM     23  O   UNL     1      11.967  13.190  19.540  0.00  0.00    +0.000 OA
ATOM     24  H   UNL     1      11.655  14.111  19.418  0.00  0.00    +0.000 HD
ENDBRANCH  21  23
ENDBRANCH  20  21
ENDBRANCH  19  20
ENDBRANCH  18  19
ENDBRANCH  17  18
ENDBRANCH  16  17
ENDBRANCH  15  16
ENDBRANCH   4  15
TORSDOF 11
ENDMDL
MODEL 3
REMARK VINA RESULT:      -6.6      4.194      7.603
REMARK  Name = 
REMARK  12 active torsions:
REMARK  status: ('A' for Active; 'I' for Inactive)
REMARK    1  A    between atoms: C_2  and  C_3
REMARK    2  A    between atoms: C_2  and  C_5
REMARK    3  A    between atoms: C_3  and  C_4
REMARK    4  A    between atoms: C_5  and  C_7
REMARK    5  A    between atoms: C_10  and  O_11
REMARK    6  A    between atoms: O_11  and  C_12
REMARK    7  A    between atoms: C_12  and  C_13
REMARK    8  A    between atoms: C_13  and  C_14
REMARK    9  A    between atoms: C_14  and  C_15
REMARK   10  A    between atoms: C_15  and  C_16
REMARK   11  A    between atoms: C_16  and  C_17
REMARK   12  A    between atoms: C_17  and  O_19
REMARK                            x       y       z     vdW  Elec       q    Type
REMARK                         _______ _______ _______ _____ _____    ______ ____
ROOT
ATOM      1  C   UNL     1       4.406   6.219  17.905  0.00  0.00    +0.000 A 
ATOM      2  C   UNL     1       3.645   7.367  17.658  0.00  0.00    +0.000 A 
ATOM      3  C   UNL     1       2.608   7.739  18.511  0.00  0.00    +0.000 A 
ATOM      4  C   UNL     1       2.232   6.935  19.590  0.00  0.00    +0.000 A 
ATOM      5  C   UNL     1       2.910   5.719  19.794  0.00  0.00    +0.000 A 
ATOM      6 CL   UNL     1       2.337   4.545  20.950  0.00  0.00    +0.000 Cl
ATOM      7  C   UNL     1       4.030   5.385  18.983  0.00  0.00    +0.000 A 
ATOM      8 CL   UNL     1       4.954   3.956  19.377  0.00  0.00    +0.000 Cl
ENDROOT
BRANCH   1   9
ATOM      9  C   UNL     1       5.495   5.844  16.950  0.00  0.00    +0.000 C 
ATOM     10  O   UNL     1       5.213   5.704  15.761  0.00  0.00    +0.000 OA
BRANCH   9  12
ATOM     11  C   UNL     1       7.528   4.551  17.040  0.00  0.00    +0.000 C 
ATOM     12  C   UNL     1       6.938   5.705  17.396  0.00  0.00    +0.000 C 
BRANCH  12  13
ATOM     13  C   UNL     1       7.629   6.767  18.221  0.00  0.00    +0.000 C 
ATOM     14  C   UNL     1       7.776   8.148  17.586  0.00  0.00    +0.000 C 
ENDBRANCH  12  13
ENDBRANCH   9  12
ENDBRANCH   1   9
BRANCH   4  15
ATOM     15  O   UNL     1       1.171   7.472  20.272  0.00  0.00    +0.000 OA
BRANCH  15  16
ATOM     16  C   UNL     1       1.414   8.591  21.117  0.00  0.00    +0.000 C 
BRANCH  16  17
ATOM     17  C   UNL     1       0.282   9.607  20.971  0.00  0.00    +0.000 C 
BRANCH  17  18
ATOM     18  C   UNL     1       0.678  10.670  19.946  0.00  0.00    +0.000 C 
BRANCH  18  19
ATOM     19  C   UNL     1       0.001  10.460  18.594  0.00  0.00    +0.000 C 
BRANCH  19  20
ATOM     20  C   UNL     1      -1.518  10.593  18.724  0.00  0.00    +0.000 C 
BRANCH  20  21
ATOM     21  C   UNL     1      -2.090  11.590  17.740  0.00  0.00    +0.000 C 
ATOM     22  O   UNL     1      -3.226  11.562  17.298  0.00  0.00    +0.000 OA
BRANCH  21  23
ATOM     23  O   UNL     1      -1.199  12.543  17.390  0.00  0.00    +0.000 OA
ATOM     24  H   UNL     1      -0.841  13.052  18.147  0.00  0.00    +0.000 HD
ENDBRANCH  21  23
ENDBRANCH  20  21
ENDBRANCH  19  20
ENDBRANCH  18  19
ENDBRANCH  17  18
ENDBRANCH  16  17
ENDBRANCH  15  16
ENDBRANCH   4  15
TORSDOF 11
ENDMDL
MODEL 4
REMARK VINA RESULT:      -6.5      3.470      7.650
REMARK  Name = 
REMARK  12 active torsions:
REMARK  status: ('A' for Active; 'I' for Inactive)
REMARK    1  A    between atoms: C_2  and  C_3
REMARK    2  A    between atoms: C_2  and  C_5
REMARK    3  A    between atoms: C_3  and  C_4
REMARK    4  A    between atoms: C_5  and  C_7
REMARK    5  A    between atoms: C_10  and  O_11
REMARK    6  A    between atoms: O_11  and  C_12
REMARK    7  A    between atoms: C_12  and  C_13
REMARK    8  A    between atoms: C_13  and  C_14
REMARK    9  A    between atoms: C_14  and  C_15
REMARK   10  A    between atoms: C_15  and  C_16
REMARK   11  A    between atoms: C_16  and  C_17
REMARK   12  A    between atoms: C_17  and  O_19
REMARK                            x       y       z     vdW  Elec       q    Type
REMARK                         _______ _______ _______ _____ _____    ______ ____
ROOT
ATOM      1  C   UNL     1       4.664   5.203  16.742  0.00  0.00    +0.000 A 
ATOM      2  C   UNL     1       4.289   3.874  16.513  0.00  0.00    +0.000 A 
ATOM      3  C   UNL     1       3.031   3.407  16.890  0.00  0.00    +0.000 A 
ATOM      4  C   UNL     1       2.135   4.219  17.590  0.00  0.00    +0.000 A 
ATOM      5  C   UNL     1       2.532   5.525  17.931  0.00  0.00    +0.000 A 
ATOM      6 CL   UNL     1       1.584   6.506  19.017  0.00  0.00    +0.000 Cl
ATOM      7  C   UNL     1       3.775   6.034  17.463  0.00  0.00    +0.000 A 
ATOM      8 CL   UNL     1       4.156   7.714  17.754  0.00  0.00    +0.000 Cl
ENDROOT
BRANCH   1   9
ATOM      9  C   UNL     1       6.032   5.656  16.342  0.00  0.00    +0.000 C 
ATOM     10  O   UNL     1       6.189   6.134  15.220  0.00  0.00    +0.000 OA
BRANCH   9  12
ATOM     11  C   UNL     1       7.831   4.425  17.371  0.00  0.00    +0.000 C 
ATOM     12  C   UNL     1       7.203   5.612  17.305  0.00  0.00    +0.000 C 
BRANCH  12  13
ATOM     13  C   UNL     1       7.590   6.800  18.156  0.00  0.00    +0.000 C 
ATOM     14  C   UNL     1       7.694   8.150  17.449  0.00  0.00    +0.000 C 
ENDBRANCH  12  13
ENDBRANCH   9  12
ENDBRANCH   1   9
BRANCH   4  15
ATOM     15  O   UNL     1       0.977   3.549  17.890  0.00  0.00    +0.000 OA
BRANCH  15  16
ATOM     16  C   UNL     1       0.976   2.688  19.024  0.00  0.00    +0.000 C 
BRANCH  16  17
ATOM     17  C   UNL     1       0.742   3.505  20.294  0.00  0.00    +0.000 C 
BRANCH  17  18
ATOM     18  C   UNL     1       1.208   2.703  21.510  0.00  0.00    +0.000 C 
BRANCH  18  19
ATOM     19  C   UNL     1       2.687   2.336  21.438  0.00  0.00    +0.000 C 
BRANCH  19  20
ATOM     20  C   UNL     1       3.503   3.492  20.859  0.00  0.00    +0.000 C 
BRANCH  20  21
ATOM     21  C   UNL     1       4.657   3.007  20.008  0.00  0.00    +0.000 C 
ATOM     22  O   UNL     1       5.596   3.695  19.647  0.00  0.00    +0.000 OA
BRANCH  21  23
ATOM     23  O   UNL     1       4.545   1.702  19.679  0.00  0.00    +0.000 OA
ATOM     24  H   UNL     1       4.843   1.087  20.381  0.00  0.00    +0.000 HD
ENDBRANCH  21  23
ENDBRANCH  20  21
ENDBRANCH  19  20
ENDBRANCH  18  19
ENDBRANCH  17  18
ENDBRANCH  16  17
ENDBRANCH  15  16
ENDBRANCH   4  15
TORSDOF 11
ENDMDL
MODEL 5
REMARK VINA RESULT:      -6.5      4.449      6.757
REMARK  Name = 
REMARK  12 active torsions:
REMARK  status: ('A' for Active; 'I' for Inactive)
REMARK    1  A    between atoms: C_2  and  C_3
REMARK    2  A    between atoms: C_2  and  C_5
REMARK    3  A    between atoms: C_3  and  C_4
REMARK    4  A    between atoms: C_5  and  C_7
REMARK    5  A    between atoms: C_10  and  O_11
REMARK    6  A    between atoms: O_11  and  C_12
REMARK    7  A    between atoms: C_12  and  C_13
REMARK    8  A    between atoms: C_13  and  C_14
REMARK    9  A    between atoms: C_14  and  C_15
REMARK   10  A    between atoms: C_15  and  C_16
REMARK   11  A    between atoms: C_16  and  C_17
REMARK   12  A    between atoms: C_17  and  O_19
REMARK                            x       y       z     vdW  Elec       q    Type
REMARK                         _______ _______ _______ _____ _____    ______ ____
ROOT
ATOM      1  C   UNL     1       3.132   4.388  17.654  0.00  0.00    +0.000 A 
ATOM      2  C   UNL     1       3.938   3.350  17.175  0.00  0.00    +0.000 A 
ATOM      3  C   UNL     1       5.277   3.569  16.853  0.00  0.00    +0.000 A 
ATOM      4  C   UNL     1       5.837   4.848  16.909  0.00  0.00    +0.000 A 
ATOM      5  C   UNL     1       5.016   5.929  17.280  0.00  0.00    +0.000 A 
ATOM      6 CL   UNL     1       5.564   7.577  17.126  0.00  0.00    +0.000 Cl
ATOM      7  C   UNL     1       3.678   5.693  17.702  0.00  0.00    +0.000 A 
ATOM      8 CL   UNL     1       2.747   7.033  18.324  0.00  0.00    +0.000 Cl
ENDROOT
BRANCH   1   9
ATOM      9  C   UNL     1       1.695   4.115  17.967  0.00  0.00    +0.000 C 
ATOM     10  O   UNL     1       0.841   4.454  17.149  0.00  0.00    +0.000 OA
BRANCH   9  12
ATOM     11  C   UNL     1       0.561   2.254  18.997  0.00  0.00    +0.000 C 
ATOM     12  C   UNL     1       1.276   3.371  19.219  0.00  0.00    +0.000 C 
BRANCH  12  13
ATOM     13  C   UNL     1       1.597   3.884  20.605  0.00  0.00    +0.000 C 
ATOM     14  C   UNL     1       1.693   2.846  21.721  0.00  0.00    +0.000 C 
ENDBRANCH  12  13
ENDBRANCH   9  12
ENDBRANCH   1   9
BRANCH   4  15
ATOM     15  O   UNL     1       7.151   4.839  16.517  0.00  0.00    +0.000 OA
BRANCH  15  16
ATOM     16  C   UNL     1       7.434   4.742  15.125  0.00  0.00    +0.000 C 
BRANCH  16  17
ATOM     17  C   UNL     1       6.128   4.711  14.332  0.00  0.00    +0.000 C 
BRANCH  17  18
ATOM     18  C   UNL     1       6.058   3.422  13.513  0.00  0.00    +0.000 C 
BRANCH  18  19
ATOM     19  C   UNL     1       5.504   3.649  12.109  0.00  0.00    +0.000 C 
BRANCH  19  20
ATOM     20  C   UNL     1       5.185   2.315  11.432  0.00  0.00    +0.000 C 
BRANCH  20  21
ATOM     21  C   UNL     1       6.418   1.456  11.253  0.00  0.00    +0.000 C 
ATOM     22  O   UNL     1       7.527   1.876  10.973  0.00  0.00    +0.000 OA
BRANCH  21  23
ATOM     23  O   UNL     1       6.166   0.142  11.440  0.00  0.00    +0.000 OA
ATOM     24  H   UNL     1       6.707  -0.272  12.145  0.00  0.00    +0.000 HD
ENDBRANCH  21  23
ENDBRANCH  20  21
ENDBRANCH  19  20
ENDBRANCH  18  19
ENDBRANCH  17  18
ENDBRANCH  16  17
ENDBRANCH  15  16
ENDBRANCH   4  15
TORSDOF 11
ENDMDL
MODEL 6
REMARK VINA RESULT:      -6.4      4.904      7.428
REMARK  Name = 
REMARK  12 active torsions:
REMARK  status: ('A' for Active; 'I' for Inactive)
REMARK    1  A    between atoms: C_2  and  C_3
REMARK    2  A    between atoms: C_2  and  C_5
REMARK    3  A    between atoms: C_3  and  C_4
REMARK    4  A    between atoms: C_5  and  C_7
REMARK    5  A    between atoms: C_10  and  O_11
REMARK    6  A    between atoms: O_11  and  C_12
REMARK    7  A    between atoms: C_12  and  C_13
REMARK    8  A    between atoms: C_13  and  C_14
REMARK    9  A    between atoms: C_14  and  C_15
REMARK   10  A    between atoms: C_15  and  C_16
REMARK   11  A    between atoms: C_16  and  C_17
REMARK   12  A    between atoms: C_17  and  O_19
REMARK                            x       y       z     vdW  Elec       q    Type
REMARK                         _______ _______ _______ _____ _____    ______ ____
ROOT
ATOM      1  C   UNL     1       4.359   5.413  17.744  0.00  0.00    +0.000 A 
ATOM      2  C   UNL     1       4.181   6.610  17.041  0.00  0.00    +0.000 A 
ATOM      3  C   UNL     1       3.358   7.619  17.536  0.00  0.00    +0.000 A 
ATOM      4  C   UNL     1       2.611   7.439  18.704  0.00  0.00    +0.000 A 
ATOM      5  C   UNL     1       2.686   6.202  19.369  0.00  0.00    +0.000 A 
ATOM      6 CL   UNL     1       1.599   5.808  20.674  0.00  0.00    +0.000 Cl
ATOM      7  C   UNL     1       3.598   5.208  18.919  0.00  0.00    +0.000 A 
ATOM      8 CL   UNL     1       3.794   3.757  19.872  0.00  0.00    +0.000 Cl
ENDROOT
BRANCH   1   9
ATOM      9  C   UNL     1       5.233   4.347  17.165  0.00  0.00    +0.000 C 
ATOM     10  O   UNL     1       4.761   3.223  17.001  0.00  0.00    +0.000 OA
BRANCH   9  12
ATOM     11  C   UNL     1       7.568   4.633  17.694  0.00  0.00    +0.000 C 
ATOM     12  C   UNL     1       6.652   4.634  16.711  0.00  0.00    +0.000 C 
BRANCH  12  13
ATOM     13  C   UNL     1       6.986   4.947  15.270  0.00  0.00    +0.000 C 
ATOM     14  C   UNL     1       6.417   4.006  14.209  0.00  0.00    +0.000 C 
ENDBRANCH  12  13
ENDBRANCH   9  12
ENDBRANCH   1   9
BRANCH   4  15
ATOM     15  O   UNL     1       1.845   8.542  18.986  0.00  0.00    +0.000 OA
BRANCH  15  16
ATOM     16  C   UNL     1       1.761   9.568  18.004  0.00  0.00    +0.000 C 
BRANCH  16  17
ATOM     17  C   UNL     1       0.695  10.586  18.408  0.00  0.00    +0.000 C 
BRANCH  17  18
ATOM     18  C   UNL     1       0.864  10.943  19.885  0.00  0.00    +0.000 C 
BRANCH  18  19
ATOM     19  C   UNL     1      -0.409  10.706  20.694  0.00  0.00    +0.000 C 
BRANCH  19  20
ATOM     20  C   UNL     1      -0.197   9.596  21.724  0.00  0.00    +0.000 C 
BRANCH  20  21
ATOM     21  C   UNL     1      -0.634  10.014  23.112  0.00  0.00    +0.000 C 
ATOM     22  O   UNL     1      -1.536  10.796  23.353  0.00  0.00    +0.000 OA
BRANCH  21  23
ATOM     23  O   UNL     1       0.090   9.418  24.084  0.00  0.00    +0.000 OA
ATOM     24  H   UNL     1      -0.442   9.120  24.852  0.00  0.00    +0.000 HD
ENDBRANCH  21  23
ENDBRANCH  20  21
ENDBRANCH  19  20
ENDBRANCH  18  19
ENDBRANCH  17  18
ENDBRANCH  16  17
ENDBRANCH  15  16
ENDBRANCH   4  15
TORSDOF 11
ENDMDL
MODEL 7
REMARK VINA RESULT:      -6.4      1.715      2.019
REMARK  Name = 
REMARK  12 active torsions:
REMARK  status: ('A' for Active; 'I' for Inactive)
REMARK    1  A    between atoms: C_2  and  C_3
REMARK    2  A    between atoms: C_2  and  C_5
REMARK    3  A    between atoms: C_3  and  C_4
REMARK    4  A    between atoms: C_5  and  C_7
REMARK    5  A    between atoms: C_10  and  O_11
REMARK    6  A    between atoms: O_11  and  C_12
REMARK    7  A    between atoms: C_12  and  C_13
REMARK    8  A    between atoms: C_13  and  C_14
REMARK    9  A    between atoms: C_14  and  C_15
REMARK   10  A    between atoms: C_15  and  C_16
REMARK   11  A    between atoms: C_16  and  C_17
REMARK   12  A    between atoms: C_17  and  O_19
REMARK                            x       y       z     vdW  Elec       q    Type
REMARK                         _______ _______ _______ _____ _____    ______ ____
ROOT
ATOM      1  C   UNL     1       4.932   4.385  18.789  0.00  0.00    +0.000 A 
ATOM      2  C   UNL     1       5.890   5.073  19.541  0.00  0.00    +0.000 A 
ATOM      3  C   UNL     1       6.793   5.944  18.933  0.00  0.00    +0.000 A 
ATOM      4  C   UNL     1       6.834   6.091  17.544  0.00  0.00    +0.000 A 
ATOM      5  C   UNL     1       5.955   5.325  16.757  0.00  0.00    +0.000 A 
ATOM      6 CL   UNL     1       6.118   5.257  15.022  0.00  0.00    +0.000 Cl
ATOM      7  C   UNL     1       4.970   4.511  17.380  0.00  0.00    +0.000 A 
ATOM      8 CL   UNL     1       3.784   3.713  16.377  0.00  0.00    +0.000 Cl
ENDROOT
BRANCH   1   9
ATOM      9  C   UNL     1       3.997   3.443  19.479  0.00  0.00    +0.000 C 
ATOM     10  O   UNL     1       4.406   2.322  19.778  0.00  0.00    +0.000 OA
BRANCH   9  12
ATOM     11  C   UNL     1       2.488   4.330  21.137  0.00  0.00    +0.000 C 
ATOM     12  C   UNL     1       2.595   3.858  19.883  0.00  0.00    +0.000 C 
BRANCH  12  13
ATOM     13  C   UNL     1       1.412   3.699  18.955  0.00  0.00    +0.000 C 
ATOM     14  C   UNL     1       0.848   2.289  18.793  0.00  0.00    +0.000 C 
ENDBRANCH  12  13
ENDBRANCH   9  12
ENDBRANCH   1   9
BRANCH   4  15
ATOM     15  O   UNL     1       7.818   6.966  17.160  0.00  0.00    +0.000 OA
BRANCH  15  16
ATOM     16  C   UNL     1       7.604   8.356  17.386  0.00  0.00    +0.000 C 
BRANCH  16  17
ATOM     17  C   UNL     1       8.631   8.882  18.387  0.00  0.00    +0.000 C 
BRANCH  17  18
ATOM     18  C   UNL     1       8.853  10.377  18.154  0.00  0.00    +0.000 C 
BRANCH  18  19
ATOM     19  C   UNL     1       9.917  10.962  19.078  0.00  0.00    +0.000 C 
BRANCH  19  20
ATOM     20  C   UNL     1      11.075  11.545  18.266  0.00  0.00    +0.000 C 
BRANCH  20  21
ATOM     21  C   UNL     1      10.744  12.907  17.695  0.00  0.00    +0.000 C 
ATOM     22  O   UNL     1      11.075  13.300  16.590  0.00  0.00    +0.000 OA
BRANCH  21  23
ATOM     23  O   UNL     1      10.022  13.665  18.549  0.00  0.00    +0.000 OA
ATOM     24  H   UNL     1      10.461  13.822  19.411  0.00  0.00    +0.000 HD
ENDBRANCH  21  23
ENDBRANCH  20  21
ENDBRANCH  19  20
ENDBRANCH  18  19
ENDBRANCH  17  18
ENDBRANCH  16  17
ENDBRANCH  15  16
ENDBRANCH   4  15
TORSDOF 11
ENDMDL
MODEL 8
REMARK VINA RESULT:      -6.4      4.482      8.120
REMARK  Name = 
REMARK  12 active torsions:
REMARK  status: ('A' for Active; 'I' for Inactive)
REMARK    1  A    between atoms: C_2  and  C_3
REMARK    2  A    between atoms: C_2  and  C_5
REMARK    3  A    between atoms: C_3  and  C_4
REMARK    4  A    between atoms: C_5  and  C_7
REMARK    5  A    between atoms: C_10  and  O_11
REMARK    6  A    between atoms: O_11  and  C_12
REMARK    7  A    between atoms: C_12  and  C_13
REMARK    8  A    between atoms: C_13  and  C_14
REMARK    9  A    between atoms: C_14  and  C_15
REMARK   10  A    between atoms: C_15  and  C_16
REMARK   11  A    between atoms: C_16  and  C_17
REMARK   12  A    between atoms: C_17  and  O_19
REMARK                            x       y       z     vdW  Elec       q    Type
REMARK                         _______ _______ _______ _____ _____    ______ ____
ROOT
ATOM      1  C   UNL     1       5.950   5.044  16.125  0.00  0.00    +0.000 A 
ATOM      2  C   UNL     1       6.199   4.213  17.222  0.00  0.00    +0.000 A 
ATOM      3  C   UNL     1       5.476   4.348  18.406  0.00  0.00    +0.000 A 
ATOM      4  C   UNL     1       4.542   5.374  18.573  0.00  0.00    +0.000 A 
ATOM      5  C   UNL     1       4.354   6.292  17.523  0.00  0.00    +0.000 A 
ATOM      6 CL   UNL     1       3.407   7.740  17.745  0.00  0.00    +0.000 Cl
ATOM      7  C   UNL     1       5.019   6.098  16.281  0.00  0.00    +0.000 A 
ATOM      8 CL   UNL     1       4.627   7.153  14.946  0.00  0.00    +0.000 Cl
ENDROOT
BRANCH   1   9
ATOM      9  C   UNL     1       6.765   4.879  14.882  0.00  0.00    +0.000 C 
ATOM     10  O   UNL     1       7.913   5.319  14.869  0.00  0.00    +0.000 OA
BRANCH   9  12
ATOM     11  C   UNL     1       4.992   3.646  13.810  0.00  0.00    +0.000 C 
ATOM     12  C   UNL     1       6.241   4.125  13.675  0.00  0.00    +0.000 C 
BRANCH  12  13
ATOM     13  C   UNL     1       7.087   3.890  12.444  0.00  0.00    +0.000 C 
ATOM     14  C   UNL     1       7.496   5.124  11.643  0.00  0.00    +0.000 C 
ENDBRANCH  12  13
ENDBRANCH   9  12
ENDBRANCH   1   9
BRANCH   4  15
ATOM     15  O   UNL     1       3.977   5.343  19.822  0.00  0.00    +0.000 OA
BRANCH  15  16
ATOM     16  C   UNL     1       2.559   5.429  19.918  0.00  0.00    +0.000 C 
BRANCH  16  17
ATOM     17  C   UNL     1       2.085   4.749  21.201  0.00  0.00    +0.000 C 
BRANCH  17  18
ATOM     18  C   UNL     1       1.607   3.332  20.883  0.00  0.00    +0.000 C 
BRANCH  18  19
ATOM     19  C   UNL     1       0.762   3.271  19.614  0.00  0.00    +0.000 C 
BRANCH  19  20
ATOM     20  C   UNL     1       1.121   2.036  18.785  0.00  0.00    +0.000 C 
BRANCH  20  21
ATOM     21  C   UNL     1       2.275   2.298  17.842  0.00  0.00    +0.000 C 
ATOM     22  O   UNL     1       2.304   3.180  17.001  0.00  0.00    +0.000 OA
BRANCH  21  23
ATOM     23  O   UNL     1       3.302   1.439  18.028  0.00  0.00    +0.000 OA
ATOM     24  H   UNL     1       3.036   0.496  18.035  0.00  0.00    +0.000 HD
ENDBRANCH  21  23
ENDBRANCH  20  21
ENDBRANCH  19  20
ENDBRANCH  18  19
ENDBRANCH  17  18
ENDBRANCH  16  17
ENDBRANCH  15  16
ENDBRANCH   4  15
TORSDOF 11
ENDMDL
MODEL 9
REMARK VINA RESULT:      -6.4      4.499      8.024
REMARK  Name = 
REMARK  12 active torsions:
REMARK  status: ('A' for Active; 'I' for Inactive)
REMARK    1  A    between atoms: C_2  and  C_3
REMARK    2  A    between atoms: C_2  and  C_5
REMARK    3  A    between atoms: C_3  and  C_4
REMARK    4  A    between atoms: C_5  and  C_7
REMARK    5  A    between atoms: C_10  and  O_11
REMARK    6  A    between atoms: O_11  and  C_12
REMARK    7  A    between atoms: C_12  and  C_13
REMARK    8  A    between atoms: C_13  and  C_14
REMARK    9  A    between atoms: C_14  and  C_15
REMARK   10  A    between atoms: C_15  and  C_16
REMARK   11  A    between atoms: C_16  and  C_17
REMARK   12  A    between atoms: C_17  and  O_19
REMARK                            x       y       z     vdW  Elec       q    Type
REMARK                         _______ _______ _______ _____ _____    ______ ____
ROOT
ATOM      1  C   UNL     1       6.231   5.082  15.625  0.00  0.00    +0.000 A 
ATOM      2  C   UNL     1       6.581   4.226  16.675  0.00  0.00    +0.000 A 
ATOM      3  C   UNL     1       5.909   4.270  17.895  0.00  0.00    +0.000 A 
ATOM      4  C   UNL     1       4.924   5.230  18.146  0.00  0.00    +0.000 A 
ATOM      5  C   UNL     1       4.631   6.174  17.145  0.00  0.00    +0.000 A 
ATOM      6 CL   UNL     1       3.610   7.550  17.469  0.00  0.00    +0.000 Cl
ATOM      7  C   UNL     1       5.246   6.069  15.867  0.00  0.00    +0.000 A 
ATOM      8 CL   UNL     1       4.728   7.149  14.596  0.00  0.00    +0.000 Cl
ENDROOT
BRANCH   1   9
ATOM      9  C   UNL     1       6.994   5.016  14.341  0.00  0.00    +0.000 C 
ATOM     10  O   UNL     1       8.091   5.568  14.280  0.00  0.00    +0.000 OA
BRANCH   9  12
ATOM     11  C   UNL     1       7.338   4.172  12.109  0.00  0.00    +0.000 C 
ATOM     12  C   UNL     1       6.485   4.231  13.147  0.00  0.00    +0.000 C 
BRANCH  12  13
ATOM     13  C   UNL     1       5.105   3.614  13.119  0.00  0.00    +0.000 C 
ATOM     14  C   UNL     1       4.546   3.236  11.750  0.00  0.00    +0.000 C 
ENDBRANCH  12  13
ENDBRANCH   9  12
ENDBRANCH   1   9
BRANCH   4  15
ATOM     15  O   UNL     1       4.422   5.114  19.417  0.00  0.00    +0.000 OA
BRANCH  15  16
ATOM     16  C   UNL     1       3.230   5.826  19.733  0.00  0.00    +0.000 C 
BRANCH  16  17
ATOM     17  C   UNL     1       2.069   4.846  19.895  0.00  0.00    +0.000 C 
BRANCH  17  18
ATOM     18  C   UNL     1       1.636   4.335  18.521  0.00  0.00    +0.000 C 
BRANCH  18  19
ATOM     19  C   UNL     1       1.093   2.910  18.571  0.00  0.00    +0.000 C 
BRANCH  19  20
ATOM     20  C   UNL     1       1.927   2.046  19.518  0.00  0.00    +0.000 C 
BRANCH  20  21
ATOM     21  C   UNL     1       3.335   1.833  19.005  0.00  0.00    +0.000 C 
ATOM     22  O   UNL     1       3.620   1.480  17.874  0.00  0.00    +0.000 OA
BRANCH  21  23
ATOM     23  O   UNL     1       4.273   2.080  19.946  0.00  0.00    +0.000 OA
ATOM     24  H   UNL     1       5.133   2.377  19.583  0.00  0.00    +0.000 HD
ENDBRANCH  21  23
ENDBRANCH  20  21
ENDBRANCH  19  20
ENDBRANCH  18  19
ENDBRANCH  17  18
ENDBRANCH  16  17
ENDBRANCH  15  16
ENDBRANCH   4  15
TORSDOF 11
ENDMDL
