MODEL 1
REMARK VINA RESULT:      -7.3      0.000      0.000
REMARK  Name = 
REMARK  5 active torsions:
REMARK  status: ('A' for Active; 'I' for Inactive)
REMARK    1  A    between atoms: C_1  and  C_2
REMARK    2  A    between atoms: C_7  and  C_8
REMARK    3  A    between atoms: N_10  and  C_11
REMARK    4  A    between atoms: C_11  and  C_12
REMARK    5  A    between atoms: C_16  and  C_17
REMARK                            x       y       z     vdW  Elec       q    Type
REMARK                         _______ _______ _______ _____ _____    ______ ____
ROOT
ATOM      1  C   UNL     1       4.505   4.305  16.889  0.00  0.00    +0.000 C 
ATOM      2  O   UNL     1       4.127   3.183  17.202  0.00  0.00    +0.000 OA
ATOM      3  N   UNL     1       3.951   5.449  17.435  0.00  0.00    +0.000 N 
ATOM      4  H   UNL     1       4.174   6.344  17.026  0.00  0.00    +0.000 HD
ENDROOT
BRANCH   1  11
ATOM      5  C   UNL     1       7.560   4.660  17.669  0.00  0.00    +0.000 C 
ATOM      6  C   UNL     1       6.913   4.620  16.334  0.00  0.00    +0.000 A 
ATOM      7  O   UNL     1       7.730   4.779  15.262  0.00  0.00    +0.000 OA
ATOM      8  C   UNL     1       6.945   4.735  14.158  0.00  0.00    +0.000 A 
ATOM      9 BR   UNL     1       7.594   4.942  12.420  0.00  0.00    +0.000 Br
ATOM     10  C   UNL     1       5.626   4.533  14.508  0.00  0.00    +0.000 A 
ATOM     11  C   UNL     1       5.592   4.466  15.929  0.00  0.00    +0.000 A 
ENDBRANCH   1  11
BRANCH   3  12
ATOM     12  C   UNL     1       2.843   5.357  18.415  0.00  0.00    +0.000 C 
ATOM     13  C   UNL     1       1.620   4.647  17.781  0.00  0.00    +0.000 C 
ATOM     14  C   UNL     1       3.236   4.532  19.649  0.00  0.00    +0.000 C 
ATOM     15  C   UNL     1       2.233   5.003  20.689  0.00  0.00    +0.000 C 
ATOM     16  O   UNL     1       1.996   6.388  20.427  0.00  0.00    +0.000 OA
ATOM     17  C   UNL     1       2.556   6.707  19.134  0.00  0.00    +0.000 C 
BRANCH  17  18
ATOM     18  C   UNL     1       1.663   7.694  18.445  0.00  0.00    +0.000 C 
ATOM     19  C   UNL     1       1.448   9.066  19.046  0.00  0.00    +0.000 C 
ATOM     20  C   UNL     1       2.249   8.925  17.787  0.00  0.00    +0.000 C 
ENDBRANCH  17  18
ENDBRANCH   3  12
TORSDOF 3
ENDMDL
MODEL 2
REMARK VINA RESULT:      -7.1      1.387      1.647
REMARK  Name = 
REMARK  5 active torsions:
REMARK  status: ('A' for Active; 'I' for Inactive)
REMARK    1  A    between atoms: C_1  and  C_2
REMARK    2  A    between atoms: C_7  and  C_8
REMARK    3  A    between atoms: N_10  and  C_11
REMARK    4  A    between atoms: C_11  and  C_12
REMARK    5  A    between atoms: C_16  and  C_17
REMARK                            x       y       z     vdW  Elec       q    Type
REMARK                         _______ _______ _______ _____ _____    ______ ____
ROOT
ATOM      1  C   UNL     1       5.145   4.182  17.660  0.00  0.00    +0.000 C 
ATOM      2  O   UNL     1       5.703   4.057  18.743  0.00  0.00    +0.000 OA
ATOM      3  N   UNL     1       3.774   4.062  17.518  0.00  0.00    +0.000 N 
ATOM      4  H   UNL     1       3.380   4.004  16.592  0.00  0.00    +0.000 HD
ENDROOT
BRANCH   1  11
ATOM      5  C   UNL     1       7.300   6.503  17.475  0.00  0.00    +0.000 C 
ATOM      6  C   UNL     1       6.857   5.525  16.450  0.00  0.00    +0.000 A 
ATOM      7  O   UNL     1       7.433   5.633  15.226  0.00  0.00    +0.000 OA
ATOM      8  C   UNL     1       6.878   4.675  14.443  0.00  0.00    +0.000 A 
ATOM      9 BR   UNL     1       7.313   4.431  12.645  0.00  0.00    +0.000 Br
ATOM     10  C   UNL     1       5.956   3.939  15.158  0.00  0.00    +0.000 A 
ATOM     11  C   UNL     1       5.928   4.492  16.468  0.00  0.00    +0.000 A 
ENDBRANCH   1  11
BRANCH   3  12
ATOM     12  C   UNL     1       2.919   3.746  18.688  0.00  0.00    +0.000 C 
ATOM     13  C   UNL     1       1.534   3.234  18.220  0.00  0.00    +0.000 C 
ATOM     14  C   UNL     1       3.525   2.635  19.558  0.00  0.00    +0.000 C 
ATOM     15  C   UNL     1       2.828   2.848  20.892  0.00  0.00    +0.000 C 
ATOM     16  O   UNL     1       2.640   4.259  21.030  0.00  0.00    +0.000 OA
ATOM     17  C   UNL     1       2.907   4.880  19.754  0.00  0.00    +0.000 C 
BRANCH  17  18
ATOM     18  C   UNL     1       1.955   6.020  19.556  0.00  0.00    +0.000 C 
ATOM     19  C   UNL     1       2.141   7.304  20.335  0.00  0.00    +0.000 C 
ATOM     20  C   UNL     1       2.411   7.285  18.861  0.00  0.00    +0.000 C 
ENDBRANCH  17  18
ENDBRANCH   3  12
TORSDOF 3
ENDMDL
MODEL 3
REMARK VINA RESULT:      -6.7      1.633      2.143
REMARK  Name = 
REMARK  5 active torsions:
REMARK  status: ('A' for Active; 'I' for Inactive)
REMARK    1  A    between atoms: C_1  and  C_2
REMARK    2  A    between atoms: C_7  and  C_8
REMARK    3  A    between atoms: N_10  and  C_11
REMARK    4  A    between atoms: C_11  and  C_12
REMARK    5  A    between atoms: C_16  and  C_17
REMARK                            x       y       z     vdW  Elec       q    Type
REMARK                         _______ _______ _______ _____ _____    ______ ____
ROOT
ATOM      1  C   UNL     1       4.472   4.103  16.969  0.00  0.00    +0.000 C 
ATOM      2  O   UNL     1       3.305   4.289  16.646  0.00  0.00    +0.000 OA
ATOM      3  N   UNL     1       4.818   3.480  18.155  0.00  0.00    +0.000 N 
ATOM      4  H   UNL     1       5.781   3.500  18.456  0.00  0.00    +0.000 HD
ENDROOT
BRANCH   1  11
ATOM      5  C   UNL     1       6.828   6.063  17.791  0.00  0.00    +0.000 C 
ATOM      6  C   UNL     1       6.554   5.386  16.499  0.00  0.00    +0.000 A 
ATOM      7  O   UNL     1       7.420   5.645  15.487  0.00  0.00    +0.000 OA
ATOM      8  C   UNL     1       6.981   4.956  14.405  0.00  0.00    +0.000 A 
ATOM      9 BR   UNL     1       7.816   5.010  12.738  0.00  0.00    +0.000 Br
ATOM     10  C   UNL     1       5.843   4.240  14.716  0.00  0.00    +0.000 A 
ATOM     11  C   UNL     1       5.550   4.521  16.079  0.00  0.00    +0.000 A 
ENDBRANCH   1  11
BRANCH   3  12
ATOM     12  C   UNL     1       3.773   3.030  19.105  0.00  0.00    +0.000 C 
ATOM     13  C   UNL     1       2.664   2.250  18.356  0.00  0.00    +0.000 C 
ATOM     14  C   UNL     1       4.337   2.075  20.168  0.00  0.00    +0.000 C 
ATOM     15  C   UNL     1       3.305   2.179  21.279  0.00  0.00    +0.000 C 
ATOM     16  O   UNL     1       2.835   3.530  21.272  0.00  0.00    +0.000 OA
ATOM     17  C   UNL     1       3.292   4.163  20.058  0.00  0.00    +0.000 C 
BRANCH  17  18
ATOM     18  C   UNL     1       2.228   5.093  19.561  0.00  0.00    +0.000 C 
ATOM     19  C   UNL     1       1.675   6.166  20.475  0.00  0.00    +0.000 C 
ATOM     20  C   UNL     1       2.543   6.554  19.316  0.00  0.00    +0.000 C 
ENDBRANCH  17  18
ENDBRANCH   3  12
TORSDOF 3
ENDMDL
MODEL 4
REMARK VINA RESULT:      -6.5      3.099      4.155
REMARK  Name = 
REMARK  5 active torsions:
REMARK  status: ('A' for Active; 'I' for Inactive)
REMARK    1  A    between atoms: C_1  and  C_2
REMARK    2  A    between atoms: C_7  and  C_8
REMARK    3  A    between atoms: N_10  and  C_11
REMARK    4  A    between atoms: C_11  and  C_12
REMARK    5  A    between atoms: C_16  and  C_17
REMARK                            x       y       z     vdW  Elec       q    Type
REMARK                         _______ _______ _______ _____ _____    ______ ____
ROOT
ATOM      1  C   UNL     1       5.629   5.731  17.514  0.00  0.00    +0.000 C 
ATOM      2  O   UNL     1       5.512   5.271  16.385  0.00  0.00    +0.000 OA
ATOM      3  N   UNL     1       4.808   5.343  18.558  0.00  0.00    +0.000 N 
ATOM      4  H   UNL     1       4.829   5.867  19.419  0.00  0.00    +0.000 HD
ENDROOT
BRANCH   1  11
ATOM      5  C   UNL     1       8.123   5.196  19.401  0.00  0.00    +0.000 C 
ATOM      6  C   UNL     1       7.745   6.411  18.637  0.00  0.00    +0.000 A 
ATOM      7  O   UNL     1       8.567   7.484  18.766  0.00  0.00    +0.000 OA
ATOM      8  C   UNL     1       8.035   8.481  18.016  0.00  0.00    +0.000 A 
ATOM      9 BR   UNL     1       8.780  10.187  17.887  0.00  0.00    +0.000 Br
ATOM     10  C   UNL     1       6.880   8.054  17.392  0.00  0.00    +0.000 A 
ATOM     11  C   UNL     1       6.677   6.706  17.799  0.00  0.00    +0.000 A 
ENDBRANCH   1  11
BRANCH   3  12
ATOM     12  C   UNL     1       3.723   4.357  18.338  0.00  0.00    +0.000 C 
ATOM     13  C   UNL     1       2.498   5.043  17.681  0.00  0.00    +0.000 C 
ATOM     14  C   UNL     1       4.155   3.231  17.388  0.00  0.00    +0.000 C 
ATOM     15  C   UNL     1       3.168   2.125  17.722  0.00  0.00    +0.000 C 
ATOM     16  O   UNL     1       2.903   2.227  19.124  0.00  0.00    +0.000 OA
ATOM     17  C   UNL     1       3.430   3.487  19.594  0.00  0.00    +0.000 C 
BRANCH  17  18
ATOM     18  C   UNL     1       2.508   4.044  20.635  0.00  0.00    +0.000 C 
ATOM     19  C   UNL     1       1.097   3.509  20.760  0.00  0.00    +0.000 C 
ATOM     20  C   UNL     1       2.104   3.203  21.828  0.00  0.00    +0.000 C 
ENDBRANCH  17  18
ENDBRANCH   3  12
TORSDOF 3
ENDMDL
MODEL 5
REMARK VINA RESULT:      -6.4      4.247      7.020
REMARK  Name = 
REMARK  5 active torsions:
REMARK  status: ('A' for Active; 'I' for Inactive)
REMARK    1  A    between atoms: C_1  and  C_2
REMARK    2  A    between atoms: C_7  and  C_8
REMARK    3  A    between atoms: N_10  and  C_11
REMARK    4  A    between atoms: C_11  and  C_12
REMARK    5  A    between atoms: C_16  and  C_17
REMARK                            x       y       z     vdW  Elec       q    Type
REMARK                         _______ _______ _______ _____ _____    ______ ____
ROOT
ATOM      1  C   UNL     1       2.286   7.409  19.348  0.00  0.00    +0.000 C 
ATOM      2  O   UNL     1       2.809   7.711  18.283  0.00  0.00    +0.000 OA
ATOM      3  N   UNL     1       2.450   6.161  19.922  0.00  0.00    +0.000 N 
ATOM      4  H   UNL     1       1.870   5.902  20.706  0.00  0.00    +0.000 HD
ENDROOT
BRANCH   1  11
ATOM      5  C   UNL     1       1.447  10.244  18.198  0.00  0.00    +0.000 C 
ATOM      6  C   UNL     1       1.146   9.617  19.509  0.00  0.00    +0.000 A 
ATOM      7  O   UNL     1       0.417  10.359  20.379  0.00  0.00    +0.000 OA
ATOM      8  C   UNL     1       0.276   9.621  21.508  0.00  0.00    +0.000 A 
ATOM      9 BR   UNL     1      -0.625  10.219  23.028  0.00  0.00    +0.000 Br
ATOM     10  C   UNL     1       0.899   8.397  21.367  0.00  0.00    +0.000 A 
ATOM     11  C   UNL     1       1.479   8.389  20.068  0.00  0.00    +0.000 A 
ENDBRANCH   1  11
BRANCH   3  12
ATOM     12  C   UNL     1       3.257   5.118  19.244  0.00  0.00    +0.000 C 
ATOM     13  C   UNL     1       2.672   4.811  17.843  0.00  0.00    +0.000 C 
ATOM     14  C   UNL     1       4.708   5.569  19.023  0.00  0.00    +0.000 C 
ATOM     15  C   UNL     1       5.437   4.248  18.843  0.00  0.00    +0.000 C 
ATOM     16  O   UNL     1       4.785   3.305  19.698  0.00  0.00    +0.000 OA
ATOM     17  C   UNL     1       3.544   3.887  20.153  0.00  0.00    +0.000 C 
BRANCH  17  18
ATOM     18  C   UNL     1       2.501   2.814  20.232  0.00  0.00    +0.000 C 
ATOM     19  C   UNL     1       2.032   2.315  21.582  0.00  0.00    +0.000 C 
ATOM     20  C   UNL     1       1.109   3.138  20.733  0.00  0.00    +0.000 C 
ENDBRANCH  17  18
ENDBRANCH   3  12
TORSDOF 3
ENDMDL
MODEL 6
REMARK VINA RESULT:      -6.3      2.804      6.224
REMARK  Name = 
REMARK  5 active torsions:
REMARK  status: ('A' for Active; 'I' for Inactive)
REMARK    1  A    between atoms: C_1  and  C_2
REMARK    2  A    between atoms: C_7  and  C_8
REMARK    3  A    between atoms: N_10  and  C_11
REMARK    4  A    between atoms: C_11  and  C_12
REMARK    5  A    between atoms: C_16  and  C_17
REMARK                            x       y       z     vdW  Elec       q    Type
REMARK                         _______ _______ _______ _____ _____    ______ ____
ROOT
ATOM      1  C   UNL     1       3.575   6.111  17.916  0.00  0.00    +0.000 C 
ATOM      2  O   UNL     1       3.420   4.981  18.362  0.00  0.00    +0.000 OA
ATOM      3  N   UNL     1       4.490   6.391  16.916  0.00  0.00    +0.000 N 
ATOM      4  H   UNL     1       4.702   7.354  16.702  0.00  0.00    +0.000 HD
ENDROOT
BRANCH   1  11
ATOM      5  C   UNL     1       1.983   6.060  20.660  0.00  0.00    +0.000 C 
ATOM      6  C   UNL     1       2.086   7.128  19.634  0.00  0.00    +0.000 A 
ATOM      7  O   UNL     1       1.381   8.263  19.872  0.00  0.00    +0.000 OA
ATOM      8  C   UNL     1       1.592   9.087  18.817  0.00  0.00    +0.000 A 
ATOM      9 BR   UNL     1       0.808  10.772  18.649  0.00  0.00    +0.000 Br
ATOM     10  C   UNL     1       2.442   8.497  17.903  0.00  0.00    +0.000 A 
ATOM     11  C   UNL     1       2.763   7.213  18.423  0.00  0.00    +0.000 A 
ENDBRANCH   1  11
BRANCH   3  12
ATOM     12  C   UNL     1       5.348   5.320  16.357  0.00  0.00    +0.000 C 
ATOM     13  C   UNL     1       4.688   3.934  16.571  0.00  0.00    +0.000 C 
ATOM     14  C   UNL     1       5.550   5.478  14.843  0.00  0.00    +0.000 C 
ATOM     15  C   UNL     1       6.814   4.671  14.596  0.00  0.00    +0.000 C 
ATOM     16  O   UNL     1       7.635   4.839  15.754  0.00  0.00    +0.000 OA
ATOM     17  C   UNL     1       6.837   5.445  16.793  0.00  0.00    +0.000 C 
BRANCH  17  18
ATOM     18  C   UNL     1       7.232   4.863  18.116  0.00  0.00    +0.000 C 
ATOM     19  C   UNL     1       8.138   5.643  19.045  0.00  0.00    +0.000 C 
ATOM     20  C   UNL     1       6.694   5.454  19.403  0.00  0.00    +0.000 C 
ENDBRANCH  17  18
ENDBRANCH   3  12
TORSDOF 3
ENDMDL
MODEL 7
REMARK VINA RESULT:      -6.3      2.926      3.824
REMARK  Name = 
REMARK  5 active torsions:
REMARK  status: ('A' for Active; 'I' for Inactive)
REMARK    1  A    between atoms: C_1  and  C_2
REMARK    2  A    between atoms: C_7  and  C_8
REMARK    3  A    between atoms: N_10  and  C_11
REMARK    4  A    between atoms: C_11  and  C_12
REMARK    5  A    between atoms: C_16  and  C_17
REMARK                            x       y       z     vdW  Elec       q    Type
REMARK                         _______ _______ _______ _____ _____    ______ ____
ROOT
ATOM      1  C   UNL     1       5.211   4.779  17.964  0.00  0.00    +0.000 C 
ATOM      2  O   UNL     1       5.602   3.761  18.523  0.00  0.00    +0.000 OA
ATOM      3  N   UNL     1       3.881   4.978  17.642  0.00  0.00    +0.000 N 
ATOM      4  H   UNL     1       3.633   5.747  17.037  0.00  0.00    +0.000 HD
ENDROOT
BRANCH   1  11
ATOM      5  C   UNL     1       7.078   4.804  15.399  0.00  0.00    +0.000 C 
ATOM      6  C   UNL     1       6.951   5.793  16.499  0.00  0.00    +0.000 A 
ATOM      7  O   UNL     1       7.764   6.877  16.433  0.00  0.00    +0.000 OA
ATOM      8  C   UNL     1       7.508   7.631  17.530  0.00  0.00    +0.000 A 
ATOM      9 BR   UNL     1       8.400   9.222  17.922  0.00  0.00    +0.000 Br
ATOM     10  C   UNL     1       6.522   7.047  18.299  0.00  0.00    +0.000 A 
ATOM     11  C   UNL     1       6.158   5.841  17.639  0.00  0.00    +0.000 A 
ENDBRANCH   1  11
BRANCH   3  12
ATOM     12  C   UNL     1       2.867   3.940  17.943  0.00  0.00    +0.000 C 
ATOM     13  C   UNL     1       1.450   4.446  17.571  0.00  0.00    +0.000 C 
ATOM     14  C   UNL     1       3.100   2.658  17.129  0.00  0.00    +0.000 C 
ATOM     15  C   UNL     1       2.351   1.615  17.941  0.00  0.00    +0.000 C 
ATOM     16  O   UNL     1       2.496   1.988  19.314  0.00  0.00    +0.000 OA
ATOM     17  C   UNL     1       3.027   3.330  19.366  0.00  0.00    +0.000 C 
BRANCH  17  18
ATOM     18  C   UNL     1       2.401   4.059  20.516  0.00  0.00    +0.000 C 
ATOM     19  C   UNL     1       1.046   3.630  21.035  0.00  0.00    +0.000 C 
ATOM     20  C   UNL     1       2.269   3.386  21.866  0.00  0.00    +0.000 C 
ENDBRANCH  17  18
ENDBRANCH   3  12
TORSDOF 3
ENDMDL
MODEL 8
REMARK VINA RESULT:      -6.3      3.682      6.670
REMARK  Name = 
REMARK  5 active torsions:
REMARK  status: ('A' for Active; 'I' for Inactive)
REMARK    1  A    between atoms: C_1  and  C_2
REMARK    2  A    between atoms: C_7  and  C_8
REMARK    3  A    between atoms: N_10  and  C_11
REMARK    4  A    between atoms: C_11  and  C_12
REMARK    5  A    between atoms: C_16  and  C_17
REMARK                            x       y       z     vdW  Elec       q    Type
REMARK                         _______ _______ _______ _____ _____    ______ ____
ROOT
ATOM      1  C   UNL     1       2.781   6.641  18.829  0.00  0.00    +0.000 C 
ATOM      2  O   UNL     1       2.215   5.824  18.113  0.00  0.00    +0.000 OA
ATOM      3  N   UNL     1       4.159   6.701  18.934  0.00  0.00    +0.000 N 
ATOM      4  H   UNL     1       4.571   7.271  19.657  0.00  0.00    +0.000 HD
ENDROOT
BRANCH   1  11
ATOM      5  C   UNL     1       1.884   9.483  17.739  0.00  0.00    +0.000 C 
ATOM      6  C   UNL     1       1.637   8.842  19.055  0.00  0.00    +0.000 A 
ATOM      7  O   UNL     1       0.939   9.573  19.960  0.00  0.00    +0.000 OA
ATOM      8  C   UNL     1       0.847   8.823  21.086  0.00  0.00    +0.000 A 
ATOM      9 BR   UNL     1       0.003   9.403  22.646  0.00  0.00    +0.000 Br
ATOM     10  C   UNL     1       1.469   7.604  20.909  0.00  0.00    +0.000 A 
ATOM     11  C   UNL     1       1.997   7.610  19.588  0.00  0.00    +0.000 A 
ENDBRANCH   1  11
BRANCH   3  12
ATOM     12  C   UNL     1       5.015   5.745  18.190  0.00  0.00    +0.000 C 
ATOM     13  C   UNL     1       4.462   5.529  16.759  0.00  0.00    +0.000 C 
ATOM     14  C   UNL     1       6.451   6.267  18.030  0.00  0.00    +0.000 C 
ATOM     15  C   UNL     1       7.232   4.991  17.760  0.00  0.00    +0.000 C 
ATOM     16  O   UNL     1       6.605   3.961  18.527  0.00  0.00    +0.000 OA
ATOM     17  C   UNL     1       5.336   4.459  19.005  0.00  0.00    +0.000 C 
BRANCH  17  18
ATOM     18  C   UNL     1       4.334   3.345  18.982  0.00  0.00    +0.000 C 
ATOM     19  C   UNL     1       4.442   2.211  19.978  0.00  0.00    +0.000 C 
ATOM     20  C   UNL     1       3.324   3.203  20.102  0.00  0.00    +0.000 C 
ENDBRANCH  17  18
ENDBRANCH   3  12
TORSDOF 3
ENDMDL
MODEL 9
REMARK VINA RESULT:      -6.3      3.940      6.697
REMARK  Name = 
REMARK  5 active torsions:
REMARK  status: ('A' for Active; 'I' for Inactive)
REMARK    1  A    between atoms: C_1  and  C_2
REMARK    2  A    between atoms: C_7  and  C_8
REMARK    3  A    between atoms: N_10  and  C_11
REMARK    4  A    between atoms: C_11  and  C_12
REMARK    5  A    between atoms: C_16  and  C_17
REMARK                            x       y       z     vdW  Elec       q    Type
REMARK                         _______ _______ _______ _____ _____    ______ ____
ROOT
ATOM      1  C   UNL     1       2.491   6.695  19.497  0.00  0.00    +0.000 C 
ATOM      2  O   UNL     1       3.704   6.645  19.662  0.00  0.00    +0.000 OA
ATOM      3  N   UNL     1       1.792   5.688  18.856  0.00  0.00    +0.000 N 
ATOM      4  H   UNL     1       0.831   5.848  18.596  0.00  0.00    +0.000 HD
ENDROOT
BRANCH   1  11
ATOM      5  C   UNL     1       1.901   9.347  17.858  0.00  0.00    +0.000 C 
ATOM      6  C   UNL     1       1.510   8.969  19.239  0.00  0.00    +0.000 A 
ATOM      7  O   UNL     1       0.808   9.894  19.941  0.00  0.00    +0.000 OA
ATOM      8  C   UNL     1       0.575   9.366  21.168  0.00  0.00    +0.000 A 
ATOM      9 BR   UNL     1      -0.332  10.268  22.526  0.00  0.00    +0.000 Br
ATOM     10  C   UNL     1       1.112   8.097  21.259  0.00  0.00    +0.000 A 
ATOM     11  C   UNL     1       1.733   7.833  20.007  0.00  0.00    +0.000 A 
ENDBRANCH   1  11
BRANCH   3  12
ATOM     12  C   UNL     1       2.500   4.504  18.313  0.00  0.00    +0.000 C 
ATOM     13  C   UNL     1       1.571   3.711  17.360  0.00  0.00    +0.000 C 
ATOM     14  C   UNL     1       3.734   4.903  17.489  0.00  0.00    +0.000 C 
ATOM     15  C   UNL     1       4.560   3.628  17.502  0.00  0.00    +0.000 C 
ATOM     16  O   UNL     1       4.343   3.016  18.776  0.00  0.00    +0.000 OA
ATOM     17  C   UNL     1       3.227   3.675  19.411  0.00  0.00    +0.000 C 
BRANCH  17  18
ATOM     18  C   UNL     1       2.426   2.660  20.169  0.00  0.00    +0.000 C 
ATOM     19  C   UNL     1       2.517   2.599  21.678  0.00  0.00    +0.000 C 
ATOM     20  C   UNL     1       1.259   3.094  21.030  0.00  0.00    +0.000 C 
ENDBRANCH  17  18
ENDBRANCH   3  12
TORSDOF 3
ENDMDL
