MODEL 1
REMARK VINA RESULT:      -6.2      0.000      0.000
REMARK  Name = 
REMARK  6 active torsions:
REMARK  status: ('A' for Active; 'I' for Inactive)
REMARK    1  A    between atoms: C_1  and  C_2
REMARK    2  A    between atoms: C_2  and  C_3
REMARK    3  A    between atoms: C_2  and  C_4
REMARK    4  A    between atoms: C_2  and  C_5
REMARK    5  A    between atoms: C_16  and  C_17
REMARK    6  A    between atoms: C_17  and  N_18
REMARK                            x       y       z     vdW  Elec       q    Type
REMARK                         _______ _______ _______ _____ _____    ______ ____
ROOT
ATOM      1  C   UNL     1       3.549   4.096  19.342  0.00  0.00    +0.000 C 
ATOM      2  C   UNL     1       3.177   3.449  17.992  0.00  0.00    +0.000 C 
ATOM      3  C   UNL     1       4.399   3.015  17.193  0.00  0.00    +0.000 C 
ATOM      4  C   UNL     1       5.335   4.195  16.927  0.00  0.00    +0.000 C 
ATOM      5  C   UNL     1       5.812   4.740  18.273  0.00  0.00    +0.000 C 
ATOM      6  C   UNL     1       4.641   5.184  19.158  0.00  0.00    +0.000 C 
ATOM      7  O   UNL     1       4.619   5.213  16.227  0.00  0.00    +0.000 OA
ATOM      8  O   UNL     1       5.292   5.375  14.944  0.00  0.00    +0.000 OA
ATOM      9  C   UNL     1       6.200   4.282  14.846  0.00  0.00    +0.000 C 
ATOM     10  C   UNL     1       5.588   3.188  13.959  0.00  0.00    +0.000 C 
ATOM     11  C   UNL     1       5.446   3.619  12.500  0.00  0.00    +0.000 C 
ATOM     12  C   UNL     1       6.765   4.122  11.900  0.00  0.00    +0.000 C 
ATOM     13  C   UNL     1       7.347   5.234  12.792  0.00  0.00    +0.000 C 
ATOM     14  C   UNL     1       7.512   4.801  14.252  0.00  0.00    +0.000 C 
ATOM     15  O   UNL     1       6.445   3.768  16.151  0.00  0.00    +0.000 OA
ENDROOT
BRANCH   1  17
ATOM     16  C   UNL     1       0.992   3.990  19.547  0.00  0.00    +0.000 C 
ATOM     17  C   UNL     1       2.283   4.604  20.135  0.00  0.00    +0.000 C 
ATOM     18  C   UNL     1       2.133   6.140  20.097  0.00  0.00    +0.000 C 
ATOM     19  C   UNL     1       2.360   4.167  21.613  0.00  0.00    +0.000 C 
ENDBRANCH   1  17
BRANCH  12  20
ATOM     20  C   UNL     1       7.738   2.945  11.669  0.00  0.00    +0.000 C 
BRANCH  20  21
ATOM     21  N   UNL     1       7.036   1.730  11.277  0.00  0.00    +0.000 NA
ATOM     22  H   UNL     1       6.232   1.970  10.700  0.00  0.00    +0.000 HD
ATOM     23  H   UNL     1       6.667   1.270  12.107  0.00  0.00    +0.000 HD
ENDBRANCH  20  21
ENDBRANCH  12  20
TORSDOF 3
ENDMDL
MODEL 2
REMARK VINA RESULT:      -6.2      4.280      6.448
REMARK  Name = 
REMARK  6 active torsions:
REMARK  status: ('A' for Active; 'I' for Inactive)
REMARK    1  A    between atoms: C_1  and  C_2
REMARK    2  A    between atoms: C_2  and  C_3
REMARK    3  A    between atoms: C_2  and  C_4
REMARK    4  A    between atoms: C_2  and  C_5
REMARK    5  A    between atoms: C_16  and  C_17
REMARK    6  A    between atoms: C_17  and  N_18
REMARK                            x       y       z     vdW  Elec       q    Type
REMARK                         _______ _______ _______ _____ _____    ______ ____
ROOT
ATOM      1  C   UNL     1       1.263   9.709  19.106  0.00  0.00    +0.000 C 
ATOM      2  C   UNL     1       1.081   8.519  20.071  0.00  0.00    +0.000 C 
ATOM      3  C   UNL     1       2.288   7.589  20.090  0.00  0.00    +0.000 C 
ATOM      4  C   UNL     1       2.590   7.044  18.694  0.00  0.00    +0.000 C 
ATOM      5  C   UNL     1       2.909   8.225  17.778  0.00  0.00    +0.000 C 
ATOM      6  C   UNL     1       1.752   9.229  17.714  0.00  0.00    +0.000 C 
ATOM      7  O   UNL     1       1.440   6.356  18.202  0.00  0.00    +0.000 OA
ATOM      8  O   UNL     1       1.850   4.971  17.999  0.00  0.00    +0.000 OA
ATOM      9  C   UNL     1       3.128   4.855  18.617  0.00  0.00    +0.000 C 
ATOM     10  C   UNL     1       2.969   4.209  20.000  0.00  0.00    +0.000 C 
ATOM     11  C   UNL     1       2.516   2.752  19.925  0.00  0.00    +0.000 C 
ATOM     12  C   UNL     1       3.423   1.894  19.032  0.00  0.00    +0.000 C 
ATOM     13  C   UNL     1       3.547   2.549  17.643  0.00  0.00    +0.000 C 
ATOM     14  C   UNL     1       4.022   4.003  17.711  0.00  0.00    +0.000 C 
ATOM     15  O   UNL     1       3.695   6.154  18.749  0.00  0.00    +0.000 OA
ENDROOT
BRANCH   1  17
ATOM     16  C   UNL     1      -0.741  10.652  20.405  0.00  0.00    +0.000 C 
ATOM     17  C   UNL     1      -0.016  10.631  19.041  0.00  0.00    +0.000 C 
ATOM     18  C   UNL     1      -1.031  10.164  17.976  0.00  0.00    +0.000 C 
ATOM     19  C   UNL     1       0.383  12.086  18.717  0.00  0.00    +0.000 C 
ENDBRANCH   1  17
BRANCH  12  20
ATOM     20  C   UNL     1       4.783   1.647  19.721  0.00  0.00    +0.000 C 
BRANCH  20  21
ATOM     21  N   UNL     1       4.694   1.805  21.166  0.00  0.00    +0.000 NA
ATOM     22  H   UNL     1       4.669   0.890  21.611  0.00  0.00    +0.000 HD
ATOM     23  H   UNL     1       3.816   2.265  21.404  0.00  0.00    +0.000 HD
ENDBRANCH  20  21
ENDBRANCH  12  20
TORSDOF 3
ENDMDL
MODEL 3
REMARK VINA RESULT:      -6.1      4.153      6.487
REMARK  Name = 
REMARK  6 active torsions:
REMARK  status: ('A' for Active; 'I' for Inactive)
REMARK    1  A    between atoms: C_1  and  C_2
REMARK    2  A    between atoms: C_2  and  C_3
REMARK    3  A    between atoms: C_2  and  C_4
REMARK    4  A    between atoms: C_2  and  C_5
REMARK    5  A    between atoms: C_16  and  C_17
REMARK    6  A    between atoms: C_17  and  N_18
REMARK                            x       y       z     vdW  Elec       q    Type
REMARK                         _______ _______ _______ _____ _____    ______ ____
ROOT
ATOM      1  C   UNL     1       1.317  10.058  19.250  0.00  0.00    +0.000 C 
ATOM      2  C   UNL     1       0.921   8.818  20.078  0.00  0.00    +0.000 C 
ATOM      3  C   UNL     1       2.009   7.752  20.096  0.00  0.00    +0.000 C 
ATOM      4  C   UNL     1       2.364   7.299  18.679  0.00  0.00    +0.000 C 
ATOM      5  C   UNL     1       2.891   8.509  17.908  0.00  0.00    +0.000 C 
ATOM      6  C   UNL     1       1.865   9.646  17.857  0.00  0.00    +0.000 C 
ATOM      7  O   UNL     1       1.190   6.800  18.039  0.00  0.00    +0.000 OA
ATOM      8  O   UNL     1       1.457   5.399  17.733  0.00  0.00    +0.000 OA
ATOM      9  C   UNL     1       2.657   5.076  18.429  0.00  0.00    +0.000 C 
ATOM     10  C   UNL     1       2.310   4.335  19.728  0.00  0.00    +0.000 C 
ATOM     11  C   UNL     1       1.703   2.955  19.478  0.00  0.00    +0.000 C 
ATOM     12  C   UNL     1       2.579   2.077  18.575  0.00  0.00    +0.000 C 
ATOM     13  C   UNL     1       2.894   2.831  17.270  0.00  0.00    +0.000 C 
ATOM     14  C   UNL     1       3.522   4.206  17.513  0.00  0.00    +0.000 C 
ATOM     15  O   UNL     1       3.354   6.281  18.728  0.00  0.00    +0.000 OA
ENDROOT
BRANCH   1  17
ATOM     16  C   UNL     1       0.692  12.465  18.616  0.00  0.00    +0.000 C 
ATOM     17  C   UNL     1       0.160  11.129  19.180  0.00  0.00    +0.000 C 
ATOM     18  C   UNL     1      -0.467  11.417  20.560  0.00  0.00    +0.000 C 
ATOM     19  C   UNL     1      -0.961  10.651  18.234  0.00  0.00    +0.000 C 
ENDBRANCH   1  17
BRANCH  12  20
ATOM     20  C   UNL     1       3.840   1.608  19.335  0.00  0.00    +0.000 C 
BRANCH  20  21
ATOM     21  N   UNL     1       4.484   0.482  18.672  0.00  0.00    +0.000 NA
ATOM     22  H   UNL     1       4.050  -0.387  18.974  0.00  0.00    +0.000 HD
ATOM     23  H   UNL     1       5.460   0.432  18.961  0.00  0.00    +0.000 HD
ENDBRANCH  20  21
ENDBRANCH  12  20
TORSDOF 3
ENDMDL
MODEL 4
REMARK VINA RESULT:      -6.0      9.859     11.196
REMARK  Name = 
REMARK  6 active torsions:
REMARK  status: ('A' for Active; 'I' for Inactive)
REMARK    1  A    between atoms: C_1  and  C_2
REMARK    2  A    between atoms: C_2  and  C_3
REMARK    3  A    between atoms: C_2  and  C_4
REMARK    4  A    between atoms: C_2  and  C_5
REMARK    5  A    between atoms: C_16  and  C_17
REMARK    6  A    between atoms: C_17  and  N_18
REMARK                            x       y       z     vdW  Elec       q    Type
REMARK                         _______ _______ _______ _____ _____    ______ ____
ROOT
ATOM      1  C   UNL     1       6.990  13.608  24.759  0.00  0.00    +0.000 C 
ATOM      2  C   UNL     1       8.496  13.410  24.491  0.00  0.00    +0.000 C 
ATOM      3  C   UNL     1       8.928  13.961  23.138  0.00  0.00    +0.000 C 
ATOM      4  C   UNL     1       8.141  13.315  21.999  0.00  0.00    +0.000 C 
ATOM      5  C   UNL     1       6.660  13.638  22.196  0.00  0.00    +0.000 C 
ATOM      6  C   UNL     1       6.141  13.136  23.549  0.00  0.00    +0.000 C 
ATOM      7  O   UNL     1       8.330  11.900  22.042  0.00  0.00    +0.000 OA
ATOM      8  O   UNL     1       8.973  11.537  20.784  0.00  0.00    +0.000 OA
ATOM      9  C   UNL     1       9.360  12.768  20.181  0.00  0.00    +0.000 C 
ATOM     10  C   UNL     1      10.854  13.013  20.437  0.00  0.00    +0.000 C 
ATOM     11  C   UNL     1      11.751  12.007  19.718  0.00  0.00    +0.000 C 
ATOM     12  C   UNL     1      11.469  11.932  18.212  0.00  0.00    +0.000 C 
ATOM     13  C   UNL     1       9.970  11.661  17.980  0.00  0.00    +0.000 C 
ATOM     14  C   UNL     1       9.066  12.679  18.681  0.00  0.00    +0.000 C 
ATOM     15  O   UNL     1       8.589  13.821  20.750  0.00  0.00    +0.000 OA
ENDROOT
BRANCH   1  17
ATOM     16  C   UNL     1       6.276  11.460  25.971  0.00  0.00    +0.000 C 
ATOM     17  C   UNL     1       6.535  12.975  26.131  0.00  0.00    +0.000 C 
ATOM     18  C   UNL     1       5.245  13.617  26.684  0.00  0.00    +0.000 C 
ATOM     19  C   UNL     1       7.643  13.135  27.193  0.00  0.00    +0.000 C 
ENDBRANCH   1  17
BRANCH  12  20
ATOM     20  C   UNL     1      11.982  13.204  17.501  0.00  0.00    +0.000 C 
BRANCH  20  21
ATOM     21  N   UNL     1      11.419  13.341  16.164  0.00  0.00    +0.000 NA
ATOM     22  H   UNL     1      10.932  12.486  15.908  0.00  0.00    +0.000 HD
ATOM     23  H   UNL     1      12.174  13.455  15.489  0.00  0.00    +0.000 HD
ENDBRANCH  20  21
ENDBRANCH  12  20
TORSDOF 3
ENDMDL
MODEL 5
REMARK VINA RESULT:      -6.0      5.357      7.940
REMARK  Name = 
REMARK  6 active torsions:
REMARK  status: ('A' for Active; 'I' for Inactive)
REMARK    1  A    between atoms: C_1  and  C_2
REMARK    2  A    between atoms: C_2  and  C_3
REMARK    3  A    between atoms: C_2  and  C_4
REMARK    4  A    between atoms: C_2  and  C_5
REMARK    5  A    between atoms: C_16  and  C_17
REMARK    6  A    between atoms: C_17  and  N_18
REMARK                            x       y       z     vdW  Elec       q    Type
REMARK                         _______ _______ _______ _____ _____    ______ ____
ROOT
ATOM      1  C   UNL     1       3.129   4.774  17.989  0.00  0.00    +0.000 C 
ATOM      2  C   UNL     1       1.675   5.273  18.130  0.00  0.00    +0.000 C 
ATOM      3  C   UNL     1       1.456   6.633  17.479  0.00  0.00    +0.000 C 
ATOM      4  C   UNL     1       2.394   7.687  18.069  0.00  0.00    +0.000 C 
ATOM      5  C   UNL     1       3.834   7.252  17.797  0.00  0.00    +0.000 C 
ATOM      6  C   UNL     1       4.139   5.876  18.401  0.00  0.00    +0.000 C 
ATOM      7  O   UNL     1       2.178   7.769  19.478  0.00  0.00    +0.000 OA
ATOM      8  O   UNL     1       1.722   9.130  19.741  0.00  0.00    +0.000 OA
ATOM      9  C   UNL     1       1.448   9.696  18.463  0.00  0.00    +0.000 C 
ATOM     10  C   UNL     1      -0.063   9.646  18.197  0.00  0.00    +0.000 C 
ATOM     11  C   UNL     1      -0.860  10.556  19.129  0.00  0.00    +0.000 C 
ATOM     12  C   UNL     1      -0.360  12.007  19.111  0.00  0.00    +0.000 C 
ATOM     13  C   UNL     1       1.152  12.034  19.405  0.00  0.00    +0.000 C 
ATOM     14  C   UNL     1       1.959  11.140  18.459  0.00  0.00    +0.000 C 
ATOM     15  O   UNL     1       2.143   8.950  17.469  0.00  0.00    +0.000 OA
ENDROOT
BRANCH   1  17
ATOM     16  C   UNL     1       2.327   3.197  19.849  0.00  0.00    +0.000 C 
ATOM     17  C   UNL     1       3.365   3.397  18.723  0.00  0.00    +0.000 C 
ATOM     18  C   UNL     1       4.770   3.293  19.354  0.00  0.00    +0.000 C 
ATOM     19  C   UNL     1       3.196   2.223  17.736  0.00  0.00    +0.000 C 
ENDBRANCH   1  17
BRANCH  12  20
ATOM     20  C   UNL     1      -0.742  12.695  17.782  0.00  0.00    +0.000 C 
BRANCH  20  21
ATOM     21  N   UNL     1      -1.937  12.107  17.192  0.00  0.00    +0.000 NA
ATOM     22  H   UNL     1      -1.969  11.112  17.402  0.00  0.00    +0.000 HD
ATOM     23  H   UNL     1      -1.887  12.185  16.178  0.00  0.00    +0.000 HD
ENDBRANCH  20  21
ENDBRANCH  12  20
TORSDOF 3
ENDMDL
MODEL 6
REMARK VINA RESULT:      -5.8     10.406     11.705
REMARK  Name = 
REMARK  6 active torsions:
REMARK  status: ('A' for Active; 'I' for Inactive)
REMARK    1  A    between atoms: C_1  and  C_2
REMARK    2  A    between atoms: C_2  and  C_3
REMARK    3  A    between atoms: C_2  and  C_4
REMARK    4  A    between atoms: C_2  and  C_5
REMARK    5  A    between atoms: C_16  and  C_17
REMARK    6  A    between atoms: C_17  and  N_18
REMARK                            x       y       z     vdW  Elec       q    Type
REMARK                         _______ _______ _______ _____ _____    ______ ____
ROOT
ATOM      1  C   UNL     1       7.569  14.185  24.800  0.00  0.00    +0.000 C 
ATOM      2  C   UNL     1       8.935  14.578  24.201  0.00  0.00    +0.000 C 
ATOM      3  C   UNL     1       8.892  14.716  22.684  0.00  0.00    +0.000 C 
ATOM      4  C   UNL     1       8.423  13.420  22.022  0.00  0.00    +0.000 C 
ATOM      5  C   UNL     1       7.009  13.116  22.515  0.00  0.00    +0.000 C 
ATOM      6  C   UNL     1       6.952  12.980  24.042  0.00  0.00    +0.000 C 
ATOM      7  O   UNL     1       9.299  12.358  22.400  0.00  0.00    +0.000 OA
ATOM      8  O   UNL     1       9.905  11.872  21.165  0.00  0.00    +0.000 OA
ATOM      9  C   UNL     1       9.560  12.826  20.166  0.00  0.00    +0.000 C 
ATOM     10  C   UNL     1      10.747  13.772  19.932  0.00  0.00    +0.000 C 
ATOM     11  C   UNL     1      11.949  13.070  19.303  0.00  0.00    +0.000 C 
ATOM     12  C   UNL     1      11.590  12.326  18.009  0.00  0.00    +0.000 C 
ATOM     13  C   UNL     1      10.415  11.367  18.274  0.00  0.00    +0.000 C 
ATOM     14  C   UNL     1       9.199  12.069  18.885  0.00  0.00    +0.000 C 
ATOM     15  O   UNL     1       8.428  13.567  20.609  0.00  0.00    +0.000 OA
ENDROOT
BRANCH   1  17
ATOM     16  C   UNL     1       7.353  12.502  26.727  0.00  0.00    +0.000 C 
ATOM     17  C   UNL     1       7.635  13.978  26.363  0.00  0.00    +0.000 C 
ATOM     18  C   UNL     1       6.616  14.853  27.123  0.00  0.00    +0.000 C 
ATOM     19  C   UNL     1       9.044  14.314  26.893  0.00  0.00    +0.000 C 
ENDBRANCH   1  17
BRANCH  12  20
ATOM     20  C   UNL     1      11.321  13.329  16.866  0.00  0.00    +0.000 C 
BRANCH  20  21
ATOM     21  N   UNL     1      12.260  13.160  15.765  0.00  0.00    +0.000 NA
ATOM     22  H   UNL     1      11.890  12.484  15.100  0.00  0.00    +0.000 HD
ATOM     23  H   UNL     1      13.130  12.768  16.120  0.00  0.00    +0.000 HD
ENDBRANCH  20  21
ENDBRANCH  12  20
TORSDOF 3
ENDMDL
MODEL 7
REMARK VINA RESULT:      -5.8      2.631      4.371
REMARK  Name = 
REMARK  6 active torsions:
REMARK  status: ('A' for Active; 'I' for Inactive)
REMARK    1  A    between atoms: C_1  and  C_2
REMARK    2  A    between atoms: C_2  and  C_3
REMARK    3  A    between atoms: C_2  and  C_4
REMARK    4  A    between atoms: C_2  and  C_5
REMARK    5  A    between atoms: C_16  and  C_17
REMARK    6  A    between atoms: C_17  and  N_18
REMARK                            x       y       z     vdW  Elec       q    Type
REMARK                         _______ _______ _______ _____ _____    ______ ____
ROOT
ATOM      1  C   UNL     1       0.979   7.967  20.244  0.00  0.00    +0.000 C 
ATOM      2  C   UNL     1       1.933   8.551  19.181  0.00  0.00    +0.000 C 
ATOM      3  C   UNL     1       2.272   7.551  18.084  0.00  0.00    +0.000 C 
ATOM      4  C   UNL     1       2.903   6.285  18.663  0.00  0.00    +0.000 C 
ATOM      5  C   UNL     1       1.893   5.635  19.607  0.00  0.00    +0.000 C 
ATOM      6  C   UNL     1       1.476   6.582  20.739  0.00  0.00    +0.000 C 
ATOM      7  O   UNL     1       4.079   6.640  19.392  0.00  0.00    +0.000 OA
ATOM      8  O   UNL     1       5.190   5.971  18.725  0.00  0.00    +0.000 OA
ATOM      9  C   UNL     1       4.658   5.472  17.501  0.00  0.00    +0.000 C 
ATOM     10  C   UNL     1       5.036   6.422  16.356  0.00  0.00    +0.000 C 
ATOM     11  C   UNL     1       6.537   6.439  16.071  0.00  0.00    +0.000 C 
ATOM     12  C   UNL     1       7.107   5.036  15.816  0.00  0.00    +0.000 C 
ATOM     13  C   UNL     1       6.736   4.109  16.989  0.00  0.00    +0.000 C 
ATOM     14  C   UNL     1       5.230   4.072  17.265  0.00  0.00    +0.000 C 
ATOM     15  O   UNL     1       3.241   5.388  17.615  0.00  0.00    +0.000 OA
ENDROOT
BRANCH   1  17
ATOM     16  C   UNL     1       0.467  10.408  20.852  0.00  0.00    +0.000 C 
ATOM     17  C   UNL     1       0.685   8.985  21.414  0.00  0.00    +0.000 C 
ATOM     18  C   UNL     1       1.833   9.056  22.443  0.00  0.00    +0.000 C 
ATOM     19  C   UNL     1      -0.605   8.590  22.162  0.00  0.00    +0.000 C 
ENDBRANCH   1  17
BRANCH  12  20
ATOM     20  C   UNL     1       6.646   4.506  14.441  0.00  0.00    +0.000 C 
BRANCH  20  21
ATOM     21  N   UNL     1       7.370   5.138  13.347  0.00  0.00    +0.000 NA
ATOM     22  H   UNL     1       7.716   6.047  13.644  0.00  0.00    +0.000 HD
ATOM     23  H   UNL     1       6.731   5.312  12.573  0.00  0.00    +0.000 HD
ENDBRANCH  20  21
ENDBRANCH  12  20
TORSDOF 3
ENDMDL
MODEL 8
REMARK VINA RESULT:      -5.7     11.011     13.612
REMARK  Name = 
REMARK  6 active torsions:
REMARK  status: ('A' for Active; 'I' for Inactive)
REMARK    1  A    between atoms: C_1  and  C_2
REMARK    2  A    between atoms: C_2  and  C_3
REMARK    3  A    between atoms: C_2  and  C_4
REMARK    4  A    between atoms: C_2  and  C_5
REMARK    5  A    between atoms: C_16  and  C_17
REMARK    6  A    between atoms: C_17  and  N_18
REMARK                            x       y       z     vdW  Elec       q    Type
REMARK                         _______ _______ _______ _____ _____    ______ ____
ROOT
ATOM      1  C   UNL     1       9.872  12.834  19.975  0.00  0.00    +0.000 C 
ATOM      2  C   UNL     1       9.894  11.894  21.198  0.00  0.00    +0.000 C 
ATOM      3  C   UNL     1       8.516  11.709  21.822  0.00  0.00    +0.000 C 
ATOM      4  C   UNL     1       7.917  13.049  22.248  0.00  0.00    +0.000 C 
ATOM      5  C   UNL     1       7.765  13.923  21.003  0.00  0.00    +0.000 C 
ATOM      6  C   UNL     1       9.107  14.146  20.295  0.00  0.00    +0.000 C 
ATOM      7  O   UNL     1       8.800  13.685  23.173  0.00  0.00    +0.000 OA
ATOM      8  O   UNL     1       8.054  13.822  24.419  0.00  0.00    +0.000 OA
ATOM      9  C   UNL     1       6.876  13.040  24.249  0.00  0.00    +0.000 C 
ATOM     10  C   UNL     1       7.058  11.685  24.948  0.00  0.00    +0.000 C 
ATOM     11  C   UNL     1       7.145  11.809  26.468  0.00  0.00    +0.000 C 
ATOM     12  C   UNL     1       5.954  12.569  27.069  0.00  0.00    +0.000 C 
ATOM     13  C   UNL     1       5.806  13.933  26.371  0.00  0.00    +0.000 C 
ATOM     14  C   UNL     1       5.697  13.813  24.848  0.00  0.00    +0.000 C 
ATOM     15  O   UNL     1       6.650  12.843  22.857  0.00  0.00    +0.000 OA
ENDROOT
BRANCH   1  17
ATOM     16  C   UNL     1      12.309  12.031  19.925  0.00  0.00    +0.000 C 
ATOM     17  C   UNL     1      11.311  13.075  19.375  0.00  0.00    +0.000 C 
ATOM     18  C   UNL     1      11.866  14.476  19.705  0.00  0.00    +0.000 C 
ATOM     19  C   UNL     1      11.289  12.918  17.840  0.00  0.00    +0.000 C 
ENDBRANCH   1  17
BRANCH  12  20
ATOM     20  C   UNL     1       4.675  11.704  27.010  0.00  0.00    +0.000 C 
BRANCH  20  21
ATOM     21  N   UNL     1       3.720  12.080  28.044  0.00  0.00    +0.000 NA
ATOM     22  H   UNL     1       2.977  11.386  28.093  0.00  0.00    +0.000 HD
ATOM     23  H   UNL     1       3.275  12.960  27.790  0.00  0.00    +0.000 HD
ENDBRANCH  20  21
ENDBRANCH  12  20
TORSDOF 3
ENDMDL
MODEL 9
REMARK VINA RESULT:      -5.6     10.133     11.342
REMARK  Name = 
REMARK  6 active torsions:
REMARK  status: ('A' for Active; 'I' for Inactive)
REMARK    1  A    between atoms: C_1  and  C_2
REMARK    2  A    between atoms: C_2  and  C_3
REMARK    3  A    between atoms: C_2  and  C_4
REMARK    4  A    between atoms: C_2  and  C_5
REMARK    5  A    between atoms: C_16  and  C_17
REMARK    6  A    between atoms: C_17  and  N_18
REMARK                            x       y       z     vdW  Elec       q    Type
REMARK                         _______ _______ _______ _____ _____    ______ ____
ROOT
ATOM      1  C   UNL     1       7.642  12.540  25.296  0.00  0.00    +0.000 C 
ATOM      2  C   UNL     1       7.759  11.610  24.070  0.00  0.00    +0.000 C 
ATOM      3  C   UNL     1       8.916  11.988  23.154  0.00  0.00    +0.000 C 
ATOM      4  C   UNL     1       8.785  13.430  22.663  0.00  0.00    +0.000 C 
ATOM      5  C   UNL     1       8.815  14.355  23.878  0.00  0.00    +0.000 C 
ATOM      6  C   UNL     1       7.691  14.031  24.871  0.00  0.00    +0.000 C 
ATOM      7  O   UNL     1       7.540  13.580  21.979  0.00  0.00    +0.000 OA
ATOM      8  O   UNL     1       7.871  13.948  20.607  0.00  0.00    +0.000 OA
ATOM      9  C   UNL     1       9.276  13.747  20.484  0.00  0.00    +0.000 C 
ATOM     10  C   UNL     1       9.539  12.404  19.787  0.00  0.00    +0.000 C 
ATOM     11  C   UNL     1       9.085  12.394  18.328  0.00  0.00    +0.000 C 
ATOM     12  C   UNL     1       9.682  13.550  17.514  0.00  0.00    +0.000 C 
ATOM     13  C   UNL     1       9.384  14.886  18.218  0.00  0.00    +0.000 C 
ATOM     14  C   UNL     1       9.857  14.910  19.675  0.00  0.00    +0.000 C 
ATOM     15  O   UNL     1       9.856  13.742  21.784  0.00  0.00    +0.000 OA
ENDROOT
BRANCH   1  17
ATOM     16  C   UNL     1       6.868  11.751  27.613  0.00  0.00    +0.000 C 
ATOM     17  C   UNL     1       6.402  12.184  26.205  0.00  0.00    +0.000 C 
ATOM     18  C   UNL     1       5.545  11.042  25.620  0.00  0.00    +0.000 C 
ATOM     19  C   UNL     1       5.496  13.419  26.388  0.00  0.00    +0.000 C 
ENDBRANCH   1  17
BRANCH  12  20
ATOM     20  C   UNL     1      11.186  13.310  17.258  0.00  0.00    +0.000 C 
BRANCH  20  21
ATOM     21  N   UNL     1      11.525  13.454  15.848  0.00  0.00    +0.000 NA
ATOM     22  H   UNL     1      11.265  14.383  15.526  0.00  0.00    +0.000 HD
ATOM     23  H   UNL     1      10.976  12.795  15.299  0.00  0.00    +0.000 HD
ENDBRANCH  20  21
ENDBRANCH  12  20
TORSDOF 3
ENDMDL
