MODEL 1
REMARK VINA RESULT:      -6.7      0.000      0.000
REMARK  Name = 
REMARK  9 active torsions:
REMARK  status: ('A' for Active; 'I' for Inactive)
REMARK    1  A    between atoms: C_1  and  C_2
REMARK    2  A    between atoms: C_2  and  O_3
REMARK    3  A    between atoms: O_3  and  C_4
REMARK    4  A    between atoms: C_4  and  C_5
REMARK    5  A    between atoms: C_5  and  C_6
REMARK    6  A    between atoms: C_6  and  N_7
REMARK    7  A    between atoms: C_8  and  S_9
REMARK    8  A    between atoms: C_13  and  N_14
REMARK    9  A    between atoms: C_15  and  C_17
REMARK                            x       y       z     vdW  Elec       q    Type
REMARK                         _______ _______ _______ _____ _____    ______ ____
ROOT
ATOM      1  N   UNL     1       2.173   7.003  20.058  0.00  0.00    +0.000 NA
ATOM      2  C   UNL     1       2.223   5.752  19.730  0.00  0.00    +0.000 C 
ATOM      3  N   UNL     1       3.154   5.270  18.815  0.00  0.00    +0.000 N 
ATOM      4  C   UNL     1       2.951   4.095  17.964  0.00  0.00    +0.000 C 
ATOM      5  C   UNL     1       4.082   3.103  18.208  0.00  0.00    +0.000 C 
ATOM      6  C   UNL     1       5.444   3.747  17.930  0.00  0.00    +0.000 C 
ATOM      7  C   UNL     1       5.587   5.078  18.685  0.00  0.00    +0.000 C 
ATOM      8  C   UNL     1       4.378   6.006  18.507  0.00  0.00    +0.000 C 
ENDROOT
BRANCH   6   9
ATOM      9  N   UNL     1       5.682   3.916  16.500  0.00  0.00    +0.000 N 
ATOM     10  C   UNL     1       6.861   4.425  15.990  0.00  0.00    +0.000 C 
ATOM     11  O   UNL     1       7.775   4.821  16.707  0.00  0.00    +0.000 OA
ATOM     12  H   UNL     1       5.036   3.529  15.819  0.00  0.00    +0.000 HD
BRANCH  10  13
ATOM     13  C   UNL     1       6.916   4.444  14.541  0.00  0.00    +0.000 A 
ATOM     14  C   UNL     1       6.220   3.718  13.592  0.00  0.00    +0.000 A 
ATOM     15  C   UNL     1       6.684   4.148  12.327  0.00  0.00    +0.000 A 
ATOM     16  C   UNL     1       7.631   5.111  12.573  0.00  0.00    +0.000 A 
ATOM     17  O   UNL     1       7.783   5.302  13.910  0.00  0.00    +0.000 OA
ENDBRANCH  10  13
ENDBRANCH   6   9
BRANCH   2  18
ATOM     18  S   UNL     1       1.155   4.514  20.434  0.00  0.00    +0.000 S 
ATOM     19  H   UNL     1       0.752   5.160  21.527  0.00  0.00    +0.000 HD
ENDBRANCH   2  18
BRANCH   1  20
ATOM     20  C   UNL     1       1.185   7.495  21.021  0.00  0.00    +0.000 C 
BRANCH  20  21
ATOM     21  C   UNL     1       1.325   9.003  21.224  0.00  0.00    +0.000 C 
BRANCH  21  22
ATOM     22  C   UNL     1      -0.032   9.635  21.543  0.00  0.00    +0.000 C 
BRANCH  22  23
ATOM     23  O   UNL     1       0.026  10.293  22.810  0.00  0.00    +0.000 OA
BRANCH  23  25
ATOM     24  C   UNL     1      -1.292  12.283  22.666  0.00  0.00    +0.000 C 
ATOM     25  C   UNL     1      -1.230  10.858  23.180  0.00  0.00    +0.000 C 
ENDBRANCH  23  25
ENDBRANCH  22  23
ENDBRANCH  21  22
ENDBRANCH  20  21
ENDBRANCH   1  20
TORSDOF 8
ENDMDL
MODEL 2
REMARK VINA RESULT:      -6.7      1.306      1.447
REMARK  Name = 
REMARK  9 active torsions:
REMARK  status: ('A' for Active; 'I' for Inactive)
REMARK    1  A    between atoms: C_1  and  C_2
REMARK    2  A    between atoms: C_2  and  O_3
REMARK    3  A    between atoms: O_3  and  C_4
REMARK    4  A    between atoms: C_4  and  C_5
REMARK    5  A    between atoms: C_5  and  C_6
REMARK    6  A    between atoms: C_6  and  N_7
REMARK    7  A    between atoms: C_8  and  S_9
REMARK    8  A    between atoms: C_13  and  N_14
REMARK    9  A    between atoms: C_15  and  C_17
REMARK                            x       y       z     vdW  Elec       q    Type
REMARK                         _______ _______ _______ _____ _____    ______ ____
ROOT
ATOM      1  N   UNL     1       2.135   7.194  20.061  0.00  0.00    +0.000 NA
ATOM      2  C   UNL     1       2.220   5.940  19.754  0.00  0.00    +0.000 C 
ATOM      3  N   UNL     1       3.163   5.470  18.844  0.00  0.00    +0.000 N 
ATOM      4  C   UNL     1       2.994   4.276  18.013  0.00  0.00    +0.000 C 
ATOM      5  C   UNL     1       4.154   3.322  18.271  0.00  0.00    +0.000 C 
ATOM      6  C   UNL     1       5.497   4.002  17.979  0.00  0.00    +0.000 C 
ATOM      7  C   UNL     1       5.601   5.348  18.712  0.00  0.00    +0.000 C 
ATOM      8  C   UNL     1       4.365   6.238  18.521  0.00  0.00    +0.000 C 
ENDROOT
BRANCH   6   9
ATOM      9  N   UNL     1       5.726   4.154  16.545  0.00  0.00    +0.000 N 
ATOM     10  C   UNL     1       6.975   4.400  16.008  0.00  0.00    +0.000 C 
ATOM     11  O   UNL     1       7.974   4.560  16.701  0.00  0.00    +0.000 OA
ATOM     12  H   UNL     1       4.991   3.942  15.879  0.00  0.00    +0.000 HD
BRANCH  10  13
ATOM     13  C   UNL     1       6.992   4.448  14.558  0.00  0.00    +0.000 A 
ATOM     14  C   UNL     1       6.273   3.739  13.614  0.00  0.00    +0.000 A 
ATOM     15  C   UNL     1       6.703   4.195  12.345  0.00  0.00    +0.000 A 
ATOM     16  C   UNL     1       7.655   5.154  12.586  0.00  0.00    +0.000 A 
ATOM     17  O   UNL     1       7.842   5.319  13.922  0.00  0.00    +0.000 OA
ENDBRANCH  10  13
ENDBRANCH   6   9
BRANCH   2  18
ATOM     18  S   UNL     1       1.192   4.683  20.481  0.00  0.00    +0.000 S 
ATOM     19  H   UNL     1       0.493   5.430  21.335  0.00  0.00    +0.000 HD
ENDBRANCH   2  18
BRANCH   1  20
ATOM     20  C   UNL     1       1.134   7.672  21.018  0.00  0.00    +0.000 C 
BRANCH  20  21
ATOM     21  C   UNL     1       0.970   9.189  20.925  0.00  0.00    +0.000 C 
BRANCH  21  22
ATOM     22  C   UNL     1       0.818   9.628  19.466  0.00  0.00    +0.000 C 
BRANCH  22  23
ATOM     23  O   UNL     1      -0.525  10.054  19.227  0.00  0.00    +0.000 OA
BRANCH  23  25
ATOM     24  C   UNL     1       0.137  12.328  18.898  0.00  0.00    +0.000 C 
ATOM     25  C   UNL     1      -0.755  11.386  19.682  0.00  0.00    +0.000 C 
ENDBRANCH  23  25
ENDBRANCH  22  23
ENDBRANCH  21  22
ENDBRANCH  20  21
ENDBRANCH   1  20
TORSDOF 8
ENDMDL
MODEL 3
REMARK VINA RESULT:      -6.6      1.470      1.723
REMARK  Name = 
REMARK  9 active torsions:
REMARK  status: ('A' for Active; 'I' for Inactive)
REMARK    1  A    between atoms: C_1  and  C_2
REMARK    2  A    between atoms: C_2  and  O_3
REMARK    3  A    between atoms: O_3  and  C_4
REMARK    4  A    between atoms: C_4  and  C_5
REMARK    5  A    between atoms: C_5  and  C_6
REMARK    6  A    between atoms: C_6  and  N_7
REMARK    7  A    between atoms: C_8  and  S_9
REMARK    8  A    between atoms: C_13  and  N_14
REMARK    9  A    between atoms: C_15  and  C_17
REMARK                            x       y       z     vdW  Elec       q    Type
REMARK                         _______ _______ _______ _____ _____    ______ ____
ROOT
ATOM      1  N   UNL     1       2.209   7.952  19.035  0.00  0.00    +0.000 NA
ATOM      2  C   UNL     1       2.546   6.710  19.169  0.00  0.00    +0.000 C 
ATOM      3  N   UNL     1       3.349   6.063  18.234  0.00  0.00    +0.000 N 
ATOM      4  C   UNL     1       3.314   4.624  17.961  0.00  0.00    +0.000 C 
ATOM      5  C   UNL     1       4.709   4.045  18.161  0.00  0.00    +0.000 C 
ATOM      6  C   UNL     1       5.727   4.746  17.254  0.00  0.00    +0.000 C 
ATOM      7  C   UNL     1       5.640   6.272  17.407  0.00  0.00    +0.000 C 
ATOM      8  C   UNL     1       4.206   6.808  17.313  0.00  0.00    +0.000 C 
ENDROOT
BRANCH   6   9
ATOM      9  N   UNL     1       5.581   4.339  15.860  0.00  0.00    +0.000 N 
ATOM     10  C   UNL     1       6.542   4.592  14.900  0.00  0.00    +0.000 C 
ATOM     11  O   UNL     1       7.566   5.224  15.139  0.00  0.00    +0.000 OA
ATOM     12  H   UNL     1       4.823   3.726  15.578  0.00  0.00    +0.000 HD
BRANCH  10  13
ATOM     13  C   UNL     1       6.228   4.043  13.594  0.00  0.00    +0.000 A 
ATOM     14  C   UNL     1       7.045   3.631  12.558  0.00  0.00    +0.000 A 
ATOM     15  C   UNL     1       6.194   3.186  11.519  0.00  0.00    +0.000 A 
ATOM     16  C   UNL     1       4.911   3.347  11.979  0.00  0.00    +0.000 A 
ATOM     17  O   UNL     1       4.915   3.866  13.235  0.00  0.00    +0.000 OA
ENDBRANCH  10  13
ENDBRANCH   6   9
BRANCH   2  18
ATOM     18  S   UNL     1       2.070   5.712  20.563  0.00  0.00    +0.000 S 
ATOM     19  H   UNL     1       3.073   5.994  21.394  0.00  0.00    +0.000 HD
ENDBRANCH   2  18
BRANCH   1  20
ATOM     20  C   UNL     1       1.360   8.617  20.027  0.00  0.00    +0.000 C 
BRANCH  20  21
ATOM     21  C   UNL     1       0.626   9.806  19.408  0.00  0.00    +0.000 C 
BRANCH  21  22
ATOM     22  C   UNL     1       0.871  11.077  20.224  0.00  0.00    +0.000 C 
BRANCH  22  23
ATOM     23  O   UNL     1       0.874  10.765  21.618  0.00  0.00    +0.000 OA
BRANCH  23  25
ATOM     24  C   UNL     1      -0.608   9.854  23.258  0.00  0.00    +0.000 C 
ATOM     25  C   UNL     1      -0.413  10.931  22.209  0.00  0.00    +0.000 C 
ENDBRANCH  23  25
ENDBRANCH  22  23
ENDBRANCH  21  22
ENDBRANCH  20  21
ENDBRANCH   1  20
TORSDOF 8
ENDMDL
MODEL 4
REMARK VINA RESULT:      -6.5      1.757      2.125
REMARK  Name = 
REMARK  9 active torsions:
REMARK  status: ('A' for Active; 'I' for Inactive)
REMARK    1  A    between atoms: C_1  and  C_2
REMARK    2  A    between atoms: C_2  and  O_3
REMARK    3  A    between atoms: O_3  and  C_4
REMARK    4  A    between atoms: C_4  and  C_5
REMARK    5  A    between atoms: C_5  and  C_6
REMARK    6  A    between atoms: C_6  and  N_7
REMARK    7  A    between atoms: C_8  and  S_9
REMARK    8  A    between atoms: C_13  and  N_14
REMARK    9  A    between atoms: C_15  and  C_17
REMARK                            x       y       z     vdW  Elec       q    Type
REMARK                         _______ _______ _______ _____ _____    ______ ____
ROOT
ATOM      1  N   UNL     1       2.173   7.292  19.608  0.00  0.00    +0.000 NA
ATOM      2  C   UNL     1       2.572   6.062  19.619  0.00  0.00    +0.000 C 
ATOM      3  N   UNL     1       3.501   5.583  18.700  0.00  0.00    +0.000 N 
ATOM      4  C   UNL     1       3.582   4.192  18.247  0.00  0.00    +0.000 C 
ATOM      5  C   UNL     1       4.984   3.661  18.518  0.00  0.00    +0.000 C 
ATOM      6  C   UNL     1       6.040   4.523  17.817  0.00  0.00    +0.000 C 
ATOM      7  C   UNL     1       5.844   6.011  18.150  0.00  0.00    +0.000 C 
ATOM      8  C   UNL     1       4.395   6.483  17.974  0.00  0.00    +0.000 C 
ENDROOT
BRANCH   6   9
ATOM      9  N   UNL     1       6.056   4.296  16.375  0.00  0.00    +0.000 N 
ATOM     10  C   UNL     1       6.901   4.974  15.518  0.00  0.00    +0.000 C 
ATOM     11  O   UNL     1       7.664   5.855  15.901  0.00  0.00    +0.000 OA
ATOM     12  H   UNL     1       5.540   3.522  15.969  0.00  0.00    +0.000 HD
BRANCH  10  13
ATOM     13  C   UNL     1       6.803   4.547  14.135  0.00  0.00    +0.000 A 
ATOM     14  C   UNL     1       7.571   4.857  13.028  0.00  0.00    +0.000 A 
ATOM     15  C   UNL     1       7.012   4.156  11.934  0.00  0.00    +0.000 A 
ATOM     16  C   UNL     1       5.941   3.457  12.433  0.00  0.00    +0.000 A 
ATOM     17  O   UNL     1       5.801   3.684  13.765  0.00  0.00    +0.000 OA
ENDBRANCH  10  13
ENDBRANCH   6   9
BRANCH   2  18
ATOM     18  S   UNL     1       2.026   4.868  20.821  0.00  0.00    +0.000 S 
ATOM     19  H   UNL     1       3.094   4.845  21.617  0.00  0.00    +0.000 HD
ENDBRANCH   2  18
BRANCH   1  20
ATOM     20  C   UNL     1       1.192   7.779  20.580  0.00  0.00    +0.000 C 
BRANCH  20  21
ATOM     21  C   UNL     1       0.910   9.267  20.373  0.00  0.00    +0.000 C 
BRANCH  21  22
ATOM     22  C   UNL     1       0.948   9.623  18.885  0.00  0.00    +0.000 C 
BRANCH  22  23
ATOM     23  O   UNL     1       0.250  10.850  18.664  0.00  0.00    +0.000 OA
BRANCH  23  25
ATOM     24  C   UNL     1      -1.641  10.027  17.454  0.00  0.00    +0.000 C 
ATOM     25  C   UNL     1      -1.165  10.684  18.734  0.00  0.00    +0.000 C 
ENDBRANCH  23  25
ENDBRANCH  22  23
ENDBRANCH  21  22
ENDBRANCH  20  21
ENDBRANCH   1  20
TORSDOF 8
ENDMDL
MODEL 5
REMARK VINA RESULT:      -6.4      1.455      1.736
REMARK  Name = 
REMARK  9 active torsions:
REMARK  status: ('A' for Active; 'I' for Inactive)
REMARK    1  A    between atoms: C_1  and  C_2
REMARK    2  A    between atoms: C_2  and  O_3
REMARK    3  A    between atoms: O_3  and  C_4
REMARK    4  A    between atoms: C_4  and  C_5
REMARK    5  A    between atoms: C_5  and  C_6
REMARK    6  A    between atoms: C_6  and  N_7
REMARK    7  A    between atoms: C_8  and  S_9
REMARK    8  A    between atoms: C_13  and  N_14
REMARK    9  A    between atoms: C_15  and  C_17
REMARK                            x       y       z     vdW  Elec       q    Type
REMARK                         _______ _______ _______ _____ _____    ______ ____
ROOT
ATOM      1  N   UNL     1       1.985   6.956  20.029  0.00  0.00    +0.000 NA
ATOM      2  C   UNL     1       2.418   5.740  19.949  0.00  0.00    +0.000 C 
ATOM      3  N   UNL     1       3.266   5.328  18.924  0.00  0.00    +0.000 N 
ATOM      4  C   UNL     1       3.341   3.960  18.406  0.00  0.00    +0.000 C 
ATOM      5  C   UNL     1       4.777   3.464  18.517  0.00  0.00    +0.000 C 
ATOM      6  C   UNL     1       5.735   4.387  17.756  0.00  0.00    +0.000 C 
ATOM      7  C   UNL     1       5.531   5.853  18.170  0.00  0.00    +0.000 C 
ATOM      8  C   UNL     1       4.058   6.285  18.155  0.00  0.00    +0.000 C 
ENDROOT
BRANCH   6   9
ATOM      9  N   UNL     1       5.616   4.219  16.311  0.00  0.00    +0.000 N 
ATOM     10  C   UNL     1       6.690   4.337  15.450  0.00  0.00    +0.000 C 
ATOM     11  O   UNL     1       7.814   4.645  15.834  0.00  0.00    +0.000 OA
ATOM     12  H   UNL     1       4.757   3.865  15.901  0.00  0.00    +0.000 HD
BRANCH  10  13
ATOM     13  C   UNL     1       6.366   4.063  14.063  0.00  0.00    +0.000 A 
ATOM     14  C   UNL     1       5.227   3.541  13.479  0.00  0.00    +0.000 A 
ATOM     15  C   UNL     1       5.468   3.491  12.086  0.00  0.00    +0.000 A 
ATOM     16  C   UNL     1       6.734   3.986  11.898  0.00  0.00    +0.000 A 
ATOM     17  O   UNL     1       7.292   4.337  13.087  0.00  0.00    +0.000 OA
ENDBRANCH  10  13
ENDBRANCH   6   9
BRANCH   2  18
ATOM     18  S   UNL     1       2.026   4.482  21.145  0.00  0.00    +0.000 S 
ATOM     19  H   UNL     1       2.368   5.121  22.263  0.00  0.00    +0.000 HD
ENDBRANCH   2  18
BRANCH   1  20
ATOM     20  C   UNL     1       1.091   7.372  21.112  0.00  0.00    +0.000 C 
BRANCH  20  21
ATOM     21  C   UNL     1       1.189   8.878  21.353  0.00  0.00    +0.000 C 
BRANCH  21  22
ATOM     22  C   UNL     1       0.180   9.633  20.484  0.00  0.00    +0.000 C 
BRANCH  22  23
ATOM     23  O   UNL     1       0.871  10.405  19.500  0.00  0.00    +0.000 OA
BRANCH  23  25
ATOM     24  C   UNL     1      -1.309  10.343  18.519  0.00  0.00    +0.000 C 
ATOM     25  C   UNL     1      -0.025  11.136  18.665  0.00  0.00    +0.000 C 
ENDBRANCH  23  25
ENDBRANCH  22  23
ENDBRANCH  21  22
ENDBRANCH  20  21
ENDBRANCH   1  20
TORSDOF 8
ENDMDL
MODEL 6
REMARK VINA RESULT:      -6.3      2.404      2.794
REMARK  Name = 
REMARK  9 active torsions:
REMARK  status: ('A' for Active; 'I' for Inactive)
REMARK    1  A    between atoms: C_1  and  C_2
REMARK    2  A    between atoms: C_2  and  O_3
REMARK    3  A    between atoms: O_3  and  C_4
REMARK    4  A    between atoms: C_4  and  C_5
REMARK    5  A    between atoms: C_5  and  C_6
REMARK    6  A    between atoms: C_6  and  N_7
REMARK    7  A    between atoms: C_8  and  S_9
REMARK    8  A    between atoms: C_13  and  N_14
REMARK    9  A    between atoms: C_15  and  C_17
REMARK                            x       y       z     vdW  Elec       q    Type
REMARK                         _______ _______ _______ _____ _____    ______ ____
ROOT
ATOM      1  N   UNL     1       2.310   8.157  18.442  0.00  0.00    +0.000 NA
ATOM      2  C   UNL     1       2.639   6.930  18.685  0.00  0.00    +0.000 C 
ATOM      3  N   UNL     1       3.424   6.192  17.804  0.00  0.00    +0.000 N 
ATOM      4  C   UNL     1       3.374   4.735  17.666  0.00  0.00    +0.000 C 
ATOM      5  C   UNL     1       4.767   4.164  17.901  0.00  0.00    +0.000 C 
ATOM      6  C   UNL     1       5.779   4.768  16.921  0.00  0.00    +0.000 C 
ATOM      7  C   UNL     1       5.706   6.303  16.933  0.00  0.00    +0.000 C 
ATOM      8  C   UNL     1       4.274   6.841  16.807  0.00  0.00    +0.000 C 
ENDROOT
BRANCH   6   9
ATOM      9  N   UNL     1       5.611   4.236  15.572  0.00  0.00    +0.000 N 
ATOM     10  C   UNL     1       6.496   4.502  14.545  0.00  0.00    +0.000 C 
ATOM     11  O   UNL     1       7.460   5.249  14.679  0.00  0.00    +0.000 OA
ATOM     12  H   UNL     1       4.907   3.530  15.380  0.00  0.00    +0.000 HD
BRANCH  10  13
ATOM     13  C   UNL     1       6.180   3.819  13.305  0.00  0.00    +0.000 A 
ATOM     14  C   UNL     1       6.990   3.192  12.377  0.00  0.00    +0.000 A 
ATOM     15  C   UNL     1       6.141   2.701  11.358  0.00  0.00    +0.000 A 
ATOM     16  C   UNL     1       4.865   3.052  11.720  0.00  0.00    +0.000 A 
ATOM     17  O   UNL     1       4.871   3.730  12.898  0.00  0.00    +0.000 OA
ENDBRANCH  10  13
ENDBRANCH   6   9
BRANCH   2  18
ATOM     18  S   UNL     1       2.174   6.070  20.172  0.00  0.00    +0.000 S 
ATOM     19  H   UNL     1       0.896   5.816  19.895  0.00  0.00    +0.000 HD
ENDBRANCH   2  18
BRANCH   1  20
ATOM     20  C   UNL     1       1.480   8.919  19.378  0.00  0.00    +0.000 C 
BRANCH  20  21
ATOM     21  C   UNL     1       0.662   9.980  18.644  0.00  0.00    +0.000 C 
BRANCH  21  22
ATOM     22  C   UNL     1      -0.504  10.461  19.510  0.00  0.00    +0.000 C 
BRANCH  22  23
ATOM     23  O   UNL     1      -1.735  10.284  18.806  0.00  0.00    +0.000 OA
BRANCH  23  25
ATOM     24  C   UNL     1      -2.878   9.864  16.748  0.00  0.00    +0.000 C 
ATOM     25  C   UNL     1      -1.529  10.051  17.414  0.00  0.00    +0.000 C 
ENDBRANCH  23  25
ENDBRANCH  22  23
ENDBRANCH  21  22
ENDBRANCH  20  21
ENDBRANCH   1  20
TORSDOF 8
ENDMDL
MODEL 7
REMARK VINA RESULT:      -6.3      1.266      1.389
REMARK  Name = 
REMARK  9 active torsions:
REMARK  status: ('A' for Active; 'I' for Inactive)
REMARK    1  A    between atoms: C_1  and  C_2
REMARK    2  A    between atoms: C_2  and  O_3
REMARK    3  A    between atoms: O_3  and  C_4
REMARK    4  A    between atoms: C_4  and  C_5
REMARK    5  A    between atoms: C_5  and  C_6
REMARK    6  A    between atoms: C_6  and  N_7
REMARK    7  A    between atoms: C_8  and  S_9
REMARK    8  A    between atoms: C_13  and  N_14
REMARK    9  A    between atoms: C_15  and  C_17
REMARK                            x       y       z     vdW  Elec       q    Type
REMARK                         _______ _______ _______ _____ _____    ______ ____
ROOT
ATOM      1  N   UNL     1       2.145   8.009  19.041  0.00  0.00    +0.000 NA
ATOM      2  C   UNL     1       2.503   6.775  19.190  0.00  0.00    +0.000 C 
ATOM      3  N   UNL     1       3.365   6.148  18.296  0.00  0.00    +0.000 N 
ATOM      4  C   UNL     1       3.375   4.709  18.021  0.00  0.00    +0.000 C 
ATOM      5  C   UNL     1       4.772   4.161  18.289  0.00  0.00    +0.000 C 
ATOM      6  C   UNL     1       5.818   4.886  17.435  0.00  0.00    +0.000 C 
ATOM      7  C   UNL     1       5.689   6.410  17.584  0.00  0.00    +0.000 C 
ATOM      8  C   UNL     1       4.249   6.914  17.419  0.00  0.00    +0.000 C 
ENDROOT
BRANCH   6   9
ATOM      9  N   UNL     1       5.750   4.479  16.035  0.00  0.00    +0.000 N 
ATOM     10  C   UNL     1       6.711   4.827  15.105  0.00  0.00    +0.000 C 
ATOM     11  O   UNL     1       7.665   5.548  15.377  0.00  0.00    +0.000 OA
ATOM     12  H   UNL     1       5.060   3.801  15.727  0.00  0.00    +0.000 HD
BRANCH  10  13
ATOM     13  C   UNL     1       6.487   4.261  13.788  0.00  0.00    +0.000 A 
ATOM     14  C   UNL     1       5.443   3.507  13.285  0.00  0.00    +0.000 A 
ATOM     15  C   UNL     1       5.756   3.226  11.934  0.00  0.00    +0.000 A 
ATOM     16  C   UNL     1       6.966   3.824  11.689  0.00  0.00    +0.000 A 
ATOM     17  O   UNL     1       7.423   4.455  12.802  0.00  0.00    +0.000 OA
ENDBRANCH  10  13
ENDBRANCH   6   9
BRANCH   2  18
ATOM     18  S   UNL     1       1.981   5.765  20.559  0.00  0.00    +0.000 S 
ATOM     19  H   UNL     1       0.798   6.323  20.813  0.00  0.00    +0.000 HD
ENDBRANCH   2  18
BRANCH   1  20
ATOM     20  C   UNL     1       1.233   8.654  19.990  0.00  0.00    +0.000 C 
BRANCH  20  21
ATOM     21  C   UNL     1       1.026  10.125  19.635  0.00  0.00    +0.000 C 
BRANCH  21  22
ATOM     22  C   UNL     1       0.767  10.955  20.894  0.00  0.00    +0.000 C 
BRANCH  22  23
ATOM     23  O   UNL     1      -0.628  10.943  21.204  0.00  0.00    +0.000 OA
BRANCH  23  25
ATOM     24  C   UNL     1      -1.877  11.636  23.122  0.00  0.00    +0.000 C 
ATOM     25  C   UNL     1      -1.023  12.089  21.954  0.00  0.00    +0.000 C 
ENDBRANCH  23  25
ENDBRANCH  22  23
ENDBRANCH  21  22
ENDBRANCH  20  21
ENDBRANCH   1  20
TORSDOF 8
ENDMDL
MODEL 8
REMARK VINA RESULT:      -6.2      1.755      1.970
REMARK  Name = 
REMARK  9 active torsions:
REMARK  status: ('A' for Active; 'I' for Inactive)
REMARK    1  A    between atoms: C_1  and  C_2
REMARK    2  A    between atoms: C_2  and  O_3
REMARK    3  A    between atoms: O_3  and  C_4
REMARK    4  A    between atoms: C_4  and  C_5
REMARK    5  A    between atoms: C_5  and  C_6
REMARK    6  A    between atoms: C_6  and  N_7
REMARK    7  A    between atoms: C_8  and  S_9
REMARK    8  A    between atoms: C_13  and  N_14
REMARK    9  A    between atoms: C_15  and  C_17
REMARK                            x       y       z     vdW  Elec       q    Type
REMARK                         _______ _______ _______ _____ _____    ______ ____
ROOT
ATOM      1  N   UNL     1       2.229   7.728  19.238  0.00  0.00    +0.000 NA
ATOM      2  C   UNL     1       2.557   6.479  19.319  0.00  0.00    +0.000 C 
ATOM      3  N   UNL     1       3.373   5.871  18.368  0.00  0.00    +0.000 N 
ATOM      4  C   UNL     1       3.333   4.447  18.027  0.00  0.00    +0.000 C 
ATOM      5  C   UNL     1       4.721   3.850  18.224  0.00  0.00    +0.000 C 
ATOM      6  C   UNL     1       5.760   4.585  17.371  0.00  0.00    +0.000 C 
ATOM      7  C   UNL     1       5.680   6.103  17.594  0.00  0.00    +0.000 C 
ATOM      8  C   UNL     1       4.250   6.653  17.500  0.00  0.00    +0.000 C 
ENDROOT
BRANCH   6   9
ATOM      9  N   UNL     1       5.637   4.247  15.956  0.00  0.00    +0.000 N 
ATOM     10  C   UNL     1       6.593   4.584  15.018  0.00  0.00    +0.000 C 
ATOM     11  O   UNL     1       7.592   5.240  15.297  0.00  0.00    +0.000 OA
ATOM     12  H   UNL     1       4.904   3.621  15.637  0.00  0.00    +0.000 HD
BRANCH  10  13
ATOM     13  C   UNL     1       6.308   4.092  13.683  0.00  0.00    +0.000 A 
ATOM     14  C   UNL     1       7.136   3.851  12.603  0.00  0.00    +0.000 A 
ATOM     15  C   UNL     1       6.313   3.381  11.553  0.00  0.00    +0.000 A 
ATOM     16  C   UNL     1       5.034   3.358  12.050  0.00  0.00    +0.000 A 
ATOM     17  O   UNL     1       5.014   3.786  13.340  0.00  0.00    +0.000 OA
ENDBRANCH  10  13
ENDBRANCH   6   9
BRANCH   2  18
ATOM     18  S   UNL     1       2.049   5.419  20.655  0.00  0.00    +0.000 S 
ATOM     19  H   UNL     1       0.733   5.416  20.452  0.00  0.00    +0.000 HD
ENDBRANCH   2  18
BRANCH   1  20
ATOM     20  C   UNL     1       1.367   8.351  20.245  0.00  0.00    +0.000 C 
BRANCH  20  21
ATOM     21  C   UNL     1       0.782   9.663  19.726  0.00  0.00    +0.000 C 
BRANCH  21  22
ATOM     22  C   UNL     1      -0.128  10.304  20.777  0.00  0.00    +0.000 C 
BRANCH  22  23
ATOM     23  O   UNL     1      -0.710  11.498  20.250  0.00  0.00    +0.000 OA
BRANCH  23  25
ATOM     24  C   UNL     1      -0.565  13.332  18.722  0.00  0.00    +0.000 C 
ATOM     25  C   UNL     1      -0.019  11.967  19.094  0.00  0.00    +0.000 C 
ENDBRANCH  23  25
ENDBRANCH  22  23
ENDBRANCH  21  22
ENDBRANCH  20  21
ENDBRANCH   1  20
TORSDOF 8
ENDMDL
MODEL 9
REMARK VINA RESULT:      -6.2      2.045      2.347
REMARK  Name = 
REMARK  9 active torsions:
REMARK  status: ('A' for Active; 'I' for Inactive)
REMARK    1  A    between atoms: C_1  and  C_2
REMARK    2  A    between atoms: C_2  and  O_3
REMARK    3  A    between atoms: O_3  and  C_4
REMARK    4  A    between atoms: C_4  and  C_5
REMARK    5  A    between atoms: C_5  and  C_6
REMARK    6  A    between atoms: C_6  and  N_7
REMARK    7  A    between atoms: C_8  and  S_9
REMARK    8  A    between atoms: C_13  and  N_14
REMARK    9  A    between atoms: C_15  and  C_17
REMARK                            x       y       z     vdW  Elec       q    Type
REMARK                         _______ _______ _______ _____ _____    ______ ____
ROOT
ATOM      1  N   UNL     1       2.009   8.449  18.956  0.00  0.00    +0.000 NA
ATOM      2  C   UNL     1       2.314   7.200  19.100  0.00  0.00    +0.000 C 
ATOM      3  N   UNL     1       3.176   6.549  18.221  0.00  0.00    +0.000 N 
ATOM      4  C   UNL     1       3.137   5.115  17.928  0.00  0.00    +0.000 C 
ATOM      5  C   UNL     1       4.503   4.509  18.227  0.00  0.00    +0.000 C 
ATOM      6  C   UNL     1       5.599   5.201  17.411  0.00  0.00    +0.000 C 
ATOM      7  C   UNL     1       5.527   6.727  17.576  0.00  0.00    +0.000 C 
ATOM      8  C   UNL     1       4.113   7.290  17.378  0.00  0.00    +0.000 C 
ENDROOT
BRANCH   6   9
ATOM      9  N   UNL     1       5.554   4.813  16.004  0.00  0.00    +0.000 N 
ATOM     10  C   UNL     1       6.688   4.529  15.267  0.00  0.00    +0.000 C 
ATOM     11  O   UNL     1       7.820   4.633  15.728  0.00  0.00    +0.000 OA
ATOM     12  H   UNL     1       4.669   4.600  15.556  0.00  0.00    +0.000 HD
BRANCH  10  13
ATOM     13  C   UNL     1       6.414   4.098  13.909  0.00  0.00    +0.000 A 
ATOM     14  C   UNL     1       5.376   3.354  13.381  0.00  0.00    +0.000 A 
ATOM     15  C   UNL     1       5.624   3.234  11.994  0.00  0.00    +0.000 A 
ATOM     16  C   UNL     1       6.793   3.911  11.753  0.00  0.00    +0.000 A 
ATOM     17  O   UNL     1       7.285   4.440  12.905  0.00  0.00    +0.000 OA
ENDBRANCH  10  13
ENDBRANCH   6   9
BRANCH   2  18
ATOM     18  S   UNL     1       1.715   6.195  20.441  0.00  0.00    +0.000 S 
ATOM     19  H   UNL     1       2.594   6.532  21.384  0.00  0.00    +0.000 HD
ENDBRANCH   2  18
BRANCH   1  20
ATOM     20  C   UNL     1       1.098   9.118  19.888  0.00  0.00    +0.000 C 
BRANCH  20  21
ATOM     21  C   UNL     1       0.952  10.599  19.540  0.00  0.00    +0.000 C 
BRANCH  21  22
ATOM     22  C   UNL     1      -0.465  11.091  19.850  0.00  0.00    +0.000 C 
BRANCH  22  23
ATOM     23  O   UNL     1      -1.422  10.156  19.348  0.00  0.00    +0.000 OA
BRANCH  23  25
ATOM     24  C   UNL     1      -1.809   9.903  17.002  0.00  0.00    +0.000 C 
ATOM     25  C   UNL     1      -2.166  10.684  18.252  0.00  0.00    +0.000 C 
ENDBRANCH  23  25
ENDBRANCH  22  23
ENDBRANCH  21  22
ENDBRANCH  20  21
ENDBRANCH   1  20
TORSDOF 8
ENDMDL
