MODEL 1
REMARK VINA RESULT:      -6.1      0.000      0.000
REMARK  Name = 
REMARK  2 active torsions:
REMARK  status: ('A' for Active; 'I' for Inactive)
REMARK    1  A    between atoms: N_1  and  C_2
REMARK    2  A    between atoms: C_2  and  O_3
REMARK                            x       y       z     vdW  Elec       q    Type
REMARK                         _______ _______ _______ _____ _____    ______ ____
ROOT
ATOM      1  C   UNL     1       6.989   5.654  16.407  0.00  0.00    +0.000 C 
ATOM      2  C   UNL     1       7.197   4.565  17.434  0.00  0.00    +0.000 C 
ATOM      3  O   UNL     1       8.331   4.175  17.674  0.00  0.00    +0.000 OA
ATOM      4  N   UNL     1       6.154   4.020  18.115  0.00  0.00    +0.000 N 
ATOM      5  C   UNL     1       4.869   4.401  17.894  0.00  0.00    +0.000 C 
ATOM      6  O   UNL     1       3.971   3.901  18.554  0.00  0.00    +0.000 OA
ATOM      7  N   UNL     1       4.563   5.319  16.940  0.00  0.00    +0.000 N 
ATOM      8  C   UNL     1       5.518   5.928  16.190  0.00  0.00    +0.000 C 
ATOM      9  O   UNL     1       5.185   6.734  15.333  0.00  0.00    +0.000 OA
ATOM     10  H   UNL     1       6.347   3.298  18.827  0.00  0.00    +0.000 HD
ATOM     11  H   UNL     1       3.574   5.568  16.784  0.00  0.00    +0.000 HD
ENDROOT
BRANCH   1  12
ATOM     12  N   UNL     1       7.617   6.895  16.884  0.00  0.00    +0.000 NA
ATOM     13  H   UNL     1       7.094   7.731  16.533  0.00  0.00    +0.000 HD
ATOM     14  H   UNL     1       8.586   6.957  16.489  0.00  0.00    +0.000 HD
ENDBRANCH   1  12
BRANCH   1  15
ATOM     15  O   UNL     1       7.544   5.255  15.175  0.00  0.00    +0.000 OA
ATOM     16  H   UNL     1       6.841   5.326  14.476  0.00  0.00    +0.000 HD
ENDBRANCH   1  15
TORSDOF 2
ENDMDL
MODEL 2
REMARK VINA RESULT:      -6.0      1.022      2.679
REMARK  Name = 
REMARK  2 active torsions:
REMARK  status: ('A' for Active; 'I' for Inactive)
REMARK    1  A    between atoms: N_1  and  C_2
REMARK    2  A    between atoms: C_2  and  O_3
REMARK                            x       y       z     vdW  Elec       q    Type
REMARK                         _______ _______ _______ _____ _____    ______ ____
ROOT
ATOM      1  C   UNL     1       6.955   5.602  16.341  0.00  0.00    +0.000 C 
ATOM      2  C   UNL     1       5.490   5.946  16.203  0.00  0.00    +0.000 C 
ATOM      3  O   UNL     1       5.152   6.837  15.436  0.00  0.00    +0.000 OA
ATOM      4  N   UNL     1       4.532   5.277  16.898  0.00  0.00    +0.000 N 
ATOM      5  C   UNL     1       4.837   4.282  17.772  0.00  0.00    +0.000 C 
ATOM      6  O   UNL     1       3.936   3.691  18.349  0.00  0.00    +0.000 OA
ATOM      7  N   UNL     1       6.128   3.942  18.026  0.00  0.00    +0.000 N 
ATOM      8  C   UNL     1       7.171   4.545  17.399  0.00  0.00    +0.000 C 
ATOM      9  O   UNL     1       8.314   4.211  17.681  0.00  0.00    +0.000 OA
ATOM     10  H   UNL     1       3.542   5.529  16.751  0.00  0.00    +0.000 HD
ATOM     11  H   UNL     1       6.322   3.197  18.713  0.00  0.00    +0.000 HD
ENDROOT
BRANCH   1  12
ATOM     12  N   UNL     1       7.449   5.071  15.061  0.00  0.00    +0.000 NA
ATOM     13  H   UNL     1       6.676   4.603  14.535  0.00  0.00    +0.000 HD
ATOM     14  H   UNL     1       8.170   4.336  15.258  0.00  0.00    +0.000 HD
ENDBRANCH   1  12
BRANCH   1  15
ATOM     15  O   UNL     1       7.678   6.751  16.718  0.00  0.00    +0.000 OA
ATOM     16  H   UNL     1       7.433   6.983  17.653  0.00  0.00    +0.000 HD
ENDBRANCH   1  15
TORSDOF 2
ENDMDL
MODEL 3
REMARK VINA RESULT:      -5.9      1.971      3.993
REMARK  Name = 
REMARK  2 active torsions:
REMARK  status: ('A' for Active; 'I' for Inactive)
REMARK    1  A    between atoms: N_1  and  C_2
REMARK    2  A    between atoms: C_2  and  O_3
REMARK                            x       y       z     vdW  Elec       q    Type
REMARK                         _______ _______ _______ _____ _____    ______ ____
ROOT
ATOM      1  C   UNL     1       7.419   4.884  17.934  0.00  0.00    +0.000 C 
ATOM      2  C   UNL     1       7.113   5.723  16.714  0.00  0.00    +0.000 C 
ATOM      3  O   UNL     1       6.678   5.181  15.707  0.00  0.00    +0.000 OA
ATOM      4  N   UNL     1       7.293   7.070  16.712  0.00  0.00    +0.000 N 
ATOM      5  C   UNL     1       7.780   7.735  17.792  0.00  0.00    +0.000 C 
ATOM      6  O   UNL     1       7.894   8.951  17.749  0.00  0.00    +0.000 OA
ATOM      7  N   UNL     1       8.156   7.069  18.916  0.00  0.00    +0.000 N 
ATOM      8  C   UNL     1       8.031   5.722  19.033  0.00  0.00    +0.000 C 
ATOM      9  O   UNL     1       8.402   5.173  20.061  0.00  0.00    +0.000 OA
ATOM     10  H   UNL     1       7.046   7.605  15.865  0.00  0.00    +0.000 HD
ATOM     11  H   UNL     1       8.542   7.605  19.709  0.00  0.00    +0.000 HD
ENDROOT
BRANCH   1  12
ATOM     12  N   UNL     1       6.168   4.305  18.447  0.00  0.00    +0.000 NA
ATOM     13  H   UNL     1       5.982   3.378  18.000  0.00  0.00    +0.000 HD
ATOM     14  H   UNL     1       5.373   4.934  18.183  0.00  0.00    +0.000 HD
ENDBRANCH   1  12
BRANCH   1  15
ATOM     15  O   UNL     1       8.337   3.871  17.595  0.00  0.00    +0.000 OA
ATOM     16  H   UNL     1       9.245   4.273  17.553  0.00  0.00    +0.000 HD
ENDBRANCH   1  15
TORSDOF 2
ENDMDL
MODEL 4
REMARK VINA RESULT:      -5.7      2.246      3.447
REMARK  Name = 
REMARK  2 active torsions:
REMARK  status: ('A' for Active; 'I' for Inactive)
REMARK    1  A    between atoms: N_1  and  C_2
REMARK    2  A    between atoms: C_2  and  O_3
REMARK                            x       y       z     vdW  Elec       q    Type
REMARK                         _______ _______ _______ _____ _____    ______ ____
ROOT
ATOM      1  C   UNL     1       7.275   4.924  18.016  0.00  0.00    +0.000 C 
ATOM      2  C   UNL     1       7.966   5.731  19.092  0.00  0.00    +0.000 C 
ATOM      3  O   UNL     1       8.339   5.173  20.114  0.00  0.00    +0.000 OA
ATOM      4  N   UNL     1       8.199   7.062  18.945  0.00  0.00    +0.000 N 
ATOM      5  C   UNL     1       7.804   7.746  17.839  0.00  0.00    +0.000 C 
ATOM      6  O   UNL     1       8.065   8.937  17.743  0.00  0.00    +0.000 OA
ATOM      7  N   UNL     1       7.111   7.134  16.844  0.00  0.00    +0.000 N 
ATOM      8  C   UNL     1       6.811   5.809  16.882  0.00  0.00    +0.000 C 
ATOM      9  O   UNL     1       6.169   5.314  15.966  0.00  0.00    +0.000 OA
ATOM     10  H   UNL     1       8.698   7.567  19.695  0.00  0.00    +0.000 HD
ATOM     11  H   UNL     1       6.808   7.691  16.030  0.00  0.00    +0.000 HD
ENDROOT
BRANCH   1  12
ATOM     12  N   UNL     1       8.222   3.942  17.467  0.00  0.00    +0.000 NA
ATOM     13  H   UNL     1       8.219   3.973  16.421  0.00  0.00    +0.000 HD
ATOM     14  H   UNL     1       7.907   2.980  17.742  0.00  0.00    +0.000 HD
ENDBRANCH   1  12
BRANCH   1  15
ATOM     15  O   UNL     1       6.145   4.281  18.558  0.00  0.00    +0.000 OA
ATOM     16  H   UNL     1       5.493   4.977  18.837  0.00  0.00    +0.000 HD
ENDBRANCH   1  15
TORSDOF 2
ENDMDL
MODEL 5
REMARK VINA RESULT:      -5.7      1.431      3.454
REMARK  Name = 
REMARK  2 active torsions:
REMARK  status: ('A' for Active; 'I' for Inactive)
REMARK    1  A    between atoms: N_1  and  C_2
REMARK    2  A    between atoms: C_2  and  O_3
REMARK                            x       y       z     vdW  Elec       q    Type
REMARK                         _______ _______ _______ _____ _____    ______ ____
ROOT
ATOM      1  C   UNL     1       6.177   4.822  18.612  0.00  0.00    +0.000 C 
ATOM      2  C   UNL     1       4.885   5.586  18.436  0.00  0.00    +0.000 C 
ATOM      3  O   UNL     1       4.071   5.606  19.349  0.00  0.00    +0.000 OA
ATOM      4  N   UNL     1       4.611   6.270  17.294  0.00  0.00    +0.000 N 
ATOM      5  C   UNL     1       5.467   6.284  16.239  0.00  0.00    +0.000 C 
ATOM      6  O   UNL     1       5.186   6.940  15.245  0.00  0.00    +0.000 OA
ATOM      7  N   UNL     1       6.623   5.570  16.262  0.00  0.00    +0.000 N 
ATOM      8  C   UNL     1       7.001   4.842  17.344  0.00  0.00    +0.000 C 
ATOM      9  O   UNL     1       8.043   4.204  17.303  0.00  0.00    +0.000 OA
ATOM     10  H   UNL     1       3.728   6.801  17.229  0.00  0.00    +0.000 HD
ATOM     11  H   UNL     1       7.237   5.587  15.432  0.00  0.00    +0.000 HD
ENDROOT
BRANCH   1  12
ATOM     12  N   UNL     1       6.970   5.450  19.678  0.00  0.00    +0.000 NA
ATOM     13  H   UNL     1       7.945   5.070  19.685  0.00  0.00    +0.000 HD
ATOM     14  H   UNL     1       6.543   5.206  20.604  0.00  0.00    +0.000 HD
ENDBRANCH   1  12
BRANCH   1  15
ATOM     15  O   UNL     1       5.893   3.478  18.925  0.00  0.00    +0.000 OA
ATOM     16  H   UNL     1       4.907   3.372  18.985  0.00  0.00    +0.000 HD
ENDBRANCH   1  15
TORSDOF 2
ENDMDL
MODEL 6
REMARK VINA RESULT:      -5.7      1.951      2.828
REMARK  Name = 
REMARK  2 active torsions:
REMARK  status: ('A' for Active; 'I' for Inactive)
REMARK    1  A    between atoms: N_1  and  C_2
REMARK    2  A    between atoms: C_2  and  O_3
REMARK                            x       y       z     vdW  Elec       q    Type
REMARK                         _______ _______ _______ _____ _____    ______ ____
ROOT
ATOM      1  C   UNL     1       6.779   6.040  16.483  0.00  0.00    +0.000 C 
ATOM      2  C   UNL     1       7.521   6.978  17.409  0.00  0.00    +0.000 C 
ATOM      3  O   UNL     1       7.866   8.077  16.998  0.00  0.00    +0.000 OA
ATOM      4  N   UNL     1       7.799   6.637  18.695  0.00  0.00    +0.000 N 
ATOM      5  C   UNL     1       7.451   5.430  19.213  0.00  0.00    +0.000 C 
ATOM      6  O   UNL     1       7.698   5.185  20.385  0.00  0.00    +0.000 OA
ATOM      7  N   UNL     1       6.847   4.485  18.447  0.00  0.00    +0.000 N 
ATOM      8  C   UNL     1       6.525   4.705  17.146  0.00  0.00    +0.000 C 
ATOM      9  O   UNL     1       5.998   3.812  16.499  0.00  0.00    +0.000 OA
ATOM     10  H   UNL     1       8.284   7.320  19.298  0.00  0.00    +0.000 HD
ATOM     11  H   UNL     1       6.618   3.571  18.869  0.00  0.00    +0.000 HD
ENDROOT
BRANCH   1  12
ATOM     12  N   UNL     1       5.477   6.631  16.139  0.00  0.00    +0.000 NA
ATOM     13  H   UNL     1       4.917   5.970  15.553  0.00  0.00    +0.000 HD
ATOM     14  H   UNL     1       5.639   7.488  15.557  0.00  0.00    +0.000 HD
ENDBRANCH   1  12
BRANCH   1  15
ATOM     15  O   UNL     1       7.547   5.813  15.325  0.00  0.00    +0.000 OA
ATOM     16  H   UNL     1       7.484   4.849  15.091  0.00  0.00    +0.000 HD
ENDBRANCH   1  15
TORSDOF 2
ENDMDL
MODEL 7
REMARK VINA RESULT:      -5.7      1.977      2.811
REMARK  Name = 
REMARK  2 active torsions:
REMARK  status: ('A' for Active; 'I' for Inactive)
REMARK    1  A    between atoms: N_1  and  C_2
REMARK    2  A    between atoms: C_2  and  O_3
REMARK                            x       y       z     vdW  Elec       q    Type
REMARK                         _______ _______ _______ _____ _____    ______ ____
ROOT
ATOM      1  C   UNL     1       6.645   6.028  16.628  0.00  0.00    +0.000 C 
ATOM      2  C   UNL     1       6.201   4.830  17.436  0.00  0.00    +0.000 C 
ATOM      3  O   UNL     1       5.445   4.012  16.930  0.00  0.00    +0.000 OA
ATOM      4  N   UNL     1       6.636   4.627  18.707  0.00  0.00    +0.000 N 
ATOM      5  C   UNL     1       7.469   5.498  19.333  0.00  0.00    +0.000 C 
ATOM      6  O   UNL     1       7.855   5.254  20.467  0.00  0.00    +0.000 OA
ATOM      7  N   UNL     1       7.871   6.645  18.725  0.00  0.00    +0.000 N 
ATOM      8  C   UNL     1       7.496   6.961  17.458  0.00  0.00    +0.000 C 
ATOM      9  O   UNL     1       7.873   8.016  16.967  0.00  0.00    +0.000 OA
ATOM     10  H   UNL     1       6.327   3.780  19.211  0.00  0.00    +0.000 HD
ATOM     11  H   UNL     1       8.487   7.295  19.240  0.00  0.00    +0.000 HD
ENDROOT
BRANCH   1  12
ATOM     12  N   UNL     1       7.453   5.570  15.488  0.00  0.00    +0.000 NA
ATOM     13  H   UNL     1       8.473   5.637  15.709  0.00  0.00    +0.000 HD
ATOM     14  H   UNL     1       7.277   6.206  14.673  0.00  0.00    +0.000 HD
ENDBRANCH   1  12
BRANCH   1  15
ATOM     15  O   UNL     1       5.516   6.745  16.186  0.00  0.00    +0.000 OA
ATOM     16  H   UNL     1       5.594   7.682  16.507  0.00  0.00    +0.000 HD
ENDBRANCH   1  15
TORSDOF 2
ENDMDL
MODEL 8
REMARK VINA RESULT:      -5.7      1.429      3.126
REMARK  Name = 
REMARK  2 active torsions:
REMARK  status: ('A' for Active; 'I' for Inactive)
REMARK    1  A    between atoms: N_1  and  C_2
REMARK    2  A    between atoms: C_2  and  O_3
REMARK                            x       y       z     vdW  Elec       q    Type
REMARK                         _______ _______ _______ _____ _____    ______ ____
ROOT
ATOM      1  C   UNL     1       6.125   4.769  18.718  0.00  0.00    +0.000 C 
ATOM      2  C   UNL     1       7.056   4.793  17.527  0.00  0.00    +0.000 C 
ATOM      3  O   UNL     1       8.120   4.193  17.586  0.00  0.00    +0.000 OA
ATOM      4  N   UNL     1       6.732   5.450  16.382  0.00  0.00    +0.000 N 
ATOM      5  C   UNL     1       5.571   6.142  16.251  0.00  0.00    +0.000 C 
ATOM      6  O   UNL     1       5.314   6.692  15.190  0.00  0.00    +0.000 OA
ATOM      7  N   UNL     1       4.695   6.248  17.285  0.00  0.00    +0.000 N 
ATOM      8  C   UNL     1       4.913   5.641  18.481  0.00  0.00    +0.000 C 
ATOM      9  O   UNL     1       4.099   5.785  19.383  0.00  0.00    +0.000 OA
ATOM     10  H   UNL     1       7.388   5.416  15.585  0.00  0.00    +0.000 HD
ATOM     11  H   UNL     1       3.833   6.801  17.156  0.00  0.00    +0.000 HD
ENDROOT
BRANCH   1  12
ATOM     12  N   UNL     1       5.657   3.392  18.938  0.00  0.00    +0.000 NA
ATOM     13  H   UNL     1       6.226   2.925  19.682  0.00  0.00    +0.000 HD
ATOM     14  H   UNL     1       5.801   2.842  18.057  0.00  0.00    +0.000 HD
ENDBRANCH   1  12
BRANCH   1  15
ATOM     15  O   UNL     1       6.798   5.256  19.855  0.00  0.00    +0.000 OA
ATOM     16  H   UNL     1       6.407   4.824  20.660  0.00  0.00    +0.000 HD
ENDBRANCH   1  15
TORSDOF 2
ENDMDL
MODEL 9
REMARK VINA RESULT:      -5.6      1.678      3.746
REMARK  Name = 
REMARK  2 active torsions:
REMARK  status: ('A' for Active; 'I' for Inactive)
REMARK    1  A    between atoms: N_1  and  C_2
REMARK    2  A    between atoms: C_2  and  O_3
REMARK                            x       y       z     vdW  Elec       q    Type
REMARK                         _______ _______ _______ _____ _____    ______ ____
ROOT
ATOM      1  C   UNL     1       5.591   4.442  18.247  0.00  0.00    +0.000 C 
ATOM      2  C   UNL     1       4.960   4.232  16.889  0.00  0.00    +0.000 C 
ATOM      3  O   UNL     1       3.806   3.831  16.820  0.00  0.00    +0.000 OA
ATOM      4  N   UNL     1       5.637   4.495  15.740  0.00  0.00    +0.000 N 
ATOM      5  C   UNL     1       6.922   4.934  15.745  0.00  0.00    +0.000 C 
ATOM      6  O   UNL     1       7.476   5.185  14.684  0.00  0.00    +0.000 OA
ATOM      7  N   UNL     1       7.609   5.087  16.908  0.00  0.00    +0.000 N 
ATOM      8  C   UNL     1       7.041   4.848  18.118  0.00  0.00    +0.000 C 
ATOM      9  O   UNL     1       7.712   4.984  19.132  0.00  0.00    +0.000 OA
ATOM     10  H   UNL     1       5.156   4.362  14.836  0.00  0.00    +0.000 HD
ATOM     11  H   UNL     1       8.591   5.401  16.871  0.00  0.00    +0.000 HD
ENDROOT
BRANCH   1  12
ATOM     12  N   UNL     1       4.878   5.519  18.949  0.00  0.00    +0.000 NA
ATOM     13  H   UNL     1       5.260   6.453  18.673  0.00  0.00    +0.000 HD
ATOM     14  H   UNL     1       5.044   5.417  19.979  0.00  0.00    +0.000 HD
ENDBRANCH   1  12
BRANCH   1  15
ATOM     15  O   UNL     1       5.537   3.243  18.985  0.00  0.00    +0.000 OA
ATOM     16  H   UNL     1       4.949   2.604  18.502  0.00  0.00    +0.000 HD
ENDBRANCH   1  15
TORSDOF 2
ENDMDL
