MODEL 1
REMARK VINA RESULT:      -8.1      0.000      0.000
REMARK  Name = 
REMARK  7 active torsions:
REMARK  status: ('A' for Active; 'I' for Inactive)
REMARK    1  A    between atoms: C_1  and  O_2
REMARK    2  A    between atoms: O_2  and  C_3
REMARK    3  A    between atoms: C_3  and  C_5
REMARK    4  A    between atoms: C_8  and  N_9
REMARK    5  A    between atoms: C_19  and  C_20
REMARK    6  A    between atoms: C_20  and  C_21
REMARK    7  A    between atoms: C_20  and  C_22
REMARK                            x       y       z     vdW  Elec       q    Type
REMARK                         _______ _______ _______ _____ _____    ______ ____
ROOT
ATOM      1  N   UNL     1       3.000   7.007  18.695  0.00  0.00    +0.000 N 
ATOM      2  C   UNL     1       2.362   8.140  18.144  0.00  0.00    +0.000 C 
ATOM      3  O   UNL     1       2.607   8.628  17.044  0.00  0.00    +0.000 OA
ATOM      4  C   UNL     1       1.397   8.845  19.024  0.00  0.00    +0.000 A 
ATOM      5  C   UNL     1       0.657   9.936  18.557  0.00  0.00    +0.000 A 
ATOM      6  C   UNL     1      -0.151  10.653  19.439  0.00  0.00    +0.000 A 
ATOM      7  C   UNL     1      -0.186  10.303  20.789  0.00  0.00    +0.000 A 
ATOM      8  C   UNL     1       0.560   9.215  21.251  0.00  0.00    +0.000 A 
ATOM      9  C   UNL     1       1.314   8.445  20.363  0.00  0.00    +0.000 A 
ATOM     10  N   UNL     1       2.082   7.369  20.849  0.00  0.00    +0.000 N 
ATOM     11  C   UNL     1       2.292   6.343  19.807  0.00  0.00    +0.000 C 
ATOM     12  H   UNL     1       2.981   7.728  21.167  0.00  0.00    +0.000 HD
ENDROOT
BRANCH   1  16
ATOM     13  C   UNL     1       5.822   5.264  16.007  0.00  0.00    +0.000 A 
ATOM     14  C   UNL     1       6.162   6.355  16.813  0.00  0.00    +0.000 A 
ATOM     15  C   UNL     1       5.241   6.886  17.724  0.00  0.00    +0.000 A 
ATOM     16  C   UNL     1       3.971   6.327  17.890  0.00  0.00    +0.000 A 
ATOM     17  C   UNL     1       3.636   5.227  17.083  0.00  0.00    +0.000 A 
ATOM     18  C   UNL     1       4.550   4.696  16.151  0.00  0.00    +0.000 A 
BRANCH  13  19
ATOM     19  C   UNL     1       6.831   4.819  15.004  0.00  0.00    +0.000 C 
ATOM     20  O   UNL     1       7.838   5.462  14.750  0.00  0.00    +0.000 OA
BRANCH  19  22
ATOM     21  C   UNL     1       6.302   3.768  12.995  0.00  0.00    +0.000 C 
ATOM     22  O   UNL     1       6.478   3.650  14.412  0.00  0.00    +0.000 OA
ENDBRANCH  19  22
ENDBRANCH  13  19
ENDBRANCH   1  16
BRANCH  11  23
ATOM     23  C   UNL     1       2.868   5.031  20.451  0.00  0.00    +0.000 C 
ATOM     24  C   UNL     1       2.432   4.811  21.910  0.00  0.00    +0.000 C 
BRANCH  23  25
ATOM     25  C   UNL     1       2.568   3.714  19.709  0.00  0.00    +0.000 A 
ATOM     26  C   UNL     1       1.248   3.450  19.308  0.00  0.00    +0.000 A 
ATOM     27  C   UNL     1       0.938   2.344  18.505  0.00  0.00    +0.000 A 
ATOM     28  C   UNL     1       1.945   1.483  18.087  0.00  0.00    +0.000 A 
ATOM     29  C   UNL     1       3.260   1.719  18.481  0.00  0.00    +0.000 A 
ATOM     30  C   UNL     1       3.568   2.825  19.283  0.00  0.00    +0.000 A 
ENDBRANCH  23  25
ENDBRANCH  11  23
TORSDOF 5
ENDMDL
MODEL 2
REMARK VINA RESULT:      -8.1      1.031      1.432
REMARK  Name = 
REMARK  7 active torsions:
REMARK  status: ('A' for Active; 'I' for Inactive)
REMARK    1  A    between atoms: C_1  and  O_2
REMARK    2  A    between atoms: O_2  and  C_3
REMARK    3  A    between atoms: C_3  and  C_5
REMARK    4  A    between atoms: C_8  and  N_9
REMARK    5  A    between atoms: C_19  and  C_20
REMARK    6  A    between atoms: C_20  and  C_21
REMARK    7  A    between atoms: C_20  and  C_22
REMARK                            x       y       z     vdW  Elec       q    Type
REMARK                         _______ _______ _______ _____ _____    ______ ____
ROOT
ATOM      1  N   UNL     1       2.876   6.756  19.310  0.00  0.00    +0.000 N 
ATOM      2  C   UNL     1       2.387   7.999  18.853  0.00  0.00    +0.000 C 
ATOM      3  O   UNL     1       2.819   8.620  17.884  0.00  0.00    +0.000 OA
ATOM      4  C   UNL     1       1.338   8.640  19.684  0.00  0.00    +0.000 A 
ATOM      5  C   UNL     1       0.733   9.837  19.287  0.00  0.00    +0.000 A 
ATOM      6  C   UNL     1      -0.161  10.478  20.145  0.00  0.00    +0.000 A 
ATOM      7  C   UNL     1      -0.415   9.944  21.408  0.00  0.00    +0.000 A 
ATOM      8  C   UNL     1       0.195   8.750  21.801  0.00  0.00    +0.000 A 
ATOM      9  C   UNL     1       1.034   8.061  20.921  0.00  0.00    +0.000 A 
ATOM     10  N   UNL     1       1.664   6.873  21.343  0.00  0.00    +0.000 N 
ATOM     11  C   UNL     1       1.975   5.994  20.198  0.00  0.00    +0.000 C 
ATOM     12  H   UNL     1       2.522   7.117  21.835  0.00  0.00    +0.000 HD
ENDROOT
BRANCH   1  16
ATOM     13  C   UNL     1       6.142   5.263  17.002  0.00  0.00    +0.000 A 
ATOM     14  C   UNL     1       6.289   5.570  18.358  0.00  0.00    +0.000 A 
ATOM     15  C   UNL     1       5.198   6.013  19.114  0.00  0.00    +0.000 A 
ATOM     16  C   UNL     1       3.921   6.128  18.557  0.00  0.00    +0.000 A 
ATOM     17  C   UNL     1       3.776   5.812  17.196  0.00  0.00    +0.000 A 
ATOM     18  C   UNL     1       4.873   5.381  16.422  0.00  0.00    +0.000 A 
BRANCH  13  19
ATOM     19  C   UNL     1       7.373   4.882  16.253  0.00  0.00    +0.000 C 
ATOM     20  O   UNL     1       8.216   4.124  16.709  0.00  0.00    +0.000 OA
BRANCH  19  22
ATOM     21  C   UNL     1       7.039   4.641  13.961  0.00  0.00    +0.000 C 
ATOM     22  O   UNL     1       7.441   5.491  15.043  0.00  0.00    +0.000 OA
ENDBRANCH  19  22
ENDBRANCH  13  19
ENDBRANCH   1  16
BRANCH  11  23
ATOM     23  C   UNL     1       2.381   4.565  20.711  0.00  0.00    +0.000 C 
ATOM     24  C   UNL     1       1.292   3.874  21.549  0.00  0.00    +0.000 C 
BRANCH  23  25
ATOM     25  C   UNL     1       2.807   3.546  19.636  0.00  0.00    +0.000 A 
ATOM     26  C   UNL     1       3.961   2.775  19.856  0.00  0.00    +0.000 A 
ATOM     27  C   UNL     1       4.316   1.733  18.989  0.00  0.00    +0.000 A 
ATOM     28  C   UNL     1       3.523   1.443  17.886  0.00  0.00    +0.000 A 
ATOM     29  C   UNL     1       2.380   2.201  17.642  0.00  0.00    +0.000 A 
ATOM     30  C   UNL     1       2.025   3.242  18.510  0.00  0.00    +0.000 A 
ENDBRANCH  23  25
ENDBRANCH  11  23
TORSDOF 5
ENDMDL
MODEL 3
REMARK VINA RESULT:      -7.8      0.695      1.079
REMARK  Name = 
REMARK  7 active torsions:
REMARK  status: ('A' for Active; 'I' for Inactive)
REMARK    1  A    between atoms: C_1  and  O_2
REMARK    2  A    between atoms: O_2  and  C_3
REMARK    3  A    between atoms: C_3  and  C_5
REMARK    4  A    between atoms: C_8  and  N_9
REMARK    5  A    between atoms: C_19  and  C_20
REMARK    6  A    between atoms: C_20  and  C_21
REMARK    7  A    between atoms: C_20  and  C_22
REMARK                            x       y       z     vdW  Elec       q    Type
REMARK                         _______ _______ _______ _____ _____    ______ ____
ROOT
ATOM      1  N   UNL     1       2.873   7.178  18.974  0.00  0.00    +0.000 N 
ATOM      2  C   UNL     1       2.197   8.328  18.510  0.00  0.00    +0.000 C 
ATOM      3  O   UNL     1       2.448   8.929  17.469  0.00  0.00    +0.000 OA
ATOM      4  C   UNL     1       1.174   8.902  19.421  0.00  0.00    +0.000 A 
ATOM      5  C   UNL     1       0.395   9.997  19.033  0.00  0.00    +0.000 A 
ATOM      6  C   UNL     1      -0.471  10.589  19.951  0.00  0.00    +0.000 A 
ATOM      7  C   UNL     1      -0.527  10.113  21.261  0.00  0.00    +0.000 A 
ATOM      8  C   UNL     1       0.257   9.021  21.644  0.00  0.00    +0.000 A 
ATOM      9  C   UNL     1       1.073   8.374  20.712  0.00  0.00    +0.000 A 
ATOM     10  N   UNL     1       1.877   7.292  21.121  0.00  0.00    +0.000 N 
ATOM     11  C   UNL     1       2.166   6.380  19.995  0.00  0.00    +0.000 C 
ATOM     12  H   UNL     1       2.749   7.660  21.500  0.00  0.00    +0.000 HD
ENDROOT
BRANCH   1  16
ATOM     13  C   UNL     1       5.836   5.157  16.659  0.00  0.00    +0.000 A 
ATOM     14  C   UNL     1       4.494   5.171  16.270  0.00  0.00    +0.000 A 
ATOM     15  C   UNL     1       3.541   5.878  17.013  0.00  0.00    +0.000 A 
ATOM     16  C   UNL     1       3.898   6.622  18.141  0.00  0.00    +0.000 A 
ATOM     17  C   UNL     1       5.249   6.610  18.525  0.00  0.00    +0.000 A 
ATOM     18  C   UNL     1       6.213   5.888  17.793  0.00  0.00    +0.000 A 
BRANCH  13  19
ATOM     19  C   UNL     1       6.767   4.309  15.862  0.00  0.00    +0.000 C 
ATOM     20  O   UNL     1       7.976   4.301  16.046  0.00  0.00    +0.000 OA
BRANCH  19  22
ATOM     21  C   UNL     1       6.467   3.963  13.579  0.00  0.00    +0.000 C 
ATOM     22  O   UNL     1       6.114   3.587  14.917  0.00  0.00    +0.000 OA
ENDBRANCH  19  22
ENDBRANCH  13  19
ENDBRANCH   1  16
BRANCH  11  23
ATOM     23  C   UNL     1       2.787   5.041  20.532  0.00  0.00    +0.000 C 
ATOM     24  C   UNL     1       2.150   4.541  21.840  0.00  0.00    +0.000 C 
BRANCH  23  25
ATOM     25  C   UNL     1       2.776   3.843  19.563  0.00  0.00    +0.000 A 
ATOM     26  C   UNL     1       1.615   3.592  18.812  0.00  0.00    +0.000 A 
ATOM     27  C   UNL     1       1.594   2.611  17.811  0.00  0.00    +0.000 A 
ATOM     28  C   UNL     1       2.734   1.865  17.543  0.00  0.00    +0.000 A 
ATOM     29  C   UNL     1       3.893   2.089  18.282  0.00  0.00    +0.000 A 
ATOM     30  C   UNL     1       3.914   3.070  19.281  0.00  0.00    +0.000 A 
ENDBRANCH  23  25
ENDBRANCH  11  23
TORSDOF 5
ENDMDL
MODEL 4
REMARK VINA RESULT:      -7.8      0.772      1.501
REMARK  Name = 
REMARK  7 active torsions:
REMARK  status: ('A' for Active; 'I' for Inactive)
REMARK    1  A    between atoms: C_1  and  O_2
REMARK    2  A    between atoms: O_2  and  C_3
REMARK    3  A    between atoms: C_3  and  C_5
REMARK    4  A    between atoms: C_8  and  N_9
REMARK    5  A    between atoms: C_19  and  C_20
REMARK    6  A    between atoms: C_20  and  C_21
REMARK    7  A    between atoms: C_20  and  C_22
REMARK                            x       y       z     vdW  Elec       q    Type
REMARK                         _______ _______ _______ _____ _____    ______ ____
ROOT
ATOM      1  N   UNL     1       2.974   7.520  18.627  0.00  0.00    +0.000 N 
ATOM      2  C   UNL     1       2.250   8.626  18.130  0.00  0.00    +0.000 C 
ATOM      3  O   UNL     1       2.502   9.233  17.093  0.00  0.00    +0.000 OA
ATOM      4  C   UNL     1       1.165   9.147  19.000  0.00  0.00    +0.000 A 
ATOM      5  C   UNL     1       0.339  10.193  18.576  0.00  0.00    +0.000 A 
ATOM      6  C   UNL     1      -0.590  10.741  19.460  0.00  0.00    +0.000 A 
ATOM      7  C   UNL     1      -0.663  10.271  20.771  0.00  0.00    +0.000 A 
ATOM      8  C   UNL     1       0.168   9.229  21.190  0.00  0.00    +0.000 A 
ATOM      9  C   UNL     1       1.051   8.623  20.293  0.00  0.00    +0.000 A 
ATOM     10  N   UNL     1       1.901   7.592  20.738  0.00  0.00    +0.000 N 
ATOM     11  C   UNL     1       2.280   6.690  19.631  0.00  0.00    +0.000 C 
ATOM     12  H   UNL     1       2.736   8.012  21.143  0.00  0.00    +0.000 HD
ENDROOT
BRANCH   1  16
ATOM     13  C   UNL     1       6.189   5.686  16.500  0.00  0.00    +0.000 A 
ATOM     14  C   UNL     1       4.856   5.377  16.213  0.00  0.00    +0.000 A 
ATOM     15  C   UNL     1       3.811   6.022  16.885  0.00  0.00    +0.000 A 
ATOM     16  C   UNL     1       4.057   7.018  17.834  0.00  0.00    +0.000 A 
ATOM     17  C   UNL     1       5.398   7.329  18.116  0.00  0.00    +0.000 A 
ATOM     18  C   UNL     1       6.457   6.674  17.455  0.00  0.00    +0.000 A 
BRANCH  13  19
ATOM     19  C   UNL     1       7.239   4.891  15.800  0.00  0.00    +0.000 C 
ATOM     20  O   UNL     1       7.923   4.055  16.371  0.00  0.00    +0.000 OA
BRANCH  19  22
ATOM     21  C   UNL     1       6.783   4.246  13.610  0.00  0.00    +0.000 C 
ATOM     22  O   UNL     1       7.344   5.228  14.491  0.00  0.00    +0.000 OA
ENDBRANCH  19  22
ENDBRANCH  13  19
ENDBRANCH   1  16
BRANCH  11  23
ATOM     23  C   UNL     1       2.957   5.393  20.201  0.00  0.00    +0.000 C 
ATOM     24  C   UNL     1       2.351   4.906  21.529  0.00  0.00    +0.000 C 
BRANCH  23  25
ATOM     25  C   UNL     1       2.985   4.167  19.267  0.00  0.00    +0.000 A 
ATOM     26  C   UNL     1       4.136   3.361  19.245  0.00  0.00    +0.000 A 
ATOM     27  C   UNL     1       4.167   2.155  18.531  0.00  0.00    +0.000 A 
ATOM     28  C   UNL     1       3.046   1.734  17.827  0.00  0.00    +0.000 A 
ATOM     29  C   UNL     1       1.897   2.523  17.825  0.00  0.00    +0.000 A 
ATOM     30  C   UNL     1       1.867   3.727  18.541  0.00  0.00    +0.000 A 
ENDBRANCH  23  25
ENDBRANCH  11  23
TORSDOF 5
ENDMDL
MODEL 5
REMARK VINA RESULT:      -7.8      3.947      7.311
REMARK  Name = 
REMARK  7 active torsions:
REMARK  status: ('A' for Active; 'I' for Inactive)
REMARK    1  A    between atoms: C_1  and  O_2
REMARK    2  A    between atoms: O_2  and  C_3
REMARK    3  A    between atoms: C_3  and  C_5
REMARK    4  A    between atoms: C_8  and  N_9
REMARK    5  A    between atoms: C_19  and  C_20
REMARK    6  A    between atoms: C_20  and  C_21
REMARK    7  A    between atoms: C_20  and  C_22
REMARK                            x       y       z     vdW  Elec       q    Type
REMARK                         _______ _______ _______ _____ _____    ______ ____
ROOT
ATOM      1  N   UNL     1       0.823  11.966  18.919  0.00  0.00    +0.000 N 
ATOM      2  C   UNL     1       1.886  12.819  18.551  0.00  0.00    +0.000 C 
ATOM      3  O   UNL     1       3.043  12.463  18.339  0.00  0.00    +0.000 OA
ATOM      4  C   UNL     1       1.586  14.273  18.527  0.00  0.00    +0.000 A 
ATOM      5  C   UNL     1       2.545  15.202  18.108  0.00  0.00    +0.000 A 
ATOM      6  C   UNL     1       2.277  16.566  18.211  0.00  0.00    +0.000 A 
ATOM      7  C   UNL     1       1.072  16.997  18.766  0.00  0.00    +0.000 A 
ATOM      8  C   UNL     1       0.120  16.065  19.187  0.00  0.00    +0.000 A 
ATOM      9  C   UNL     1       0.348  14.697  19.021  0.00  0.00    +0.000 A 
ATOM     10  N   UNL     1      -0.611  13.769  19.475  0.00  0.00    +0.000 N 
ATOM     11  C   UNL     1      -0.537  12.504  18.716  0.00  0.00    +0.000 C 
ATOM     12  H   UNL     1      -0.445  13.589  20.464  0.00  0.00    +0.000 HD
ENDROOT
BRANCH   1  16
ATOM     13  C   UNL     1       1.975   7.875  19.317  0.00  0.00    +0.000 A 
ATOM     14  C   UNL     1       1.429   8.585  20.390  0.00  0.00    +0.000 A 
ATOM     15  C   UNL     1       1.012   9.912  20.232  0.00  0.00    +0.000 A 
ATOM     16  C   UNL     1       1.088  10.560  18.996  0.00  0.00    +0.000 A 
ATOM     17  C   UNL     1       1.631   9.841  17.918  0.00  0.00    +0.000 A 
ATOM     18  C   UNL     1       2.069   8.510  18.072  0.00  0.00    +0.000 A 
BRANCH  13  19
ATOM     19  C   UNL     1       2.473   6.497  19.595  0.00  0.00    +0.000 C 
ATOM     20  O   UNL     1       1.961   5.766  20.429  0.00  0.00    +0.000 OA
BRANCH  19  22
ATOM     21  C   UNL     1       4.309   5.085  19.360  0.00  0.00    +0.000 C 
ATOM     22  O   UNL     1       3.554   6.185  18.837  0.00  0.00    +0.000 OA
ENDBRANCH  19  22
ENDBRANCH  13  19
ENDBRANCH   1  16
BRANCH  11  23
ATOM     23  C   UNL     1      -1.799  11.619  19.021  0.00  0.00    +0.000 C 
ATOM     24  C   UNL     1      -2.858  12.323  19.887  0.00  0.00    +0.000 C 
BRANCH  23  25
ATOM     25  C   UNL     1      -2.549  11.052  17.800  0.00  0.00    +0.000 A 
ATOM     26  C   UNL     1      -3.792  11.609  17.452  0.00  0.00    +0.000 A 
ATOM     27  C   UNL     1      -4.451  11.238  16.273  0.00  0.00    +0.000 A 
ATOM     28  C   UNL     1      -3.878  10.304  15.419  0.00  0.00    +0.000 A 
ATOM     29  C   UNL     1      -2.652   9.730  15.749  0.00  0.00    +0.000 A 
ATOM     30  C   UNL     1      -1.993  10.103  16.928  0.00  0.00    +0.000 A 
ENDBRANCH  23  25
ENDBRANCH  11  23
TORSDOF 5
ENDMDL
MODEL 6
REMARK VINA RESULT:      -7.6      4.672     10.295
REMARK  Name = 
REMARK  7 active torsions:
REMARK  status: ('A' for Active; 'I' for Inactive)
REMARK    1  A    between atoms: C_1  and  O_2
REMARK    2  A    between atoms: O_2  and  C_3
REMARK    3  A    between atoms: C_3  and  C_5
REMARK    4  A    between atoms: C_8  and  N_9
REMARK    5  A    between atoms: C_19  and  C_20
REMARK    6  A    between atoms: C_20  and  C_21
REMARK    7  A    between atoms: C_20  and  C_22
REMARK                            x       y       z     vdW  Elec       q    Type
REMARK                         _______ _______ _______ _____ _____    ______ ____
ROOT
ATOM      1  N   UNL     1       0.062  10.922  20.784  0.00  0.00    +0.000 N 
ATOM      2  C   UNL     1       0.776   9.786  21.225  0.00  0.00    +0.000 C 
ATOM      3  O   UNL     1       1.068   9.539  22.392  0.00  0.00    +0.000 OA
ATOM      4  C   UNL     1       1.297   8.885  20.167  0.00  0.00    +0.000 A 
ATOM      5  C   UNL     1       1.957   7.695  20.493  0.00  0.00    +0.000 A 
ATOM      6  C   UNL     1       2.541   6.930  19.484  0.00  0.00    +0.000 A 
ATOM      7  C   UNL     1       2.499   7.374  18.163  0.00  0.00    +0.000 A 
ATOM      8  C   UNL     1       1.843   8.566  17.844  0.00  0.00    +0.000 A 
ATOM      9  C   UNL     1       1.191   9.302  18.836  0.00  0.00    +0.000 A 
ATOM     10  N   UNL     1       0.557  10.516  18.503  0.00  0.00    +0.000 N 
ATOM     11  C   UNL     1      -0.541  10.824  19.441  0.00  0.00    +0.000 C 
ATOM     12  H   UNL     1       1.251  11.262  18.525  0.00  0.00    +0.000 HD
ENDROOT
BRANCH   1  16
ATOM     13  C   UNL     1      -1.675  13.741  23.478  0.00  0.00    +0.000 A 
ATOM     14  C   UNL     1      -2.151  12.429  23.391  0.00  0.00    +0.000 A 
ATOM     15  C   UNL     1      -1.541  11.502  22.538  0.00  0.00    +0.000 A 
ATOM     16  C   UNL     1      -0.418  11.838  21.775  0.00  0.00    +0.000 A 
ATOM     17  C   UNL     1       0.060  13.156  21.871  0.00  0.00    +0.000 A 
ATOM     18  C   UNL     1      -0.558  14.101  22.715  0.00  0.00    +0.000 A 
BRANCH  13  19
ATOM     19  C   UNL     1      -2.437  14.685  24.345  0.00  0.00    +0.000 C 
ATOM     20  O   UNL     1      -3.612  14.513  24.635  0.00  0.00    +0.000 OA
BRANCH  19  22
ATOM     21  C   UNL     1      -1.257  15.653  26.104  0.00  0.00    +0.000 C 
ATOM     22  O   UNL     1      -1.680  15.740  24.737  0.00  0.00    +0.000 OA
ENDBRANCH  19  22
ENDBRANCH  13  19
ENDBRANCH   1  16
BRANCH  11  23
ATOM     23  C   UNL     1      -1.420  11.997  18.873  0.00  0.00    +0.000 C 
ATOM     24  C   UNL     1      -0.615  13.065  18.112  0.00  0.00    +0.000 C 
BRANCH  23  25
ATOM     25  C   UNL     1      -2.585  11.595  17.947  0.00  0.00    +0.000 A 
ATOM     26  C   UNL     1      -3.902  11.806  18.388  0.00  0.00    +0.000 A 
ATOM     27  C   UNL     1      -4.996  11.600  17.537  0.00  0.00    +0.000 A 
ATOM     28  C   UNL     1      -4.791  11.179  16.229  0.00  0.00    +0.000 A 
ATOM     29  C   UNL     1      -3.495  10.952  15.774  0.00  0.00    +0.000 A 
ATOM     30  C   UNL     1      -2.402  11.161  16.625  0.00  0.00    +0.000 A 
ENDBRANCH  23  25
ENDBRANCH  11  23
TORSDOF 5
ENDMDL
MODEL 7
REMARK VINA RESULT:      -7.5      4.116      7.621
REMARK  Name = 
REMARK  7 active torsions:
REMARK  status: ('A' for Active; 'I' for Inactive)
REMARK    1  A    between atoms: C_1  and  O_2
REMARK    2  A    between atoms: O_2  and  C_3
REMARK    3  A    between atoms: C_3  and  C_5
REMARK    4  A    between atoms: C_8  and  N_9
REMARK    5  A    between atoms: C_19  and  C_20
REMARK    6  A    between atoms: C_20  and  C_21
REMARK    7  A    between atoms: C_20  and  C_22
REMARK                            x       y       z     vdW  Elec       q    Type
REMARK                         _______ _______ _______ _____ _____    ______ ____
ROOT
ATOM      1  N   UNL     1       0.612  12.486  19.269  0.00  0.00    +0.000 N 
ATOM      2  C   UNL     1       1.568  13.476  18.950  0.00  0.00    +0.000 C 
ATOM      3  O   UNL     1       2.783  13.299  18.897  0.00  0.00    +0.000 OA
ATOM      4  C   UNL     1       1.053  14.856  18.773  0.00  0.00    +0.000 A 
ATOM      5  C   UNL     1       1.901  15.900  18.387  0.00  0.00    +0.000 A 
ATOM      6  C   UNL     1       1.416  17.206  18.346  0.00  0.00    +0.000 A 
ATOM      7  C   UNL     1       0.101  17.471  18.728  0.00  0.00    +0.000 A 
ATOM      8  C   UNL     1      -0.741  16.425  19.117  0.00  0.00    +0.000 A 
ATOM      9  C   UNL     1      -0.286  15.105  19.091  0.00  0.00    +0.000 A 
ATOM     10  N   UNL     1      -1.139  14.065  19.512  0.00  0.00    +0.000 N 
ATOM     11  C   UNL     1      -0.779  12.782  18.874  0.00  0.00    +0.000 C 
ATOM     12  H   UNL     1      -1.070  13.978  20.525  0.00  0.00    +0.000 HD
ENDROOT
BRANCH   1  16
ATOM     13  C   UNL     1       1.647   8.375  19.766  0.00  0.00    +0.000 A 
ATOM     14  C   UNL     1       1.824   9.027  18.543  0.00  0.00    +0.000 A 
ATOM     15  C   UNL     1       1.525  10.388  18.407  0.00  0.00    +0.000 A 
ATOM     16  C   UNL     1       1.078  11.150  19.490  0.00  0.00    +0.000 A 
ATOM     17  C   UNL     1       0.907  10.492  20.720  0.00  0.00    +0.000 A 
ATOM     18  C   UNL     1       1.190   9.119  20.862  0.00  0.00    +0.000 A 
BRANCH  13  19
ATOM     19  C   UNL     1       1.906   6.907  19.800  0.00  0.00    +0.000 C 
ATOM     20  O   UNL     1       1.591   6.202  20.747  0.00  0.00    +0.000 OA
BRANCH  19  22
ATOM     21  C   UNL     1       2.226   5.122  18.340  0.00  0.00    +0.000 C 
ATOM     22  O   UNL     1       2.542   6.478  18.681  0.00  0.00    +0.000 OA
ENDBRANCH  19  22
ENDBRANCH  13  19
ENDBRANCH   1  16
BRANCH  11  23
ATOM     23  C   UNL     1      -1.918  11.725  19.110  0.00  0.00    +0.000 C 
ATOM     24  C   UNL     1      -3.097  12.258  19.943  0.00  0.00    +0.000 C 
BRANCH  23  25
ATOM     25  C   UNL     1      -2.535  11.089  17.850  0.00  0.00    +0.000 A 
ATOM     26  C   UNL     1      -3.762  11.582  17.375  0.00  0.00    +0.000 A 
ATOM     27  C   UNL     1      -4.300  11.147  16.156  0.00  0.00    +0.000 A 
ATOM     28  C   UNL     1      -3.618  10.211  15.389  0.00  0.00    +0.000 A 
ATOM     29  C   UNL     1      -2.405   9.700  15.845  0.00  0.00    +0.000 A 
ATOM     30  C   UNL     1      -1.868  10.137  17.062  0.00  0.00    +0.000 A 
ENDBRANCH  23  25
ENDBRANCH  11  23
TORSDOF 5
ENDMDL
MODEL 8
REMARK VINA RESULT:      -7.5      4.776     10.476
REMARK  Name = 
REMARK  7 active torsions:
REMARK  status: ('A' for Active; 'I' for Inactive)
REMARK    1  A    between atoms: C_1  and  O_2
REMARK    2  A    between atoms: O_2  and  C_3
REMARK    3  A    between atoms: C_3  and  C_5
REMARK    4  A    between atoms: C_8  and  N_9
REMARK    5  A    between atoms: C_19  and  C_20
REMARK    6  A    between atoms: C_20  and  C_21
REMARK    7  A    between atoms: C_20  and  C_22
REMARK                            x       y       z     vdW  Elec       q    Type
REMARK                         _______ _______ _______ _____ _____    ______ ____
ROOT
ATOM      1  N   UNL     1      -0.086  11.028  20.917  0.00  0.00    +0.000 N 
ATOM      2  C   UNL     1       0.613   9.871  21.326  0.00  0.00    +0.000 C 
ATOM      3  O   UNL     1       0.869   9.569  22.489  0.00  0.00    +0.000 OA
ATOM      4  C   UNL     1       1.165   9.019  20.243  0.00  0.00    +0.000 A 
ATOM      5  C   UNL     1       1.813   7.813  20.533  0.00  0.00    +0.000 A 
ATOM      6  C   UNL     1       2.428   7.095  19.508  0.00  0.00    +0.000 A 
ATOM      7  C   UNL     1       2.427   7.600  18.208  0.00  0.00    +0.000 A 
ATOM      8  C   UNL     1       1.782   8.808  17.925  0.00  0.00    +0.000 A 
ATOM      9  C   UNL     1       1.100   9.498  18.931  0.00  0.00    +0.000 A 
ATOM     10  N   UNL     1       0.478  10.727  18.635  0.00  0.00    +0.000 N 
ATOM     11  C   UNL     1      -0.648  10.994  19.552  0.00  0.00    +0.000 C 
ATOM     12  H   UNL     1       1.172  11.470  18.714  0.00  0.00    +0.000 HD
ENDROOT
BRANCH   1  16
ATOM     13  C   UNL     1      -1.901  13.724  23.684  0.00  0.00    +0.000 A 
ATOM     14  C   UNL     1      -2.381  12.422  23.516  0.00  0.00    +0.000 A 
ATOM     15  C   UNL     1      -1.746  11.533  22.640  0.00  0.00    +0.000 A 
ATOM     16  C   UNL     1      -0.596  11.898  21.935  0.00  0.00    +0.000 A 
ATOM     17  C   UNL     1      -0.114  13.206  22.111  0.00  0.00    +0.000 A 
ATOM     18  C   UNL     1      -0.755  14.113  22.978  0.00  0.00    +0.000 A 
BRANCH  13  19
ATOM     19  C   UNL     1      -2.687  14.631  24.569  0.00  0.00    +0.000 C 
ATOM     20  O   UNL     1      -2.175  15.290  25.462  0.00  0.00    +0.000 OA
BRANCH  19  22
ATOM     21  C   UNL     1      -4.411  15.663  23.393  0.00  0.00    +0.000 C 
ATOM     22  O   UNL     1      -4.011  14.606  24.274  0.00  0.00    +0.000 OA
ENDBRANCH  19  22
ENDBRANCH  13  19
ENDBRANCH   1  16
BRANCH  11  23
ATOM     23  C   UNL     1      -1.508  12.194  19.014  0.00  0.00    +0.000 C 
ATOM     24  C   UNL     1      -0.803  13.027  17.929  0.00  0.00    +0.000 C 
BRANCH  23  25
ATOM     25  C   UNL     1      -2.898  11.842  18.449  0.00  0.00    +0.000 A 
ATOM     26  C   UNL     1      -4.036  12.156  19.211  0.00  0.00    +0.000 A 
ATOM     27  C   UNL     1      -5.328  11.997  18.691  0.00  0.00    +0.000 A 
ATOM     28  C   UNL     1      -5.503  11.521  17.398  0.00  0.00    +0.000 A 
ATOM     29  C   UNL     1      -4.391  11.193  16.627  0.00  0.00    +0.000 A 
ATOM     30  C   UNL     1      -3.100  11.355  17.148  0.00  0.00    +0.000 A 
ENDBRANCH  23  25
ENDBRANCH  11  23
TORSDOF 5
ENDMDL
MODEL 9
REMARK VINA RESULT:      -7.5      4.722     10.344
REMARK  Name = 
REMARK  7 active torsions:
REMARK  status: ('A' for Active; 'I' for Inactive)
REMARK    1  A    between atoms: C_1  and  O_2
REMARK    2  A    between atoms: O_2  and  C_3
REMARK    3  A    between atoms: C_3  and  C_5
REMARK    4  A    between atoms: C_8  and  N_9
REMARK    5  A    between atoms: C_19  and  C_20
REMARK    6  A    between atoms: C_20  and  C_21
REMARK    7  A    between atoms: C_20  and  C_22
REMARK                            x       y       z     vdW  Elec       q    Type
REMARK                         _______ _______ _______ _____ _____    ______ ____
ROOT
ATOM      1  N   UNL     1      -0.035  10.973  20.919  0.00  0.00    +0.000 N 
ATOM      2  C   UNL     1       0.637   9.816  21.368  0.00  0.00    +0.000 C 
ATOM      3  O   UNL     1       0.867   9.538  22.543  0.00  0.00    +0.000 OA
ATOM      4  C   UNL     1       1.197   8.930  20.317  0.00  0.00    +0.000 A 
ATOM      5  C   UNL     1       1.820   7.721  20.647  0.00  0.00    +0.000 A 
ATOM      6  C   UNL     1       2.443   6.969  19.651  0.00  0.00    +0.000 A 
ATOM      7  C   UNL     1       2.474   7.444  18.340  0.00  0.00    +0.000 A 
ATOM      8  C   UNL     1       1.854   8.654  18.017  0.00  0.00    +0.000 A 
ATOM      9  C   UNL     1       1.165   9.379  18.992  0.00  0.00    +0.000 A 
ATOM     10  N   UNL     1       0.568  10.610  18.656  0.00  0.00    +0.000 N 
ATOM     11  C   UNL     1      -0.572  10.916  19.545  0.00  0.00    +0.000 C 
ATOM     12  H   UNL     1       1.272  11.343  18.731  0.00  0.00    +0.000 HD
ENDROOT
BRANCH   1  16
ATOM     13  C   UNL     1      -1.867  13.752  23.592  0.00  0.00    +0.000 A 
ATOM     14  C   UNL     1      -2.336  12.440  23.471  0.00  0.00    +0.000 A 
ATOM     15  C   UNL     1      -1.696  11.526  22.626  0.00  0.00    +0.000 A 
ATOM     16  C   UNL     1      -0.550  11.875  21.906  0.00  0.00    +0.000 A 
ATOM     17  C   UNL     1      -0.079  13.192  22.035  0.00  0.00    +0.000 A 
ATOM     18  C   UNL     1      -0.726  14.124  22.871  0.00  0.00    +0.000 A 
BRANCH  13  19
ATOM     19  C   UNL     1      -2.660  14.682  24.446  0.00  0.00    +0.000 C 
ATOM     20  O   UNL     1      -2.142  15.550  25.133  0.00  0.00    +0.000 OA
BRANCH  19  22
ATOM     21  C   UNL     1      -4.727  15.453  23.701  0.00  0.00    +0.000 C 
ATOM     22  O   UNL     1      -3.990  14.426  24.378  0.00  0.00    +0.000 OA
ENDBRANCH  19  22
ENDBRANCH  13  19
ENDBRANCH   1  16
BRANCH  11  23
ATOM     23  C   UNL     1      -1.402  12.116  18.962  0.00  0.00    +0.000 C 
ATOM     24  C   UNL     1      -0.541  13.196  18.283  0.00  0.00    +0.000 C 
BRANCH  23  25
ATOM     25  C   UNL     1      -2.513  11.757  17.956  0.00  0.00    +0.000 A 
ATOM     26  C   UNL     1      -2.146  11.336  16.666  0.00  0.00    +0.000 A 
ATOM     27  C   UNL     1      -3.100  10.856  15.758  0.00  0.00    +0.000 A 
ATOM     28  C   UNL     1      -4.438  10.788  16.126  0.00  0.00    +0.000 A 
ATOM     29  C   UNL     1      -4.826  11.210  17.395  0.00  0.00    +0.000 A 
ATOM     30  C   UNL     1      -3.871  11.687  18.302  0.00  0.00    +0.000 A 
ENDBRANCH  23  25
ENDBRANCH  11  23
TORSDOF 5
ENDMDL
