MODEL 1
REMARK VINA RESULT:      -6.6      0.000      0.000
REMARK  Name = 
REMARK  5 active torsions:
REMARK  status: ('A' for Active; 'I' for Inactive)
REMARK    1  A    between atoms: C_1  and  O_2
REMARK    2  A    between atoms: O_2  and  C_3
REMARK    3  A    between atoms: C_3  and  C_4
REMARK    4  A    between atoms: C_4  and  N_5
REMARK    5  A    between atoms: N_5  and  C_6
REMARK                            x       y       z     vdW  Elec       q    Type
REMARK                         _______ _______ _______ _____ _____    ______ ____
ROOT
ATOM      1  C   UNL     1       4.247   3.153  18.491  0.00  0.00    +0.000 C 
ATOM      2  C   UNL     1       3.779   3.948  17.249  0.00  0.00    +0.000 C 
ATOM      3  C   UNL     1       2.366   3.564  16.840  0.00  0.00    +0.000 C 
ATOM      4  C   UNL     1       1.393   3.952  17.948  0.00  0.00    +0.000 C 
ATOM      5  C   UNL     1       1.837   3.467  19.301  0.00  0.00    +0.000 A 
ATOM      6  C   UNL     1       0.908   3.428  20.348  0.00  0.00    +0.000 A 
ATOM      7  C   UNL     1       1.284   2.948  21.595  0.00  0.00    +0.000 A 
ATOM      8  C   UNL     1       2.574   2.489  21.745  0.00  0.00    +0.000 A 
ATOM      9  N   UNL     1       3.497   2.520  20.763  0.00  0.00    +0.000 NA
ATOM     10  C   UNL     1       3.156   3.075  19.567  0.00  0.00    +0.000 A 
ENDROOT
BRANCH   1  11
ATOM     11  N   UNL     1       5.522   3.805  18.887  0.00  0.00    +0.000 NA
ATOM     12  H   UNL     1       5.320   4.388  19.702  0.00  0.00    +0.000 HD
BRANCH  11  13
ATOM     13  C   UNL     1       6.117   4.710  17.891  0.00  0.00    +0.000 C 
BRANCH  13  14
ATOM     14  C   UNL     1       7.631   4.557  17.692  0.00  0.00    +0.000 C 
BRANCH  14  16
ATOM     15  C   UNL     1       6.727   4.435  15.516  0.00  0.00    +0.000 C 
ATOM     16  O   UNL     1       7.912   4.569  16.286  0.00  0.00    +0.000 OA
ENDBRANCH  14  16
ENDBRANCH  13  14
ENDBRANCH  11  13
ENDBRANCH   1  11
TORSDOF 4
ENDMDL
MODEL 2
REMARK VINA RESULT:      -6.4      1.840      2.233
REMARK  Name = 
REMARK  5 active torsions:
REMARK  status: ('A' for Active; 'I' for Inactive)
REMARK    1  A    between atoms: C_1  and  O_2
REMARK    2  A    between atoms: O_2  and  C_3
REMARK    3  A    between atoms: C_3  and  C_4
REMARK    4  A    between atoms: C_4  and  N_5
REMARK    5  A    between atoms: N_5  and  C_6
REMARK                            x       y       z     vdW  Elec       q    Type
REMARK                         _______ _______ _______ _____ _____    ______ ____
ROOT
ATOM      1  C   UNL     1       3.805   4.565  17.566  0.00  0.00    +0.000 C 
ATOM      2  C   UNL     1       4.248   6.034  17.757  0.00  0.00    +0.000 C 
ATOM      3  C   UNL     1       3.071   6.931  18.104  0.00  0.00    +0.000 C 
ATOM      4  C   UNL     1       2.493   6.514  19.452  0.00  0.00    +0.000 C 
ATOM      5  C   UNL     1       2.235   5.034  19.534  0.00  0.00    +0.000 A 
ATOM      6  C   UNL     1       1.396   4.546  20.544  0.00  0.00    +0.000 A 
ATOM      7  C   UNL     1       1.111   3.189  20.617  0.00  0.00    +0.000 A 
ATOM      8  C   UNL     1       1.651   2.366  19.653  0.00  0.00    +0.000 A 
ATOM      9  N   UNL     1       2.470   2.800  18.673  0.00  0.00    +0.000 NA
ATOM     10  C   UNL     1       2.822   4.115  18.655  0.00  0.00    +0.000 A 
ENDROOT
BRANCH   1  11
ATOM     11  N   UNL     1       5.079   3.806  17.470  0.00  0.00    +0.000 NA
ATOM     12  H   UNL     1       5.538   3.872  18.381  0.00  0.00    +0.000 HD
BRANCH  11  13
ATOM     13  C   UNL     1       6.058   4.315  16.496  0.00  0.00    +0.000 C 
BRANCH  13  14
ATOM     14  C   UNL     1       7.459   4.584  17.060  0.00  0.00    +0.000 C 
BRANCH  14  16
ATOM     15  C   UNL     1       7.747   5.752  19.090  0.00  0.00    +0.000 C 
ATOM     16  O   UNL     1       7.399   4.512  18.491  0.00  0.00    +0.000 OA
ENDBRANCH  14  16
ENDBRANCH  13  14
ENDBRANCH  11  13
ENDBRANCH   1  11
TORSDOF 4
ENDMDL
MODEL 3
REMARK VINA RESULT:      -6.3      1.661      1.821
REMARK  Name = 
REMARK  5 active torsions:
REMARK  status: ('A' for Active; 'I' for Inactive)
REMARK    1  A    between atoms: C_1  and  O_2
REMARK    2  A    between atoms: O_2  and  C_3
REMARK    3  A    between atoms: C_3  and  C_4
REMARK    4  A    between atoms: C_4  and  N_5
REMARK    5  A    between atoms: N_5  and  C_6
REMARK                            x       y       z     vdW  Elec       q    Type
REMARK                         _______ _______ _______ _____ _____    ______ ____
ROOT
ATOM      1  C   UNL     1       3.998   4.569  17.866  0.00  0.00    +0.000 C 
ATOM      2  C   UNL     1       4.327   6.076  17.970  0.00  0.00    +0.000 C 
ATOM      3  C   UNL     1       3.067   6.913  18.128  0.00  0.00    +0.000 C 
ATOM      4  C   UNL     1       2.387   6.564  19.448  0.00  0.00    +0.000 C 
ATOM      5  C   UNL     1       2.216   5.081  19.633  0.00  0.00    +0.000 A 
ATOM      6  C   UNL     1       1.314   4.617  20.598  0.00  0.00    +0.000 A 
ATOM      7  C   UNL     1       1.109   3.253  20.761  0.00  0.00    +0.000 A 
ATOM      8  C   UNL     1       1.792   2.397  19.926  0.00  0.00    +0.000 A 
ATOM      9  N   UNL     1       2.674   2.808  18.992  0.00  0.00    +0.000 NA
ATOM     10  C   UNL     1       2.943   4.139  18.894  0.00  0.00    +0.000 A 
ENDROOT
BRANCH   1  11
ATOM     11  N   UNL     1       5.320   3.897  17.953  0.00  0.00    +0.000 NA
ATOM     12  H   UNL     1       5.320   3.345  18.814  0.00  0.00    +0.000 HD
BRANCH  11  13
ATOM     13  C   UNL     1       6.488   4.787  18.054  0.00  0.00    +0.000 C 
BRANCH  13  14
ATOM     14  C   UNL     1       7.571   4.565  16.990  0.00  0.00    +0.000 C 
BRANCH  14  16
ATOM     15  C   UNL     1       6.914   4.891  14.748  0.00  0.00    +0.000 C 
ATOM     16  O   UNL     1       7.379   5.517  15.935  0.00  0.00    +0.000 OA
ENDBRANCH  14  16
ENDBRANCH  13  14
ENDBRANCH  11  13
ENDBRANCH   1  11
TORSDOF 4
ENDMDL
MODEL 4
REMARK VINA RESULT:      -6.3      1.885      2.191
REMARK  Name = 
REMARK  5 active torsions:
REMARK  status: ('A' for Active; 'I' for Inactive)
REMARK    1  A    between atoms: C_1  and  O_2
REMARK    2  A    between atoms: O_2  and  C_3
REMARK    3  A    between atoms: C_3  and  C_4
REMARK    4  A    between atoms: C_4  and  N_5
REMARK    5  A    between atoms: N_5  and  C_6
REMARK                            x       y       z     vdW  Elec       q    Type
REMARK                         _______ _______ _______ _____ _____    ______ ____
ROOT
ATOM      1  C   UNL     1       3.445   4.750  17.466  0.00  0.00    +0.000 C 
ATOM      2  C   UNL     1       3.871   6.210  17.744  0.00  0.00    +0.000 C 
ATOM      3  C   UNL     1       2.723   7.027  18.316  0.00  0.00    +0.000 C 
ATOM      4  C   UNL     1       2.326   6.465  19.677  0.00  0.00    +0.000 C 
ATOM      5  C   UNL     1       2.118   4.976  19.646  0.00  0.00    +0.000 A 
ATOM      6  C   UNL     1       1.422   4.364  20.696  0.00  0.00    +0.000 A 
ATOM      7  C   UNL     1       1.182   2.997  20.671  0.00  0.00    +0.000 A 
ATOM      8  C   UNL     1       1.620   2.288  19.574  0.00  0.00    +0.000 A 
ATOM      9  N   UNL     1       2.300   2.841  18.549  0.00  0.00    +0.000 NA
ATOM     10  C   UNL     1       2.614   4.164  18.617  0.00  0.00    +0.000 A 
ENDROOT
BRANCH   1  11
ATOM     11  N   UNL     1       4.715   4.050  17.144  0.00  0.00    +0.000 NA
ATOM     12  H   UNL     1       4.754   3.214  17.731  0.00  0.00    +0.000 HD
BRANCH  11  13
ATOM     13  C   UNL     1       5.950   4.796  17.434  0.00  0.00    +0.000 C 
BRANCH  13  14
ATOM     14  C   UNL     1       6.988   4.803  16.304  0.00  0.00    +0.000 C 
BRANCH  14  16
ATOM     15  C   UNL     1       7.420   6.846  17.403  0.00  0.00    +0.000 C 
ATOM     16  O   UNL     1       7.523   6.128  16.182  0.00  0.00    +0.000 OA
ENDBRANCH  14  16
ENDBRANCH  13  14
ENDBRANCH  11  13
ENDBRANCH   1  11
TORSDOF 4
ENDMDL
MODEL 5
REMARK VINA RESULT:      -6.2      1.141      1.342
REMARK  Name = 
REMARK  5 active torsions:
REMARK  status: ('A' for Active; 'I' for Inactive)
REMARK    1  A    between atoms: C_1  and  O_2
REMARK    2  A    between atoms: O_2  and  C_3
REMARK    3  A    between atoms: C_3  and  C_4
REMARK    4  A    between atoms: C_4  and  N_5
REMARK    5  A    between atoms: N_5  and  C_6
REMARK                            x       y       z     vdW  Elec       q    Type
REMARK                         _______ _______ _______ _____ _____    ______ ____
ROOT
ATOM      1  C   UNL     1       4.322   3.029  18.493  0.00  0.00    +0.000 C 
ATOM      2  C   UNL     1       3.971   3.880  17.251  0.00  0.00    +0.000 C 
ATOM      3  C   UNL     1       2.533   3.655  16.808  0.00  0.00    +0.000 C 
ATOM      4  C   UNL     1       1.584   4.138  17.899  0.00  0.00    +0.000 C 
ATOM      5  C   UNL     1       1.943   3.596  19.256  0.00  0.00    +0.000 A 
ATOM      6  C   UNL     1       0.992   3.649  20.283  0.00  0.00    +0.000 A 
ATOM      7  C   UNL     1       1.286   3.121  21.532  0.00  0.00    +0.000 A 
ATOM      8  C   UNL     1       2.515   2.523  21.704  0.00  0.00    +0.000 A 
ATOM      9  N   UNL     1       3.458   2.462  20.742  0.00  0.00    +0.000 NA
ATOM     10  C   UNL     1       3.205   3.060  19.545  0.00  0.00    +0.000 A 
ENDROOT
BRANCH   1  11
ATOM     11  N   UNL     1       5.650   3.535  18.923  0.00  0.00    +0.000 NA
ATOM     12  H   UNL     1       5.529   3.947  19.850  0.00  0.00    +0.000 HD
BRANCH  11  13
ATOM     13  C   UNL     1       6.233   4.600  18.090  0.00  0.00    +0.000 C 
BRANCH  13  14
ATOM     14  C   UNL     1       6.666   5.859  18.851  0.00  0.00    +0.000 C 
BRANCH  14  16
ATOM     15  C   UNL     1       7.640   7.625  17.626  0.00  0.00    +0.000 C 
ATOM     16  O   UNL     1       7.864   6.369  18.250  0.00  0.00    +0.000 OA
ENDBRANCH  14  16
ENDBRANCH  13  14
ENDBRANCH  11  13
ENDBRANCH   1  11
TORSDOF 4
ENDMDL
MODEL 6
REMARK VINA RESULT:      -6.1      2.418      5.126
REMARK  Name = 
REMARK  5 active torsions:
REMARK  status: ('A' for Active; 'I' for Inactive)
REMARK    1  A    between atoms: C_1  and  O_2
REMARK    2  A    between atoms: O_2  and  C_3
REMARK    3  A    between atoms: C_3  and  C_4
REMARK    4  A    between atoms: C_4  and  N_5
REMARK    5  A    between atoms: N_5  and  C_6
REMARK                            x       y       z     vdW  Elec       q    Type
REMARK                         _______ _______ _______ _____ _____    ______ ____
ROOT
ATOM      1  C   UNL     1       5.112   4.407  19.214  0.00  0.00    +0.000 C 
ATOM      2  C   UNL     1       3.705   4.930  19.586  0.00  0.00    +0.000 C 
ATOM      3  C   UNL     1       3.512   6.373  19.146  0.00  0.00    +0.000 C 
ATOM      4  C   UNL     1       3.573   6.453  17.625  0.00  0.00    +0.000 C 
ATOM      5  C   UNL     1       4.777   5.752  17.060  0.00  0.00    +0.000 A 
ATOM      6  C   UNL     1       5.168   6.027  15.743  0.00  0.00    +0.000 A 
ATOM      7  C   UNL     1       6.299   5.423  15.211  0.00  0.00    +0.000 A 
ATOM      8  C   UNL     1       7.025   4.585  16.029  0.00  0.00    +0.000 A 
ATOM      9  N   UNL     1       6.674   4.291  17.298  0.00  0.00    +0.000 NA
ATOM     10  C   UNL     1       5.516   4.811  17.789  0.00  0.00    +0.000 A 
ENDROOT
BRANCH   1  11
ATOM     11  N   UNL     1       5.049   2.949  19.495  0.00  0.00    +0.000 NA
ATOM     12  H   UNL     1       5.593   2.480  18.767  0.00  0.00    +0.000 HD
BRANCH  11  13
ATOM     13  C   UNL     1       3.710   2.342  19.441  0.00  0.00    +0.000 C 
BRANCH  13  14
ATOM     14  C   UNL     1       3.330   1.720  18.091  0.00  0.00    +0.000 C 
BRANCH  14  16
ATOM     15  C   UNL     1       1.132   2.339  18.686  0.00  0.00    +0.000 C 
ATOM     16  O   UNL     1       2.099   2.307  17.646  0.00  0.00    +0.000 OA
ENDBRANCH  14  16
ENDBRANCH  13  14
ENDBRANCH  11  13
ENDBRANCH   1  11
TORSDOF 4
ENDMDL
MODEL 7
REMARK VINA RESULT:      -6.0      1.955      2.549
REMARK  Name = 
REMARK  5 active torsions:
REMARK  status: ('A' for Active; 'I' for Inactive)
REMARK    1  A    between atoms: C_1  and  O_2
REMARK    2  A    between atoms: O_2  and  C_3
REMARK    3  A    between atoms: C_3  and  C_4
REMARK    4  A    between atoms: C_4  and  N_5
REMARK    5  A    between atoms: N_5  and  C_6
REMARK                            x       y       z     vdW  Elec       q    Type
REMARK                         _______ _______ _______ _____ _____    ______ ____
ROOT
ATOM      1  C   UNL     1       4.377   4.661  17.029  0.00  0.00    +0.000 C 
ATOM      2  C   UNL     1       4.780   6.074  17.511  0.00  0.00    +0.000 C 
ATOM      3  C   UNL     1       3.560   6.954  17.739  0.00  0.00    +0.000 C 
ATOM      4  C   UNL     1       2.719   6.374  18.871  0.00  0.00    +0.000 C 
ATOM      5  C   UNL     1       2.443   4.907  18.689  0.00  0.00    +0.000 A 
ATOM      6  C   UNL     1       1.413   4.313  19.431  0.00  0.00    +0.000 A 
ATOM      7  C   UNL     1       1.113   2.969  19.252  0.00  0.00    +0.000 A 
ATOM      8  C   UNL     1       1.833   2.269  18.309  0.00  0.00    +0.000 A 
ATOM      9  N   UNL     1       2.836   2.806  17.585  0.00  0.00    +0.000 NA
ATOM     10  C   UNL     1       3.191   4.098  17.824  0.00  0.00    +0.000 A 
ENDROOT
BRANCH   1  11
ATOM     11  N   UNL     1       5.640   3.880  17.083  0.00  0.00    +0.000 NA
ATOM     12  H   UNL     1       5.909   3.811  18.067  0.00  0.00    +0.000 HD
BRANCH  11  13
ATOM     13  C   UNL     1       6.796   4.480  16.398  0.00  0.00    +0.000 C 
BRANCH  13  14
ATOM     14  C   UNL     1       6.729   4.461  14.865  0.00  0.00    +0.000 C 
BRANCH  14  16
ATOM     15  C   UNL     1       7.889   5.247  12.967  0.00  0.00    +0.000 C 
ATOM     16  O   UNL     1       7.647   5.437  14.353  0.00  0.00    +0.000 OA
ENDBRANCH  14  16
ENDBRANCH  13  14
ENDBRANCH  11  13
ENDBRANCH   1  11
TORSDOF 4
ENDMDL
MODEL 8
REMARK VINA RESULT:      -6.0      2.154      2.697
REMARK  Name = 
REMARK  5 active torsions:
REMARK  status: ('A' for Active; 'I' for Inactive)
REMARK    1  A    between atoms: C_1  and  O_2
REMARK    2  A    between atoms: O_2  and  C_3
REMARK    3  A    between atoms: C_3  and  C_4
REMARK    4  A    between atoms: C_4  and  N_5
REMARK    5  A    between atoms: N_5  and  C_6
REMARK                            x       y       z     vdW  Elec       q    Type
REMARK                         _______ _______ _______ _____ _____    ______ ____
ROOT
ATOM      1  C   UNL     1       4.025   4.544  17.036  0.00  0.00    +0.000 C 
ATOM      2  C   UNL     1       4.555   5.917  17.512  0.00  0.00    +0.000 C 
ATOM      3  C   UNL     1       3.420   6.843  17.920  0.00  0.00    +0.000 C 
ATOM      4  C   UNL     1       2.697   6.258  19.128  0.00  0.00    +0.000 C 
ATOM      5  C   UNL     1       2.326   4.814  18.934  0.00  0.00    +0.000 A 
ATOM      6  C   UNL     1       1.367   4.239  19.778  0.00  0.00    +0.000 A 
ATOM      7  C   UNL     1       0.979   2.919  19.594  0.00  0.00    +0.000 A 
ATOM      8  C   UNL     1       1.540   2.224  18.545  0.00  0.00    +0.000 A 
ATOM      9  N   UNL     1       2.472   2.742  17.718  0.00  0.00    +0.000 NA
ATOM     10  C   UNL     1       2.919   4.006  17.955  0.00  0.00    +0.000 A 
ENDROOT
BRANCH   1  11
ATOM     11  N   UNL     1       5.243   3.704  16.905  0.00  0.00    +0.000 NA
ATOM     12  H   UNL     1       5.764   3.791  17.780  0.00  0.00    +0.000 HD
BRANCH  11  13
ATOM     13  C   UNL     1       6.184   4.099  15.845  0.00  0.00    +0.000 C 
BRANCH  13  14
ATOM     14  C   UNL     1       5.571   4.232  14.445  0.00  0.00    +0.000 C 
BRANCH  14  16
ATOM     15  C   UNL     1       5.886   3.318  12.292  0.00  0.00    +0.000 C 
ATOM     16  O   UNL     1       6.524   3.765  13.480  0.00  0.00    +0.000 OA
ENDBRANCH  14  16
ENDBRANCH  13  14
ENDBRANCH  11  13
ENDBRANCH   1  11
TORSDOF 4
ENDMDL
MODEL 9
REMARK VINA RESULT:      -6.0      2.507      5.260
REMARK  Name = 
REMARK  5 active torsions:
REMARK  status: ('A' for Active; 'I' for Inactive)
REMARK    1  A    between atoms: C_1  and  O_2
REMARK    2  A    between atoms: O_2  and  C_3
REMARK    3  A    between atoms: C_3  and  C_4
REMARK    4  A    between atoms: C_4  and  N_5
REMARK    5  A    between atoms: N_5  and  C_6
REMARK                            x       y       z     vdW  Elec       q    Type
REMARK                         _______ _______ _______ _____ _____    ______ ____
ROOT
ATOM      1  C   UNL     1       4.648   4.114  18.973  0.00  0.00    +0.000 C 
ATOM      2  C   UNL     1       3.753   4.031  17.716  0.00  0.00    +0.000 C 
ATOM      3  C   UNL     1       3.502   5.406  17.117  0.00  0.00    +0.000 C 
ATOM      4  C   UNL     1       4.820   5.994  16.625  0.00  0.00    +0.000 C 
ATOM      5  C   UNL     1       5.906   5.920  17.663  0.00  0.00    +0.000 A 
ATOM      6  C   UNL     1       7.048   6.716  17.509  0.00  0.00    +0.000 A 
ATOM      7  C   UNL     1       8.047   6.695  18.473  0.00  0.00    +0.000 A 
ATOM      8  C   UNL     1       7.854   5.900  19.581  0.00  0.00    +0.000 A 
ATOM      9  N   UNL     1       6.772   5.115  19.758  0.00  0.00    +0.000 NA
ATOM     10  C   UNL     1       5.836   5.066  18.771  0.00  0.00    +0.000 A 
ENDROOT
BRANCH   1  11
ATOM     11  N   UNL     1       4.980   2.700  19.284  0.00  0.00    +0.000 NA
ATOM     12  H   UNL     1       4.790   2.155  18.441  0.00  0.00    +0.000 HD
BRANCH  11  13
ATOM     13  C   UNL     1       4.180   2.072  20.349  0.00  0.00    +0.000 C 
BRANCH  13  14
ATOM     14  C   UNL     1       3.036   2.934  20.899  0.00  0.00    +0.000 C 
BRANCH  14  16
ATOM     15  C   UNL     1       0.924   3.593  20.079  0.00  0.00    +0.000 C 
ATOM     16  O   UNL     1       1.807   2.503  20.297  0.00  0.00    +0.000 OA
ENDBRANCH  14  16
ENDBRANCH  13  14
ENDBRANCH  11  13
ENDBRANCH   1  11
TORSDOF 4
ENDMDL
