MODEL 1
REMARK VINA RESULT:      -8.4      0.000      0.000
REMARK  Name = 
REMARK  4 active torsions:
REMARK  status: ('A' for Active; 'I' for Inactive)
REMARK    1  A    between atoms: O_1  and  C_2
REMARK    2  A    between atoms: C_16  and  O_17
REMARK    3  A    between atoms: C_20  and  C_21
REMARK    4  A    between atoms: C_24  and  C_25
REMARK                            x       y       z     vdW  Elec       q    Type
REMARK                         _______ _______ _______ _____ _____    ______ ____
ROOT
ATOM      1  C   UNL     1       0.511  10.455  19.956  0.00  0.00    +0.000 A 
ATOM      2  C   UNL     1       0.610   9.577  21.029  0.00  0.00    +0.000 A 
ATOM      3  C   UNL     1       1.280   8.358  20.866  0.00  0.00    +0.000 A 
ATOM      4  C   UNL     1       1.863   8.015  19.633  0.00  0.00    +0.000 A 
ATOM      5  C   UNL     1       1.747   8.929  18.577  0.00  0.00    +0.000 A 
ATOM      6  C   UNL     1       1.068  10.136  18.725  0.00  0.00    +0.000 A 
ATOM      7  O   UNL     1       2.244   8.650  17.332  0.00  0.00    +0.000 OA
ATOM      8  C   UNL     1       3.420   7.826  17.354  0.00  0.00    +0.000 C 
ATOM      9  C   UNL     1       3.366   6.615  18.259  0.00  0.00    +0.000 A 
ATOM     10  C   UNL     1       2.574   6.755  19.397  0.00  0.00    +0.000 A 
ATOM     11  N   UNL     1       2.419   5.780  20.317  0.00  0.00    +0.000 NA
ATOM     12  C   UNL     1       3.074   4.627  20.143  0.00  0.00    +0.000 A 
ATOM     13  C   UNL     1       2.830   3.629  21.084  0.00  0.00    +0.000 A 
ATOM     14  C   UNL     1       3.440   2.378  21.016  0.00  0.00    +0.000 A 
ATOM     15  C   UNL     1       4.348   2.142  20.008  0.00  0.00    +0.000 A 
ATOM     16  C   UNL     1       4.640   3.134  19.077  0.00  0.00    +0.000 A 
ATOM     17  C   UNL     1       3.962   4.388  19.071  0.00  0.00    +0.000 A 
ATOM     18  C   UNL     1       4.117   5.422  18.072  0.00  0.00    +0.000 A 
ENDROOT
BRANCH  18  19
ATOM     19  C   UNL     1       5.024   5.245  16.888  0.00  0.00    +0.000 A 
ATOM     20  C   UNL     1       6.297   5.846  16.829  0.00  0.00    +0.000 A 
ATOM     21  C   UNL     1       7.086   5.806  15.669  0.00  0.00    +0.000 A 
ATOM     22  C   UNL     1       6.681   5.058  14.560  0.00  0.00    +0.000 A 
ATOM     23  C   UNL     1       5.478   4.353  14.642  0.00  0.00    +0.000 A 
ATOM     24  C   UNL     1       4.647   4.489  15.762  0.00  0.00    +0.000 A 
BRANCH  22  25
ATOM     25  C   UNL     1       7.497   5.014  13.293  0.00  0.00    +0.000 C 
ATOM     26  F   UNL     1       7.243   6.047  12.443  0.00  0.00    +0.000 F 
ATOM     27  F   UNL     1       8.836   5.043  13.532  0.00  0.00    +0.000 F 
ATOM     28  F   UNL     1       7.272   3.878  12.572  0.00  0.00    +0.000 F 
ENDBRANCH  22  25
ENDBRANCH  18  19
BRANCH   1  29
ATOM     29  O   UNL     1      -0.133  11.651  20.070  0.00  0.00    +0.000 OA
ATOM     30  H   UNL     1       0.261  12.147  20.808  0.00  0.00    +0.000 HD
ENDBRANCH   1  29
BRANCH  15  31
ATOM     31  O   UNL     1       4.978   0.941  19.873  0.00  0.00    +0.000 OA
ATOM     32  H   UNL     1       5.314   0.661  20.742  0.00  0.00    +0.000 HD
ENDBRANCH  15  31
TORSDOF 4
ENDMDL
MODEL 2
REMARK VINA RESULT:      -8.4      4.195      6.310
REMARK  Name = 
REMARK  4 active torsions:
REMARK  status: ('A' for Active; 'I' for Inactive)
REMARK    1  A    between atoms: O_1  and  C_2
REMARK    2  A    between atoms: C_16  and  O_17
REMARK    3  A    between atoms: C_20  and  C_21
REMARK    4  A    between atoms: C_24  and  C_25
REMARK                            x       y       z     vdW  Elec       q    Type
REMARK                         _______ _______ _______ _____ _____    ______ ____
ROOT
ATOM      1  C   UNL     1       1.309   2.915  20.056  0.00  0.00    +0.000 A 
ATOM      2  C   UNL     1       1.700   2.148  18.964  0.00  0.00    +0.000 A 
ATOM      3  C   UNL     1       2.695   2.627  18.103  0.00  0.00    +0.000 A 
ATOM      4  C   UNL     1       3.311   3.870  18.334  0.00  0.00    +0.000 A 
ATOM      5  C   UNL     1       2.894   4.611  19.448  0.00  0.00    +0.000 A 
ATOM      6  C   UNL     1       1.893   4.150  20.300  0.00  0.00    +0.000 A 
ATOM      7  O   UNL     1       3.408   5.851  19.715  0.00  0.00    +0.000 OA
ATOM      8  C   UNL     1       4.776   6.007  19.305  0.00  0.00    +0.000 C 
ATOM      9  C   UNL     1       5.114   5.508  17.918  0.00  0.00    +0.000 A 
ATOM     10  C   UNL     1       4.356   4.428  17.469  0.00  0.00    +0.000 A 
ATOM     11  N   UNL     1       4.528   3.851  16.262  0.00  0.00    +0.000 NA
ATOM     12  C   UNL     1       5.488   4.322  15.459  0.00  0.00    +0.000 A 
ATOM     13  C   UNL     1       5.583   3.736  14.199  0.00  0.00    +0.000 A 
ATOM     14  C   UNL     1       6.533   4.138  13.262  0.00  0.00    +0.000 A 
ATOM     15  C   UNL     1       7.436   5.116  13.617  0.00  0.00    +0.000 A 
ATOM     16  C   UNL     1       7.389   5.690  14.884  0.00  0.00    +0.000 A 
ATOM     17  C   UNL     1       6.370   5.362  15.825  0.00  0.00    +0.000 A 
ATOM     18  C   UNL     1       6.178   5.997  17.110  0.00  0.00    +0.000 A 
ENDROOT
BRANCH  18  19
ATOM     19  C   UNL     1       7.056   7.125  17.572  0.00  0.00    +0.000 A 
ATOM     20  C   UNL     1       8.097   6.926  18.500  0.00  0.00    +0.000 A 
ATOM     21  C   UNL     1       8.824   7.996  19.044  0.00  0.00    +0.000 A 
ATOM     22  C   UNL     1       8.615   9.301  18.590  0.00  0.00    +0.000 A 
ATOM     23  C   UNL     1       7.671   9.506  17.580  0.00  0.00    +0.000 A 
ATOM     24  C   UNL     1       6.876   8.446  17.123  0.00  0.00    +0.000 A 
BRANCH  22  25
ATOM     25  C   UNL     1       9.364  10.473  19.171  0.00  0.00    +0.000 C 
ATOM     26  F   UNL     1       8.832  11.682  18.838  0.00  0.00    +0.000 F 
ATOM     27  F   UNL     1       9.408  10.442  20.531  0.00  0.00    +0.000 F 
ATOM     28  F   UNL     1      10.663  10.514  18.757  0.00  0.00    +0.000 F 
ENDBRANCH  22  25
ENDBRANCH  18  19
BRANCH   1  29
ATOM     29  O   UNL     1       0.344   2.488  20.918  0.00  0.00    +0.000 OA
ATOM     30  H   UNL     1      -0.238   1.866  20.449  0.00  0.00    +0.000 HD
ENDBRANCH   1  29
BRANCH  15  31
ATOM     31  O   UNL     1       8.389   5.564  12.753  0.00  0.00    +0.000 OA
ATOM     32  H   UNL     1       7.958   5.874  11.938  0.00  0.00    +0.000 HD
ENDBRANCH  15  31
TORSDOF 4
ENDMDL
MODEL 3
REMARK VINA RESULT:      -8.2      4.034      6.255
REMARK  Name = 
REMARK  4 active torsions:
REMARK  status: ('A' for Active; 'I' for Inactive)
REMARK    1  A    between atoms: O_1  and  C_2
REMARK    2  A    between atoms: C_16  and  O_17
REMARK    3  A    between atoms: C_20  and  C_21
REMARK    4  A    between atoms: C_24  and  C_25
REMARK                            x       y       z     vdW  Elec       q    Type
REMARK                         _______ _______ _______ _____ _____    ______ ____
ROOT
ATOM      1  C   UNL     1       1.340   2.790  20.191  0.00  0.00    +0.000 A 
ATOM      2  C   UNL     1       1.770   2.011  19.123  0.00  0.00    +0.000 A 
ATOM      3  C   UNL     1       2.741   2.512  18.248  0.00  0.00    +0.000 A 
ATOM      4  C   UNL     1       3.295   3.790  18.441  0.00  0.00    +0.000 A 
ATOM      5  C   UNL     1       2.841   4.543  19.532  0.00  0.00    +0.000 A 
ATOM      6  C   UNL     1       1.863   4.059  20.398  0.00  0.00    +0.000 A 
ATOM      7  O   UNL     1       3.293   5.814  19.761  0.00  0.00    +0.000 OA
ATOM      8  C   UNL     1       4.652   6.025  19.347  0.00  0.00    +0.000 C 
ATOM      9  C   UNL     1       5.016   5.502  17.975  0.00  0.00    +0.000 A 
ATOM     10  C   UNL     1       4.312   4.373  17.560  0.00  0.00    +0.000 A 
ATOM     11  N   UNL     1       4.514   3.769  16.370  0.00  0.00    +0.000 NA
ATOM     12  C   UNL     1       5.451   4.262  15.554  0.00  0.00    +0.000 A 
ATOM     13  C   UNL     1       5.577   3.644  14.312  0.00  0.00    +0.000 A 
ATOM     14  C   UNL     1       6.508   4.062  13.363  0.00  0.00    +0.000 A 
ATOM     15  C   UNL     1       7.360   5.094  13.688  0.00  0.00    +0.000 A 
ATOM     16  C   UNL     1       7.283   5.703  14.937  0.00  0.00    +0.000 A 
ATOM     17  C   UNL     1       6.281   5.354  15.888  0.00  0.00    +0.000 A 
ATOM     18  C   UNL     1       6.056   6.018  17.153  0.00  0.00    +0.000 A 
ENDROOT
BRANCH  18  19
ATOM     19  C   UNL     1       6.877   7.201  17.581  0.00  0.00    +0.000 A 
ATOM     20  C   UNL     1       6.593   8.506  17.131  0.00  0.00    +0.000 A 
ATOM     21  C   UNL     1       7.440   9.589  17.410  0.00  0.00    +0.000 A 
ATOM     22  C   UNL     1       8.545   9.430  18.250  0.00  0.00    +0.000 A 
ATOM     23  C   UNL     1       8.776   8.169  18.807  0.00  0.00    +0.000 A 
ATOM     24  C   UNL     1       7.988   7.072  18.435  0.00  0.00    +0.000 A 
BRANCH  22  25
ATOM     25  C   UNL     1       9.486  10.570  18.549  0.00  0.00    +0.000 C 
ATOM     26  F   UNL     1      10.394  10.802  17.561  0.00  0.00    +0.000 F 
ATOM     27  F   UNL     1       8.833  11.748  18.746  0.00  0.00    +0.000 F 
ATOM     28  F   UNL     1      10.216  10.355  19.680  0.00  0.00    +0.000 F 
ENDBRANCH  22  25
ENDBRANCH  18  19
BRANCH   1  29
ATOM     29  O   UNL     1       0.396   2.343  21.066  0.00  0.00    +0.000 OA
ATOM     30  H   UNL     1       0.349   2.961  21.815  0.00  0.00    +0.000 HD
ENDBRANCH   1  29
BRANCH  15  31
ATOM     31  O   UNL     1       8.291   5.563  12.811  0.00  0.00    +0.000 OA
ATOM     32  H   UNL     1       7.891   5.626  11.927  0.00  0.00    +0.000 HD
ENDBRANCH  15  31
TORSDOF 4
ENDMDL
MODEL 4
REMARK VINA RESULT:      -8.0      0.474      1.210
REMARK  Name = 
REMARK  4 active torsions:
REMARK  status: ('A' for Active; 'I' for Inactive)
REMARK    1  A    between atoms: O_1  and  C_2
REMARK    2  A    between atoms: C_16  and  O_17
REMARK    3  A    between atoms: C_20  and  C_21
REMARK    4  A    between atoms: C_24  and  C_25
REMARK                            x       y       z     vdW  Elec       q    Type
REMARK                         _______ _______ _______ _____ _____    ______ ____
ROOT
ATOM      1  C   UNL     1       0.079  10.530  20.365  0.00  0.00    +0.000 A 
ATOM      2  C   UNL     1       0.250   9.639  21.419  0.00  0.00    +0.000 A 
ATOM      3  C   UNL     1       0.954   8.448  21.209  0.00  0.00    +0.000 A 
ATOM      4  C   UNL     1       1.500   8.144  19.949  0.00  0.00    +0.000 A 
ATOM      5  C   UNL     1       1.311   9.070  18.914  0.00  0.00    +0.000 A 
ATOM      6  C   UNL     1       0.597  10.250  19.108  0.00  0.00    +0.000 A 
ATOM      7  O   UNL     1       1.767   8.828  17.646  0.00  0.00    +0.000 OA
ATOM      8  C   UNL     1       2.972   8.046  17.608  0.00  0.00    +0.000 C 
ATOM      9  C   UNL     1       2.996   6.820  18.494  0.00  0.00    +0.000 A 
ATOM     10  C   UNL     1       2.245   6.914  19.664  0.00  0.00    +0.000 A 
ATOM     11  N   UNL     1       2.160   5.920  20.572  0.00  0.00    +0.000 NA
ATOM     12  C   UNL     1       2.846   4.793  20.354  0.00  0.00    +0.000 A 
ATOM     13  C   UNL     1       2.674   3.773  21.287  0.00  0.00    +0.000 A 
ATOM     14  C   UNL     1       3.324   2.546  21.175  0.00  0.00    +0.000 A 
ATOM     15  C   UNL     1       4.199   2.357  20.128  0.00  0.00    +0.000 A 
ATOM     16  C   UNL     1       4.420   3.374  19.204  0.00  0.00    +0.000 A 
ATOM     17  C   UNL     1       3.699   4.603  19.245  0.00  0.00    +0.000 A 
ATOM     18  C   UNL     1       3.779   5.656  18.258  0.00  0.00    +0.000 A 
ENDROOT
BRANCH  18  19
ATOM     19  C   UNL     1       4.645   5.530  17.037  0.00  0.00    +0.000 A 
ATOM     20  C   UNL     1       4.335   4.636  15.994  0.00  0.00    +0.000 A 
ATOM     21  C   UNL     1       5.213   4.409  14.923  0.00  0.00    +0.000 A 
ATOM     22  C   UNL     1       6.385   5.158  14.794  0.00  0.00    +0.000 A 
ATOM     23  C   UNL     1       6.652   6.138  15.754  0.00  0.00    +0.000 A 
ATOM     24  C   UNL     1       5.825   6.280  16.876  0.00  0.00    +0.000 A 
BRANCH  22  25
ATOM     25  C   UNL     1       7.358   4.921  13.667  0.00  0.00    +0.000 C 
ATOM     26  F   UNL     1       8.655   4.831  14.074  0.00  0.00    +0.000 F 
ATOM     27  F   UNL     1       7.097   3.773  12.984  0.00  0.00    +0.000 F 
ATOM     28  F   UNL     1       7.330   5.921  12.740  0.00  0.00    +0.000 F 
ENDBRANCH  22  25
ENDBRANCH  18  19
BRANCH   1  29
ATOM     29  O   UNL     1      -0.602  11.701  20.524  0.00  0.00    +0.000 OA
ATOM     30  H   UNL     1      -0.212  12.188  21.269  0.00  0.00    +0.000 HD
ENDBRANCH   1  29
BRANCH  15  31
ATOM     31  O   UNL     1       4.865   1.182  19.949  0.00  0.00    +0.000 OA
ATOM     32  H   UNL     1       4.358   0.619  19.340  0.00  0.00    +0.000 HD
ENDBRANCH  15  31
TORSDOF 4
ENDMDL
MODEL 5
REMARK VINA RESULT:      -8.0      4.680      8.067
REMARK  Name = 
REMARK  4 active torsions:
REMARK  status: ('A' for Active; 'I' for Inactive)
REMARK    1  A    between atoms: O_1  and  C_2
REMARK    2  A    between atoms: C_16  and  O_17
REMARK    3  A    between atoms: C_20  and  C_21
REMARK    4  A    between atoms: C_24  and  C_25
REMARK                            x       y       z     vdW  Elec       q    Type
REMARK                         _______ _______ _______ _____ _____    ______ ____
ROOT
ATOM      1  C   UNL     1      -2.432  14.604  24.133  0.00  0.00    +0.000 A 
ATOM      2  C   UNL     1      -3.561  14.444  23.336  0.00  0.00    +0.000 A 
ATOM      3  C   UNL     1      -3.477  13.680  22.166  0.00  0.00    +0.000 A 
ATOM      4  C   UNL     1      -2.271  13.065  21.790  0.00  0.00    +0.000 A 
ATOM      5  C   UNL     1      -1.157  13.244  22.622  0.00  0.00    +0.000 A 
ATOM      6  C   UNL     1      -1.226  14.016  23.779  0.00  0.00    +0.000 A 
ATOM      7  O   UNL     1       0.066  12.720  22.302  0.00  0.00    +0.000 OA
ATOM      8  C   UNL     1      -0.011  11.482  21.576  0.00  0.00    +0.000 C 
ATOM      9  C   UNL     1      -0.993  11.447  20.426  0.00  0.00    +0.000 A 
ATOM     10  C   UNL     1      -2.118  12.255  20.577  0.00  0.00    +0.000 A 
ATOM     11  N   UNL     1      -3.099  12.340  19.654  0.00  0.00    +0.000 NA
ATOM     12  C   UNL     1      -3.002  11.596  18.547  0.00  0.00    +0.000 A 
ATOM     13  C   UNL     1      -4.006  11.768  17.597  0.00  0.00    +0.000 A 
ATOM     14  C   UNL     1      -4.021  11.061  16.396  0.00  0.00    +0.000 A 
ATOM     15  C   UNL     1      -3.031  10.132  16.166  0.00  0.00    +0.000 A 
ATOM     16  C   UNL     1      -2.038   9.912  17.116  0.00  0.00    +0.000 A 
ATOM     17  C   UNL     1      -1.950  10.685  18.310  0.00  0.00    +0.000 A 
ATOM     18  C   UNL     1      -0.885  10.605  19.285  0.00  0.00    +0.000 A 
ENDROOT
BRANCH  18  19
ATOM     19  C   UNL     1       0.284   9.679  19.104  0.00  0.00    +0.000 A 
ATOM     20  C   UNL     1       1.071   9.694  17.936  0.00  0.00    +0.000 A 
ATOM     21  C   UNL     1       2.070   8.737  17.699  0.00  0.00    +0.000 A 
ATOM     22  C   UNL     1       2.399   7.797  18.679  0.00  0.00    +0.000 A 
ATOM     23  C   UNL     1       1.713   7.842  19.896  0.00  0.00    +0.000 A 
ATOM     24  C   UNL     1       0.645   8.730  20.078  0.00  0.00    +0.000 A 
BRANCH  22  25
ATOM     25  C   UNL     1       3.452   6.742  18.445  0.00  0.00    +0.000 C 
ATOM     26  F   UNL     1       3.934   6.188  19.592  0.00  0.00    +0.000 F 
ATOM     27  F   UNL     1       2.995   5.707  17.689  0.00  0.00    +0.000 F 
ATOM     28  F   UNL     1       4.539   7.235  17.787  0.00  0.00    +0.000 F 
ENDBRANCH  22  25
ENDBRANCH  18  19
BRANCH   1  29
ATOM     29  O   UNL     1      -2.467  15.340  25.279  0.00  0.00    +0.000 OA
ATOM     30  H   UNL     1      -2.011  14.845  25.981  0.00  0.00    +0.000 HD
ENDBRANCH   1  29
BRANCH  15  31
ATOM     31  O   UNL     1      -2.976   9.408  15.013  0.00  0.00    +0.000 OA
ATOM     32  H   UNL     1      -3.526   8.612  15.111  0.00  0.00    +0.000 HD
ENDBRANCH  15  31
TORSDOF 4
ENDMDL
MODEL 6
REMARK VINA RESULT:      -7.9      4.534      7.406
REMARK  Name = 
REMARK  4 active torsions:
REMARK  status: ('A' for Active; 'I' for Inactive)
REMARK    1  A    between atoms: O_1  and  C_2
REMARK    2  A    between atoms: C_16  and  O_17
REMARK    3  A    between atoms: C_20  and  C_21
REMARK    4  A    between atoms: C_24  and  C_25
REMARK                            x       y       z     vdW  Elec       q    Type
REMARK                         _______ _______ _______ _____ _____    ______ ____
ROOT
ATOM      1  C   UNL     1       7.091   4.842  13.582  0.00  0.00    +0.000 A 
ATOM      2  C   UNL     1       6.491   3.618  13.854  0.00  0.00    +0.000 A 
ATOM      3  C   UNL     1       5.597   3.510  14.927  0.00  0.00    +0.000 A 
ATOM      4  C   UNL     1       5.292   4.625  15.727  0.00  0.00    +0.000 A 
ATOM      5  C   UNL     1       5.913   5.842  15.418  0.00  0.00    +0.000 A 
ATOM      6  C   UNL     1       6.816   5.956  14.364  0.00  0.00    +0.000 A 
ATOM      7  O   UNL     1       5.708   6.963  16.177  0.00  0.00    +0.000 OA
ATOM      8  C   UNL     1       4.396   7.030  16.759  0.00  0.00    +0.000 C 
ATOM      9  C   UNL     1       3.896   5.764  17.419  0.00  0.00    +0.000 A 
ATOM     10  C   UNL     1       4.368   4.576  16.865  0.00  0.00    +0.000 A 
ATOM     11  N   UNL     1       4.019   3.355  17.321  0.00  0.00    +0.000 NA
ATOM     12  C   UNL     1       3.159   3.276  18.343  0.00  0.00    +0.000 A 
ATOM     13  C   UNL     1       2.881   1.997  18.819  0.00  0.00    +0.000 A 
ATOM     14  C   UNL     1       2.010   1.773  19.883  0.00  0.00    +0.000 A 
ATOM     15  C   UNL     1       1.371   2.853  20.450  0.00  0.00    +0.000 A 
ATOM     16  C   UNL     1       1.600   4.138  19.967  0.00  0.00    +0.000 A 
ATOM     17  C   UNL     1       2.555   4.402  18.942  0.00  0.00    +0.000 A 
ATOM     18  C   UNL     1       2.940   5.714  18.471  0.00  0.00    +0.000 A 
ENDROOT
BRANCH  18  19
ATOM     19  C   UNL     1       2.363   6.967  19.065  0.00  0.00    +0.000 A 
ATOM     20  C   UNL     1       2.119   7.092  20.446  0.00  0.00    +0.000 A 
ATOM     21  C   UNL     1       1.448   8.200  20.986  0.00  0.00    +0.000 A 
ATOM     22  C   UNL     1       1.099   9.283  20.175  0.00  0.00    +0.000 A 
ATOM     23  C   UNL     1       1.441   9.233  18.822  0.00  0.00    +0.000 A 
ATOM     24  C   UNL     1       2.012   8.077  18.274  0.00  0.00    +0.000 A 
BRANCH  22  25
ATOM     25  C   UNL     1       0.357  10.477  20.723  0.00  0.00    +0.000 C 
ATOM     26  F   UNL     1       1.043  11.648  20.603  0.00  0.00    +0.000 F 
ATOM     27  F   UNL     1      -0.839  10.677  20.105  0.00  0.00    +0.000 F 
ATOM     28  F   UNL     1       0.075  10.347  22.050  0.00  0.00    +0.000 F 
ENDBRANCH  22  25
ENDBRANCH  18  19
BRANCH   1  29
ATOM     29  O   UNL     1       7.968   4.993  12.550  0.00  0.00    +0.000 OA
ATOM     30  H   UNL     1       7.697   4.407  11.824  0.00  0.00    +0.000 HD
ENDBRANCH   1  29
BRANCH  15  31
ATOM     31  O   UNL     1       0.511   2.714  21.497  0.00  0.00    +0.000 OA
ATOM     32  H   UNL     1       0.753   3.348  22.193  0.00  0.00    +0.000 HD
ENDBRANCH  15  31
TORSDOF 4
ENDMDL
MODEL 7
REMARK VINA RESULT:      -7.5      4.441      7.357
REMARK  Name = 
REMARK  4 active torsions:
REMARK  status: ('A' for Active; 'I' for Inactive)
REMARK    1  A    between atoms: O_1  and  C_2
REMARK    2  A    between atoms: C_16  and  O_17
REMARK    3  A    between atoms: C_20  and  C_21
REMARK    4  A    between atoms: C_24  and  C_25
REMARK                            x       y       z     vdW  Elec       q    Type
REMARK                         _______ _______ _______ _____ _____    ______ ____
ROOT
ATOM      1  C   UNL     1       7.037   4.904  13.738  0.00  0.00    +0.000 A 
ATOM      2  C   UNL     1       6.512   3.658  14.063  0.00  0.00    +0.000 A 
ATOM      3  C   UNL     1       5.629   3.541  15.143  0.00  0.00    +0.000 A 
ATOM      4  C   UNL     1       5.259   4.667  15.898  0.00  0.00    +0.000 A 
ATOM      5  C   UNL     1       5.804   5.906  15.536  0.00  0.00    +0.000 A 
ATOM      6  C   UNL     1       6.697   6.030  14.474  0.00  0.00    +0.000 A 
ATOM      7  O   UNL     1       5.534   7.043  16.250  0.00  0.00    +0.000 OA
ATOM      8  C   UNL     1       4.222   7.056  16.834  0.00  0.00    +0.000 C 
ATOM      9  C   UNL     1       3.800   5.790  17.548  0.00  0.00    +0.000 A 
ATOM     10  C   UNL     1       4.342   4.610  17.041  0.00  0.00    +0.000 A 
ATOM     11  N   UNL     1       4.068   3.391  17.549  0.00  0.00    +0.000 NA
ATOM     12  C   UNL     1       3.217   3.302  18.577  0.00  0.00    +0.000 A 
ATOM     13  C   UNL     1       3.017   2.030  19.107  0.00  0.00    +0.000 A 
ATOM     14  C   UNL     1       2.163   1.798  20.183  0.00  0.00    +0.000 A 
ATOM     15  C   UNL     1       1.461   2.861  20.708  0.00  0.00    +0.000 A 
ATOM     16  C   UNL     1       1.612   4.137  20.171  0.00  0.00    +0.000 A 
ATOM     17  C   UNL     1       2.546   4.414  19.132  0.00  0.00    +0.000 A 
ATOM     18  C   UNL     1       2.851   5.726  18.605  0.00  0.00    +0.000 A 
ENDROOT
BRANCH  18  19
ATOM     19  C   UNL     1       2.201   6.966  19.150  0.00  0.00    +0.000 A 
ATOM     20  C   UNL     1       1.839   8.043  18.318  0.00  0.00    +0.000 A 
ATOM     21  C   UNL     1       1.367   9.259  18.837  0.00  0.00    +0.000 A 
ATOM     22  C   UNL     1       1.127   9.400  20.206  0.00  0.00    +0.000 A 
ATOM     23  C   UNL     1       1.363   8.301  21.036  0.00  0.00    +0.000 A 
ATOM     24  C   UNL     1       1.937   7.131  20.522  0.00  0.00    +0.000 A 
BRANCH  22  25
ATOM     25  C   UNL     1       0.641  10.701  20.796  0.00  0.00    +0.000 C 
ATOM     26  F   UNL     1       0.435  10.647  22.141  0.00  0.00    +0.000 F 
ATOM     27  F   UNL     1       1.512  11.726  20.588  0.00  0.00    +0.000 F 
ATOM     28  F   UNL     1      -0.544  11.103  20.255  0.00  0.00    +0.000 F 
ENDBRANCH  22  25
ENDBRANCH  18  19
BRANCH   1  29
ATOM     29  O   UNL     1       7.902   5.064  12.697  0.00  0.00    +0.000 OA
ATOM     30  H   UNL     1       8.185   4.186  12.390  0.00  0.00    +0.000 HD
ENDBRANCH   1  29
BRANCH  15  31
ATOM     31  O   UNL     1       0.613   2.713  21.764  0.00  0.00    +0.000 OA
ATOM     32  H   UNL     1       1.118   2.407  22.536  0.00  0.00    +0.000 HD
ENDBRANCH  15  31
TORSDOF 4
ENDMDL
MODEL 8
REMARK VINA RESULT:      -7.1      1.195      1.310
REMARK  Name = 
REMARK  4 active torsions:
REMARK  status: ('A' for Active; 'I' for Inactive)
REMARK    1  A    between atoms: O_1  and  C_2
REMARK    2  A    between atoms: C_16  and  O_17
REMARK    3  A    between atoms: C_20  and  C_21
REMARK    4  A    between atoms: C_24  and  C_25
REMARK                            x       y       z     vdW  Elec       q    Type
REMARK                         _______ _______ _______ _____ _____    ______ ____
ROOT
ATOM      1  C   UNL     1       0.654  11.053  20.596  0.00  0.00    +0.000 A 
ATOM      2  C   UNL     1       0.449  10.056  21.544  0.00  0.00    +0.000 A 
ATOM      3  C   UNL     1       0.836   8.742  21.257  0.00  0.00    +0.000 A 
ATOM      4  C   UNL     1       1.437   8.418  20.028  0.00  0.00    +0.000 A 
ATOM      5  C   UNL     1       1.632   9.451  19.102  0.00  0.00    +0.000 A 
ATOM      6  C   UNL     1       1.235  10.759  19.371  0.00  0.00    +0.000 A 
ATOM      7  O   UNL     1       2.165   9.211  17.864  0.00  0.00    +0.000 OA
ATOM      8  C   UNL     1       3.116   8.134  17.847  0.00  0.00    +0.000 C 
ATOM      9  C   UNL     1       2.704   6.873  18.572  0.00  0.00    +0.000 A 
ATOM     10  C   UNL     1       1.862   7.061  19.667  0.00  0.00    +0.000 A 
ATOM     11  N   UNL     1       1.404   6.049  20.433  0.00  0.00    +0.000 NA
ATOM     12  C   UNL     1       1.792   4.803  20.145  0.00  0.00    +0.000 A 
ATOM     13  C   UNL     1       1.241   3.788  20.924  0.00  0.00    +0.000 A 
ATOM     14  C   UNL     1       1.554   2.445  20.724  0.00  0.00    +0.000 A 
ATOM     15  C   UNL     1       2.474   2.120  19.751  0.00  0.00    +0.000 A 
ATOM     16  C   UNL     1       3.069   3.117  18.986  0.00  0.00    +0.000 A 
ATOM     17  C   UNL     1       2.698   4.488  19.109  0.00  0.00    +0.000 A 
ATOM     18  C   UNL     1       3.177   5.566  18.272  0.00  0.00    +0.000 A 
ENDROOT
BRANCH  18  19
ATOM     19  C   UNL     1       4.126   5.320  17.133  0.00  0.00    +0.000 A 
ATOM     20  C   UNL     1       4.693   6.377  16.395  0.00  0.00    +0.000 A 
ATOM     21  C   UNL     1       5.463   6.151  15.244  0.00  0.00    +0.000 A 
ATOM     22  C   UNL     1       5.793   4.851  14.853  0.00  0.00    +0.000 A 
ATOM     23  C   UNL     1       5.342   3.789  15.642  0.00  0.00    +0.000 A 
ATOM     24  C   UNL     1       4.484   4.021  16.726  0.00  0.00    +0.000 A 
BRANCH  22  25
ATOM     25  C   UNL     1       6.599   4.577  13.608  0.00  0.00    +0.000 C 
ATOM     26  F   UNL     1       7.677   5.397  13.464  0.00  0.00    +0.000 F 
ATOM     27  F   UNL     1       7.084   3.306  13.570  0.00  0.00    +0.000 F 
ATOM     28  F   UNL     1       5.862   4.730  12.471  0.00  0.00    +0.000 F 
ENDBRANCH  22  25
ENDBRANCH  18  19
BRANCH   1  29
ATOM     29  O   UNL     1       0.291  12.346  20.832  0.00  0.00    +0.000 OA
ATOM     30  H   UNL     1      -0.455  12.350  21.455  0.00  0.00    +0.000 HD
ENDBRANCH   1  29
BRANCH  15  31
ATOM     31  O   UNL     1       2.824   0.828  19.494  0.00  0.00    +0.000 OA
ATOM     32  H   UNL     1       3.669   0.635  19.935  0.00  0.00    +0.000 HD
ENDBRANCH  15  31
TORSDOF 4
ENDMDL
MODEL 9
REMARK VINA RESULT:      -7.0      9.428     11.127
REMARK  Name = 
REMARK  4 active torsions:
REMARK  status: ('A' for Active; 'I' for Inactive)
REMARK    1  A    between atoms: O_1  and  C_2
REMARK    2  A    between atoms: C_16  and  O_17
REMARK    3  A    between atoms: C_20  and  C_21
REMARK    4  A    between atoms: C_24  and  C_25
REMARK                            x       y       z     vdW  Elec       q    Type
REMARK                         _______ _______ _______ _____ _____    ______ ____
ROOT
ATOM      1  C   UNL     1       4.443  11.538  27.086  0.00  0.00    +0.000 A 
ATOM      2  C   UNL     1       4.713  12.853  27.449  0.00  0.00    +0.000 A 
ATOM      3  C   UNL     1       5.688  13.576  26.751  0.00  0.00    +0.000 A 
ATOM      4  C   UNL     1       6.391  12.993  25.682  0.00  0.00    +0.000 A 
ATOM      5  C   UNL     1       6.086  11.669  25.343  0.00  0.00    +0.000 A 
ATOM      6  C   UNL     1       5.130  10.936  26.042  0.00  0.00    +0.000 A 
ATOM      7  O   UNL     1       6.759  11.012  24.347  0.00  0.00    +0.000 OA
ATOM      8  C   UNL     1       7.192  11.873  23.282  0.00  0.00    +0.000 C 
ATOM      9  C   UNL     1       7.860  13.164  23.702  0.00  0.00    +0.000 A 
ATOM     10  C   UNL     1       7.424  13.695  24.914  0.00  0.00    +0.000 A 
ATOM     11  N   UNL     1       7.905  14.843  25.436  0.00  0.00    +0.000 NA
ATOM     12  C   UNL     1       8.831  15.520  24.749  0.00  0.00    +0.000 A 
ATOM     13  C   UNL     1       9.342  16.663  25.360  0.00  0.00    +0.000 A 
ATOM     14  C   UNL     1      10.317  17.455  24.757  0.00  0.00    +0.000 A 
ATOM     15  C   UNL     1      10.754  17.116  23.496  0.00  0.00    +0.000 A 
ATOM     16  C   UNL     1      10.231  16.002  22.846  0.00  0.00    +0.000 A 
ATOM     17  C   UNL     1       9.302  15.125  23.478  0.00  0.00    +0.000 A 
ATOM     18  C   UNL     1       8.805  13.886  22.922  0.00  0.00    +0.000 A 
ENDROOT
BRANCH  18  19
ATOM     19  C   UNL     1       9.267  13.379  21.585  0.00  0.00    +0.000 A 
ATOM     20  C   UNL     1      10.322  12.454  21.464  0.00  0.00    +0.000 A 
ATOM     21  C   UNL     1      10.852  12.090  20.217  0.00  0.00    +0.000 A 
ATOM     22  C   UNL     1      10.267  12.549  19.034  0.00  0.00    +0.000 A 
ATOM     23  C   UNL     1       9.141  13.372  19.130  0.00  0.00    +0.000 A 
ATOM     24  C   UNL     1       8.689  13.816  20.379  0.00  0.00    +0.000 A 
BRANCH  22  25
ATOM     25  C   UNL     1      10.828  12.193  17.680  0.00  0.00    +0.000 C 
ATOM     26  F   UNL     1      12.188  12.225  17.627  0.00  0.00    +0.000 F 
ATOM     27  F   UNL     1      10.464  10.945  17.276  0.00  0.00    +0.000 F 
ATOM     28  F   UNL     1      10.398  13.041  16.703  0.00  0.00    +0.000 F 
ENDBRANCH  22  25
ENDBRANCH  18  19
BRANCH   1  29
ATOM     29  O   UNL     1       3.503  10.797  27.739  0.00  0.00    +0.000 OA
ATOM     30  H   UNL     1       3.868  10.520  28.597  0.00  0.00    +0.000 HD
ENDBRANCH   1  29
BRANCH  15  31
ATOM     31  O   UNL     1      11.709  17.838  22.846  0.00  0.00    +0.000 OA
ATOM     32  H   UNL     1      12.513  17.866  23.393  0.00  0.00    +0.000 HD
ENDBRANCH  15  31
TORSDOF 4
ENDMDL
