MODEL 1
REMARK VINA RESULT:      -8.2      0.000      0.000
REMARK  Name = 
REMARK  2 active torsions:
REMARK  status: ('A' for Active; 'I' for Inactive)
REMARK    1  A    between atoms: N_1  and  C_2
REMARK    2  A    between atoms: C_13  and  C_14
REMARK                            x       y       z     vdW  Elec       q    Type
REMARK                         _______ _______ _______ _____ _____    ______ ____
ROOT
ATOM      1  C   UNL     1       6.314   4.588  17.780  0.00  0.00    +0.000 C 
ATOM      2  C   UNL     1       5.822   5.093  19.157  0.00  0.00    +0.000 C 
ATOM      3  N   UNL     1       4.426   5.528  19.112  0.00  0.00    +0.000 N 
ATOM      4  C   UNL     1       3.461   4.758  19.737  0.00  0.00    +0.000 A 
ATOM      5  C   UNL     1       2.241   5.302  20.114  0.00  0.00    +0.000 A 
ATOM      6  C   UNL     1       1.361   4.495  20.798  0.00  0.00    +0.000 A 
ATOM      7  N   UNL     1       1.614   3.214  21.099  0.00  0.00    +0.000 NA
ATOM      8  C   UNL     1       2.810   2.769  20.699  0.00  0.00    +0.000 A 
ATOM      9  N   UNL     1       3.745   3.478  20.041  0.00  0.00    +0.000 NA
ATOM     10  C   UNL     1       4.092   6.534  18.111  0.00  0.00    +0.000 C 
ATOM     11  C   UNL     1       4.510   6.056  16.722  0.00  0.00    +0.000 C 
ATOM     12  C   UNL     1       5.991   5.632  16.672  0.00  0.00    +0.000 C 
ENDROOT
BRANCH  12  13
ATOM     13  C   UNL     1       6.349   5.137  15.276  0.00  0.00    +0.000 A 
ATOM     14  C   UNL     1       7.439   5.672  14.566  0.00  0.00    +0.000 A 
ATOM     15  C   UNL     1       7.748   5.198  13.295  0.00  0.00    +0.000 A 
ATOM     16  F   UNL     1       8.800   5.711  12.643  0.00  0.00    +0.000 F 
ATOM     17  C   UNL     1       6.980   4.200  12.709  0.00  0.00    +0.000 A 
ATOM     18  F   UNL     1       7.287   3.744  11.486  0.00  0.00    +0.000 F 
ATOM     19  C   UNL     1       5.893   3.663  13.384  0.00  0.00    +0.000 A 
ATOM     20  C   UNL     1       5.585   4.135  14.659  0.00  0.00    +0.000 A 
ATOM     21  F   UNL     1       4.538   3.597  15.301  0.00  0.00    +0.000 F 
ENDBRANCH  12  13
BRANCH   1  22
ATOM     22  N   UNL     1       7.763   4.295  17.805  0.00  0.00    +0.000 NA
ATOM     23  H   UNL     1       8.275   5.141  18.057  0.00  0.00    +0.000 HD
ATOM     24  H   UNL     1       8.082   4.036  16.872  0.00  0.00    +0.000 HD
ENDBRANCH   1  22
TORSDOF 2
ENDMDL
MODEL 2
REMARK VINA RESULT:      -7.6      0.872      1.755
REMARK  Name = 
REMARK  2 active torsions:
REMARK  status: ('A' for Active; 'I' for Inactive)
REMARK    1  A    between atoms: N_1  and  C_2
REMARK    2  A    between atoms: C_13  and  C_14
REMARK                            x       y       z     vdW  Elec       q    Type
REMARK                         _______ _______ _______ _____ _____    ______ ____
ROOT
ATOM      1  C   UNL     1       6.142   4.417  17.718  0.00  0.00    +0.000 C 
ATOM      2  C   UNL     1       5.641   4.894  19.102  0.00  0.00    +0.000 C 
ATOM      3  N   UNL     1       4.257   5.366  19.049  0.00  0.00    +0.000 N 
ATOM      4  C   UNL     1       3.263   4.602  19.636  0.00  0.00    +0.000 A 
ATOM      5  C   UNL     1       2.051   5.166  20.010  0.00  0.00    +0.000 A 
ATOM      6  C   UNL     1       1.140   4.362  20.657  0.00  0.00    +0.000 A 
ATOM      7  N   UNL     1       1.358   3.067  20.925  0.00  0.00    +0.000 NA
ATOM      8  C   UNL     1       2.548   2.604  20.530  0.00  0.00    +0.000 A 
ATOM      9  N   UNL     1       3.510   3.308  19.907  0.00  0.00    +0.000 NA
ATOM     10  C   UNL     1       3.963   6.408  18.072  0.00  0.00    +0.000 C 
ATOM     11  C   UNL     1       4.392   5.960  16.676  0.00  0.00    +0.000 C 
ATOM     12  C   UNL     1       5.862   5.500  16.637  0.00  0.00    +0.000 C 
ENDROOT
BRANCH  12  13
ATOM     13  C   UNL     1       6.230   5.037  15.233  0.00  0.00    +0.000 A 
ATOM     14  C   UNL     1       5.404   4.156  14.512  0.00  0.00    +0.000 A 
ATOM     15  C   UNL     1       5.760   3.753  13.228  0.00  0.00    +0.000 A 
ATOM     16  F   UNL     1       4.951   2.925  12.554  0.00  0.00    +0.000 F 
ATOM     17  C   UNL     1       6.936   4.209  12.648  0.00  0.00    +0.000 A 
ATOM     18  F   UNL     1       7.270   3.822  11.408  0.00  0.00    +0.000 F 
ATOM     19  C   UNL     1       7.774   5.071  13.341  0.00  0.00    +0.000 A 
ATOM     20  C   UNL     1       7.416   5.477  14.626  0.00  0.00    +0.000 A 
ATOM     21  F   UNL     1       8.231   6.319  15.277  0.00  0.00    +0.000 F 
ENDBRANCH  12  13
BRANCH   1  22
ATOM     22  N   UNL     1       7.583   4.087  17.758  0.00  0.00    +0.000 NA
ATOM     23  H   UNL     1       7.974   4.165  16.818  0.00  0.00    +0.000 HD
ATOM     24  H   UNL     1       7.710   3.115  18.039  0.00  0.00    +0.000 HD
ENDBRANCH   1  22
TORSDOF 2
ENDMDL
MODEL 3
REMARK VINA RESULT:      -7.5      3.744      6.999
REMARK  Name = 
REMARK  2 active torsions:
REMARK  status: ('A' for Active; 'I' for Inactive)
REMARK    1  A    between atoms: N_1  and  C_2
REMARK    2  A    between atoms: C_13  and  C_14
REMARK                            x       y       z     vdW  Elec       q    Type
REMARK                         _______ _______ _______ _____ _____    ______ ____
ROOT
ATOM      1  C   UNL     1       6.006   5.699  17.471  0.00  0.00    +0.000 C 
ATOM      2  C   UNL     1       6.879   4.612  16.799  0.00  0.00    +0.000 C 
ATOM      3  N   UNL     1       6.185   3.966  15.685  0.00  0.00    +0.000 N 
ATOM      4  C   UNL     1       6.599   4.228  14.391  0.00  0.00    +0.000 A 
ATOM      5  C   UNL     1       6.308   3.354  13.353  0.00  0.00    +0.000 A 
ATOM      6  C   UNL     1       6.818   3.642  12.108  0.00  0.00    +0.000 A 
ATOM      7  N   UNL     1       7.559   4.727  11.846  0.00  0.00    +0.000 NA
ATOM      8  C   UNL     1       7.790   5.517  12.900  0.00  0.00    +0.000 A 
ATOM      9  N   UNL     1       7.354   5.317  14.157  0.00  0.00    +0.000 NA
ATOM     10  C   UNL     1       4.881   3.385  15.983  0.00  0.00    +0.000 C 
ATOM     11  C   UNL     1       3.962   4.437  16.601  0.00  0.00    +0.000 C 
ATOM     12  C   UNL     1       4.603   5.127  17.821  0.00  0.00    +0.000 C 
ENDROOT
BRANCH  12  13
ATOM     13  C   UNL     1       3.659   6.185  18.380  0.00  0.00    +0.000 A 
ATOM     14  C   UNL     1       3.380   7.366  17.669  0.00  0.00    +0.000 A 
ATOM     15  C   UNL     1       2.509   8.314  18.200  0.00  0.00    +0.000 A 
ATOM     16  F   UNL     1       2.245   9.425  17.499  0.00  0.00    +0.000 F 
ATOM     17  C   UNL     1       1.915   8.110  19.438  0.00  0.00    +0.000 A 
ATOM     18  F   UNL     1       1.072   9.024  19.940  0.00  0.00    +0.000 F 
ATOM     19  C   UNL     1       2.182   6.957  20.164  0.00  0.00    +0.000 A 
ATOM     20  C   UNL     1       3.051   6.007  19.631  0.00  0.00    +0.000 A 
ATOM     21  F   UNL     1       3.289   4.895  20.341  0.00  0.00    +0.000 F 
ENDBRANCH  12  13
BRANCH   1  22
ATOM     22  N   UNL     1       6.662   6.235  18.684  0.00  0.00    +0.000 NA
ATOM     23  H   UNL     1       7.674   6.167  18.579  0.00  0.00    +0.000 HD
ATOM     24  H   UNL     1       6.419   5.661  19.491  0.00  0.00    +0.000 HD
ENDBRANCH   1  22
TORSDOF 2
ENDMDL
MODEL 4
REMARK VINA RESULT:      -7.1      3.230      7.144
REMARK  Name = 
REMARK  2 active torsions:
REMARK  status: ('A' for Active; 'I' for Inactive)
REMARK    1  A    between atoms: N_1  and  C_2
REMARK    2  A    between atoms: C_13  and  C_14
REMARK                            x       y       z     vdW  Elec       q    Type
REMARK                         _______ _______ _______ _____ _____    ______ ____
ROOT
ATOM      1  C   UNL     1       6.015   5.667  17.460  0.00  0.00    +0.000 C 
ATOM      2  C   UNL     1       6.887   4.581  16.787  0.00  0.00    +0.000 C 
ATOM      3  N   UNL     1       6.195   3.942  15.667  0.00  0.00    +0.000 N 
ATOM      4  C   UNL     1       6.616   4.209  14.376  0.00  0.00    +0.000 A 
ATOM      5  C   UNL     1       6.326   3.341  13.333  0.00  0.00    +0.000 A 
ATOM      6  C   UNL     1       6.842   3.634  12.091  0.00  0.00    +0.000 A 
ATOM      7  N   UNL     1       7.588   4.717  11.838  0.00  0.00    +0.000 NA
ATOM      8  C   UNL     1       7.818   5.501  12.897  0.00  0.00    +0.000 A 
ATOM      9  N   UNL     1       7.375   5.296  14.150  0.00  0.00    +0.000 NA
ATOM     10  C   UNL     1       4.887   3.365  15.956  0.00  0.00    +0.000 C 
ATOM     11  C   UNL     1       3.970   4.418  16.575  0.00  0.00    +0.000 C 
ATOM     12  C   UNL     1       4.608   5.099  17.802  0.00  0.00    +0.000 C 
ENDROOT
BRANCH  12  13
ATOM     13  C   UNL     1       3.667   6.158  18.362  0.00  0.00    +0.000 A 
ATOM     14  C   UNL     1       3.010   5.978  19.592  0.00  0.00    +0.000 A 
ATOM     15  C   UNL     1       2.160   6.964  20.085  0.00  0.00    +0.000 A 
ATOM     16  F   UNL     1       1.557   6.778  21.266  0.00  0.00    +0.000 F 
ATOM     17  C   UNL     1       1.943   8.131  19.364  0.00  0.00    +0.000 A 
ATOM     18  F   UNL     1       1.128   9.080  19.847  0.00  0.00    +0.000 F 
ATOM     19  C   UNL     1       2.571   8.330  18.142  0.00  0.00    +0.000 A 
ATOM     20  C   UNL     1       3.425   7.343  17.651  0.00  0.00    +0.000 A 
ATOM     21  F   UNL     1       4.031   7.556  16.474  0.00  0.00    +0.000 F 
ENDBRANCH  12  13
BRANCH   1  22
ATOM     22  N   UNL     1       6.668   6.194  18.679  0.00  0.00    +0.000 NA
ATOM     23  H   UNL     1       6.391   5.630  19.482  0.00  0.00    +0.000 HD
ATOM     24  H   UNL     1       6.336   7.140  18.868  0.00  0.00    +0.000 HD
ENDBRANCH   1  22
TORSDOF 2
ENDMDL
MODEL 5
REMARK VINA RESULT:      -7.0      6.159      8.799
REMARK  Name = 
REMARK  2 active torsions:
REMARK  status: ('A' for Active; 'I' for Inactive)
REMARK    1  A    between atoms: N_1  and  C_2
REMARK    2  A    between atoms: C_13  and  C_14
REMARK                            x       y       z     vdW  Elec       q    Type
REMARK                         _______ _______ _______ _____ _____    ______ ____
ROOT
ATOM      1  C   UNL     1       1.301   9.019  18.344  0.00  0.00    +0.000 C 
ATOM      2  C   UNL     1       2.543   8.225  18.813  0.00  0.00    +0.000 C 
ATOM      3  N   UNL     1       2.212   7.270  19.872  0.00  0.00    +0.000 N 
ATOM      4  C   UNL     1       2.218   5.917  19.583  0.00  0.00    +0.000 A 
ATOM      5  C   UNL     1       2.354   4.969  20.587  0.00  0.00    +0.000 A 
ATOM      6  C   UNL     1       2.426   3.645  20.217  0.00  0.00    +0.000 A 
ATOM      7  N   UNL     1       2.354   3.229  18.946  0.00  0.00    +0.000 NA
ATOM      8  C   UNL     1       2.221   4.206  18.042  0.00  0.00    +0.000 A 
ATOM      9  N   UNL     1       2.157   5.525  18.297  0.00  0.00    +0.000 NA
ATOM     10  C   UNL     1       1.545   7.813  21.049  0.00  0.00    +0.000 C 
ATOM     11  C   UNL     1       0.279   8.563  20.641  0.00  0.00    +0.000 C 
ATOM     12  C   UNL     1       0.555   9.631  19.564  0.00  0.00    +0.000 C 
ENDROOT
BRANCH  12  13
ATOM     13  C   UNL     1      -0.742  10.328  19.172  0.00  0.00    +0.000 A 
ATOM     14  C   UNL     1      -1.544   9.846  18.121  0.00  0.00    +0.000 A 
ATOM     15  C   UNL     1      -2.727  10.498  17.787  0.00  0.00    +0.000 A 
ATOM     16  F   UNL     1      -3.483  10.013  16.793  0.00  0.00    +0.000 F 
ATOM     17  C   UNL     1      -3.126  11.634  18.479  0.00  0.00    +0.000 A 
ATOM     18  F   UNL     1      -4.270  12.253  18.157  0.00  0.00    +0.000 F 
ATOM     19  C   UNL     1      -2.348  12.135  19.514  0.00  0.00    +0.000 A 
ATOM     20  C   UNL     1      -1.164  11.480  19.851  0.00  0.00    +0.000 A 
ATOM     21  F   UNL     1      -0.431  11.972  20.860  0.00  0.00    +0.000 F 
ENDBRANCH  12  13
BRANCH   1  22
ATOM     22  N   UNL     1       1.678  10.080  17.385  0.00  0.00    +0.000 NA
ATOM     23  H   UNL     1       0.839  10.579  17.085  0.00  0.00    +0.000 HD
ATOM     24  H   UNL     1       2.077   9.663  16.544  0.00  0.00    +0.000 HD
ENDBRANCH   1  22
TORSDOF 2
ENDMDL
MODEL 6
REMARK VINA RESULT:      -6.7      7.520      9.616
REMARK  Name = 
REMARK  2 active torsions:
REMARK  status: ('A' for Active; 'I' for Inactive)
REMARK    1  A    between atoms: N_1  and  C_2
REMARK    2  A    between atoms: C_13  and  C_14
REMARK                            x       y       z     vdW  Elec       q    Type
REMARK                         _______ _______ _______ _____ _____    ______ ____
ROOT
ATOM      1  C   UNL     1       0.307  11.700  20.884  0.00  0.00    +0.000 C 
ATOM      2  C   UNL     1      -0.606  12.947  20.963  0.00  0.00    +0.000 C 
ATOM      3  N   UNL     1      -1.975  12.647  20.543  0.00  0.00    +0.000 N 
ATOM      4  C   UNL     1      -2.978  12.611  21.496  0.00  0.00    +0.000 A 
ATOM      5  C   UNL     1      -4.310  12.775  21.142  0.00  0.00    +0.000 A 
ATOM      6  C   UNL     1      -5.245  12.803  22.152  0.00  0.00    +0.000 A 
ATOM      7  N   UNL     1      -4.936  12.661  23.449  0.00  0.00    +0.000 NA
ATOM      8  C   UNL     1      -3.632  12.506  23.701  0.00  0.00    +0.000 A 
ATOM      9  N   UNL     1      -2.641  12.481  22.792  0.00  0.00    +0.000 NA
ATOM     10  C   UNL     1      -2.133  12.048  19.223  0.00  0.00    +0.000 C 
ATOM     11  C   UNL     1      -1.289  10.780  19.114  0.00  0.00    +0.000 C 
ATOM     12  C   UNL     1       0.186  11.026  19.487  0.00  0.00    +0.000 C 
ENDROOT
BRANCH  12  13
ATOM     13  C   UNL     1       0.975   9.727  19.391  0.00  0.00    +0.000 A 
ATOM     14  C   UNL     1       0.921   8.759  20.410  0.00  0.00    +0.000 A 
ATOM     15  C   UNL     1       1.648   7.577  20.294  0.00  0.00    +0.000 A 
ATOM     16  F   UNL     1       1.569   6.663  21.270  0.00  0.00    +0.000 F 
ATOM     17  C   UNL     1       2.440   7.344  19.178  0.00  0.00    +0.000 A 
ATOM     18  F   UNL     1       3.132   6.200  19.069  0.00  0.00    +0.000 F 
ATOM     19  C   UNL     1       2.518   8.287  18.162  0.00  0.00    +0.000 A 
ATOM     20  C   UNL     1       1.788   9.469  18.277  0.00  0.00    +0.000 A 
ATOM     21  F   UNL     1       1.868  10.364  17.282  0.00  0.00    +0.000 F 
ENDBRANCH  12  13
BRANCH   1  22
ATOM     22  N   UNL     1       1.716  12.053  21.166  0.00  0.00    +0.000 NA
ATOM     23  H   UNL     1       1.963  11.737  22.104  0.00  0.00    +0.000 HD
ATOM     24  H   UNL     1       1.826  13.067  21.169  0.00  0.00    +0.000 HD
ENDBRANCH   1  22
TORSDOF 2
ENDMDL
MODEL 7
REMARK VINA RESULT:      -6.7      7.546      9.515
REMARK  Name = 
REMARK  2 active torsions:
REMARK  status: ('A' for Active; 'I' for Inactive)
REMARK    1  A    between atoms: N_1  and  C_2
REMARK    2  A    between atoms: C_13  and  C_14
REMARK                            x       y       z     vdW  Elec       q    Type
REMARK                         _______ _______ _______ _____ _____    ______ ____
ROOT
ATOM      1  C   UNL     1       0.184  11.745  20.547  0.00  0.00    +0.000 C 
ATOM      2  C   UNL     1      -0.771  12.962  20.502  0.00  0.00    +0.000 C 
ATOM      3  N   UNL     1      -2.123  12.579  20.092  0.00  0.00    +0.000 N 
ATOM      4  C   UNL     1      -3.139  12.594  21.031  0.00  0.00    +0.000 A 
ATOM      5  C   UNL     1      -4.470  12.679  20.647  0.00  0.00    +0.000 A 
ATOM      6  C   UNL     1      -5.421  12.765  21.638  0.00  0.00    +0.000 A 
ATOM      7  N   UNL     1      -5.129  12.751  22.946  0.00  0.00    +0.000 NA
ATOM      8  C   UNL     1      -3.825  12.664  23.229  0.00  0.00    +0.000 A 
ATOM      9  N   UNL     1      -2.819  12.592  22.338  0.00  0.00    +0.000 NA
ATOM     10  C   UNL     1      -2.239  11.859  18.830  0.00  0.00    +0.000 C 
ATOM     11  C   UNL     1      -1.352  10.616  18.847  0.00  0.00    +0.000 C 
ATOM     12  C   UNL     1       0.108  10.945  19.216  0.00  0.00    +0.000 C 
ENDROOT
BRANCH  12  13
ATOM     13  C   UNL     1       0.941   9.670  19.247  0.00  0.00    +0.000 A 
ATOM     14  C   UNL     1       1.759   9.303  18.164  0.00  0.00    +0.000 A 
ATOM     15  C   UNL     1       2.516   8.135  18.221  0.00  0.00    +0.000 A 
ATOM     16  F   UNL     1       3.299   7.813  17.183  0.00  0.00    +0.000 F 
ATOM     17  C   UNL     1       2.465   7.318  19.341  0.00  0.00    +0.000 A 
ATOM     18  F   UNL     1       3.202   6.198  19.392  0.00  0.00    +0.000 F 
ATOM     19  C   UNL     1       1.659   7.652  20.420  0.00  0.00    +0.000 A 
ATOM     20  C   UNL     1       0.904   8.823  20.365  0.00  0.00    +0.000 A 
ATOM     21  F   UNL     1       0.139   9.136  21.420  0.00  0.00    +0.000 F 
ENDBRANCH  12  13
BRANCH   1  22
ATOM     22  N   UNL     1       1.576  12.170  20.814  0.00  0.00    +0.000 NA
ATOM     23  H   UNL     1       2.094  11.393  21.226  0.00  0.00    +0.000 HD
ATOM     24  H   UNL     1       1.584  12.917  21.509  0.00  0.00    +0.000 HD
ENDBRANCH   1  22
TORSDOF 2
ENDMDL
MODEL 8
REMARK VINA RESULT:      -6.4      4.679      6.795
REMARK  Name = 
REMARK  2 active torsions:
REMARK  status: ('A' for Active; 'I' for Inactive)
REMARK    1  A    between atoms: N_1  and  C_2
REMARK    2  A    between atoms: C_13  and  C_14
REMARK                            x       y       z     vdW  Elec       q    Type
REMARK                         _______ _______ _______ _____ _____    ______ ____
ROOT
ATOM      1  C   UNL     1       1.527   7.538  19.958  0.00  0.00    +0.000 C 
ATOM      2  C   UNL     1       1.486   9.046  20.299  0.00  0.00    +0.000 C 
ATOM      3  N   UNL     1       1.299   9.871  19.104  0.00  0.00    +0.000 N 
ATOM      4  C   UNL     1       0.086  10.508  18.911  0.00  0.00    +0.000 A 
ATOM      5  C   UNL     1      -0.019  11.616  18.082  0.00  0.00    +0.000 A 
ATOM      6  C   UNL     1      -1.241  12.244  17.998  0.00  0.00    +0.000 A 
ATOM      7  N   UNL     1      -2.331  11.829  18.658  0.00  0.00    +0.000 NA
ATOM      8  C   UNL     1      -2.144  10.755  19.432  0.00  0.00    +0.000 A 
ATOM      9  N   UNL     1      -0.991  10.082  19.596  0.00  0.00    +0.000 NA
ATOM     10  C   UNL     1       2.255   9.672  18.022  0.00  0.00    +0.000 C 
ATOM     11  C   UNL     1       2.292   8.201  17.612  0.00  0.00    +0.000 C 
ATOM     12  C   UNL     1       2.544   7.267  18.812  0.00  0.00    +0.000 C 
ENDROOT
BRANCH  12  13
ATOM     13  C   UNL     1       2.542   5.814  18.355  0.00  0.00    +0.000 A 
ATOM     14  C   UNL     1       1.477   4.950  18.665  0.00  0.00    +0.000 A 
ATOM     15  C   UNL     1       1.497   3.628  18.230  0.00  0.00    +0.000 A 
ATOM     16  F   UNL     1       0.465   2.826  18.524  0.00  0.00    +0.000 F 
ATOM     17  C   UNL     1       2.571   3.145  17.494  0.00  0.00    +0.000 A 
ATOM     18  F   UNL     1       2.581   1.872  17.072  0.00  0.00    +0.000 F 
ATOM     19  C   UNL     1       3.640   3.974  17.183  0.00  0.00    +0.000 A 
ATOM     20  C   UNL     1       3.617   5.299  17.616  0.00  0.00    +0.000 A 
ATOM     21  F   UNL     1       4.653   6.089  17.297  0.00  0.00    +0.000 F 
ENDBRANCH  12  13
BRANCH   1  22
ATOM     22  N   UNL     1       1.867   6.731  21.150  0.00  0.00    +0.000 NA
ATOM     23  H   UNL     1       2.870   6.541  21.156  0.00  0.00    +0.000 HD
ATOM     24  H   UNL     1       1.406   5.823  21.098  0.00  0.00    +0.000 HD
ENDBRANCH   1  22
TORSDOF 2
ENDMDL
MODEL 9
REMARK VINA RESULT:      -6.3      4.893      8.425
REMARK  Name = 
REMARK  2 active torsions:
REMARK  status: ('A' for Active; 'I' for Inactive)
REMARK    1  A    between atoms: N_1  and  C_2
REMARK    2  A    between atoms: C_13  and  C_14
REMARK                            x       y       z     vdW  Elec       q    Type
REMARK                         _______ _______ _______ _____ _____    ______ ____
ROOT
ATOM      1  C   UNL     1       2.217   6.493  19.923  0.00  0.00    +0.000 C 
ATOM      2  C   UNL     1       2.905   5.604  18.859  0.00  0.00    +0.000 C 
ATOM      3  N   UNL     1       3.796   6.379  17.995  0.00  0.00    +0.000 N 
ATOM      4  C   UNL     1       5.164   6.219  18.125  0.00  0.00    +0.000 A 
ATOM      5  C   UNL     1       6.028   6.556  17.092  0.00  0.00    +0.000 A 
ATOM      6  C   UNL     1       7.369   6.298  17.264  0.00  0.00    +0.000 A 
ATOM      7  N   UNL     1       7.880   5.759  18.380  0.00  0.00    +0.000 NA
ATOM      8  C   UNL     1       6.980   5.467  19.325  0.00  0.00    +0.000 A 
ATOM      9  N   UNL     1       5.652   5.663  19.249  0.00  0.00    +0.000 NA
ATOM     10  C   UNL     1       3.207   7.529  17.319  0.00  0.00    +0.000 C 
ATOM     11  C   UNL     1       2.560   8.466  18.336  0.00  0.00    +0.000 C 
ATOM     12  C   UNL     1       1.560   7.733  19.251  0.00  0.00    +0.000 C 
ENDROOT
BRANCH  12  13
ATOM     13  C   UNL     1       0.966   8.704  20.264  0.00  0.00    +0.000 A 
ATOM     14  C   UNL     1       1.231   8.582  21.640  0.00  0.00    +0.000 A 
ATOM     15  C   UNL     1       0.681   9.486  22.543  0.00  0.00    +0.000 A 
ATOM     16  F   UNL     1       0.960   9.359  23.847  0.00  0.00    +0.000 F 
ATOM     17  C   UNL     1      -0.141  10.513  22.100  0.00  0.00    +0.000 A 
ATOM     18  F   UNL     1      -0.662  11.385  22.975  0.00  0.00    +0.000 F 
ATOM     19  C   UNL     1      -0.427  10.651  20.748  0.00  0.00    +0.000 A 
ATOM     20  C   UNL     1       0.127   9.747  19.843  0.00  0.00    +0.000 A 
ATOM     21  F   UNL     1      -0.151   9.901  18.541  0.00  0.00    +0.000 F 
ENDBRANCH  12  13
BRANCH   1  22
ATOM     22  N   UNL     1       1.208   5.726  20.686  0.00  0.00    +0.000 NA
ATOM     23  H   UNL     1       0.764   6.338  21.371  0.00  0.00    +0.000 HD
ATOM     24  H   UNL     1       1.666   4.986  21.220  0.00  0.00    +0.000 HD
ENDBRANCH   1  22
TORSDOF 2
ENDMDL
