MODEL 1
REMARK VINA RESULT:      -6.9      0.000      0.000
REMARK  Name = 
REMARK  6 active torsions:
REMARK  status: ('A' for Active; 'I' for Inactive)
REMARK    1  A    between atoms: C_1  and  C_2
REMARK    2  A    between atoms: C_5  and  S_6
REMARK    3  A    between atoms: S_6  and  C_7
REMARK    4  A    between atoms: C_7  and  C_8
REMARK    5  A    between atoms: N_10  and  C_11
REMARK    6  A    between atoms: C_11  and  C_12
REMARK                            x       y       z     vdW  Elec       q    Type
REMARK                         _______ _______ _______ _____ _____    ______ ____
ROOT
ATOM      1  C   UNL     1       5.058   6.672  17.279  0.00  0.00    +0.000 C 
ATOM      2  O   UNL     1       4.681   7.045  16.170  0.00  0.00    +0.000 OA
ATOM      3  N   UNL     1       4.186   6.236  18.256  0.00  0.00    +0.000 N 
ATOM      4  H   UNL     1       4.565   5.854  19.114  0.00  0.00    +0.000 HD
ENDROOT
BRANCH   1   5
ATOM      5  C   UNL     1       6.520   6.740  17.701  0.00  0.00    +0.000 C 
BRANCH   5   6
ATOM      6  S   UNL     1       7.289   5.106  17.549  0.00  0.00    +0.000 S 
BRANCH   6  11
ATOM      7  C   UNL     1       7.779   5.289  12.404  0.00  0.00    +0.000 C 
ATOM      8  C   UNL     1       7.170   4.788  13.665  0.00  0.00    +0.000 A 
ATOM      9  C   UNL     1       6.151   3.861  13.769  0.00  0.00    +0.000 A 
ATOM     10  S   UNL     1       5.767   3.597  15.417  0.00  0.00    +0.000 S 
ATOM     11  C   UNL     1       6.974   4.727  15.870  0.00  0.00    +0.000 A 
ATOM     12  N   UNL     1       7.644   5.276  14.875  0.00  0.00    +0.000 NA
ENDBRANCH   6  11
ENDBRANCH   5   6
ENDBRANCH   1   5
BRANCH   3  13
ATOM     13  C   UNL     1       2.759   6.135  18.038  0.00  0.00    +0.000 C 
BRANCH  13  14
ATOM     14  C   UNL     1       2.173   4.836  18.540  0.00  0.00    +0.000 A 
ATOM     15  C   UNL     1       2.223   3.702  17.708  0.00  0.00    +0.000 A 
ATOM     16  C   UNL     1       1.662   2.486  18.108  0.00  0.00    +0.000 A 
ATOM     17  C   UNL     1       1.050   2.378  19.354  0.00  0.00    +0.000 A 
ATOM     18  C   UNL     1       1.007   3.485  20.200  0.00  0.00    +0.000 A 
ATOM     19  C   UNL     1       1.568   4.704  19.800  0.00  0.00    +0.000 A 
ATOM     20 CL   UNL     1       1.474   6.025  20.910  0.00  0.00    +0.000 Cl
ENDBRANCH  13  14
ENDBRANCH   3  13
TORSDOF 5
ENDMDL
MODEL 2
REMARK VINA RESULT:      -6.7      1.870      2.040
REMARK  Name = 
REMARK  6 active torsions:
REMARK  status: ('A' for Active; 'I' for Inactive)
REMARK    1  A    between atoms: C_1  and  C_2
REMARK    2  A    between atoms: C_5  and  S_6
REMARK    3  A    between atoms: S_6  and  C_7
REMARK    4  A    between atoms: C_7  and  C_8
REMARK    5  A    between atoms: N_10  and  C_11
REMARK    6  A    between atoms: C_11  and  C_12
REMARK                            x       y       z     vdW  Elec       q    Type
REMARK                         _______ _______ _______ _____ _____    ______ ____
ROOT
ATOM      1  C   UNL     1       5.186   5.019  19.201  0.00  0.00    +0.000 C 
ATOM      2  O   UNL     1       4.226   5.533  19.771  0.00  0.00    +0.000 OA
ATOM      3  N   UNL     1       5.515   3.686  19.346  0.00  0.00    +0.000 N 
ATOM      4  H   UNL     1       6.259   3.302  18.777  0.00  0.00    +0.000 HD
ENDROOT
BRANCH   1   5
ATOM      5  C   UNL     1       6.149   5.833  18.346  0.00  0.00    +0.000 C 
BRANCH   5   6
ATOM      6  S   UNL     1       7.464   4.766  17.700  0.00  0.00    +0.000 S 
BRANCH   6  11
ATOM      7  C   UNL     1       7.688   5.253  12.555  0.00  0.00    +0.000 C 
ATOM      8  C   UNL     1       7.059   4.789  13.822  0.00  0.00    +0.000 A 
ATOM      9  C   UNL     1       5.876   4.085  13.937  0.00  0.00    +0.000 A 
ATOM     10  S   UNL     1       5.540   3.775  15.588  0.00  0.00    +0.000 S 
ATOM     11  C   UNL     1       6.981   4.594  16.026  0.00  0.00    +0.000 A 
ATOM     12  N   UNL     1       7.693   5.071  15.024  0.00  0.00    +0.000 NA
ENDBRANCH   6  11
ENDBRANCH   5   6
ENDBRANCH   1   5
BRANCH   3  13
ATOM     13  C   UNL     1       4.726   2.771  20.144  0.00  0.00    +0.000 C 
BRANCH  13  14
ATOM     14  C   UNL     1       3.312   2.614  19.639  0.00  0.00    +0.000 A 
ATOM     15  C   UNL     1       3.106   2.219  18.304  0.00  0.00    +0.000 A 
ATOM     16  C   UNL     1       1.818   2.096  17.776  0.00  0.00    +0.000 A 
ATOM     17  C   UNL     1       0.710   2.356  18.576  0.00  0.00    +0.000 A 
ATOM     18  C   UNL     1       0.892   2.731  19.906  0.00  0.00    +0.000 A 
ATOM     19  C   UNL     1       2.182   2.855  20.437  0.00  0.00    +0.000 A 
ATOM     20 CL   UNL     1       2.318   3.322  22.095  0.00  0.00    +0.000 Cl
ENDBRANCH  13  14
ENDBRANCH   3  13
TORSDOF 5
ENDMDL
MODEL 3
REMARK VINA RESULT:      -6.5      3.174      4.831
REMARK  Name = 
REMARK  6 active torsions:
REMARK  status: ('A' for Active; 'I' for Inactive)
REMARK    1  A    between atoms: C_1  and  C_2
REMARK    2  A    between atoms: C_5  and  S_6
REMARK    3  A    between atoms: S_6  and  C_7
REMARK    4  A    between atoms: C_7  and  C_8
REMARK    5  A    between atoms: N_10  and  C_11
REMARK    6  A    between atoms: C_11  and  C_12
REMARK                            x       y       z     vdW  Elec       q    Type
REMARK                         _______ _______ _______ _____ _____    ______ ____
ROOT
ATOM      1  C   UNL     1       2.027   3.923  20.665  0.00  0.00    +0.000 C 
ATOM      2  O   UNL     1       0.839   3.729  20.416  0.00  0.00    +0.000 OA
ATOM      3  N   UNL     1       2.534   5.172  20.963  0.00  0.00    +0.000 N 
ATOM      4  H   UNL     1       3.501   5.250  21.251  0.00  0.00    +0.000 HD
ENDROOT
BRANCH   1   5
ATOM      5  C   UNL     1       3.062   2.808  20.583  0.00  0.00    +0.000 C 
BRANCH   5   6
ATOM      6  S   UNL     1       3.347   2.347  18.854  0.00  0.00    +0.000 S 
BRANCH   6  11
ATOM      7  C   UNL     1       7.315   5.642  19.240  0.00  0.00    +0.000 C 
ATOM      8  C   UNL     1       6.213   4.968  18.502  0.00  0.00    +0.000 A 
ATOM      9  C   UNL     1       5.859   5.183  17.184  0.00  0.00    +0.000 A 
ATOM     10  S   UNL     1       4.526   4.192  16.768  0.00  0.00    +0.000 S 
ATOM     11  C   UNL     1       4.515   3.553  18.359  0.00  0.00    +0.000 A 
ATOM     12  N   UNL     1       5.442   4.025  19.169  0.00  0.00    +0.000 NA
ENDBRANCH   6  11
ENDBRANCH   5   6
ENDBRANCH   1   5
BRANCH   3  13
ATOM     13  C   UNL     1       1.698   6.350  21.056  0.00  0.00    +0.000 C 
BRANCH  13  14
ATOM     14  C   UNL     1       1.887   7.302  19.899  0.00  0.00    +0.000 A 
ATOM     15  C   UNL     1       2.732   6.923  18.838  0.00  0.00    +0.000 A 
ATOM     16  C   UNL     1       2.971   7.782  17.763  0.00  0.00    +0.000 A 
ATOM     17  C   UNL     1       2.362   9.033  17.721  0.00  0.00    +0.000 A 
ATOM     18  C   UNL     1       1.508   9.419  18.752  0.00  0.00    +0.000 A 
ATOM     19  C   UNL     1       1.267   8.560  19.831  0.00  0.00    +0.000 A 
ATOM     20 CL   UNL     1       0.193   9.115  21.065  0.00  0.00    +0.000 Cl
ENDBRANCH  13  14
ENDBRANCH   3  13
TORSDOF 5
ENDMDL
MODEL 4
REMARK VINA RESULT:      -6.4      4.956      7.016
REMARK  Name = 
REMARK  6 active torsions:
REMARK  status: ('A' for Active; 'I' for Inactive)
REMARK    1  A    between atoms: C_1  and  C_2
REMARK    2  A    between atoms: C_5  and  S_6
REMARK    3  A    between atoms: S_6  and  C_7
REMARK    4  A    between atoms: C_7  and  C_8
REMARK    5  A    between atoms: N_10  and  C_11
REMARK    6  A    between atoms: C_11  and  C_12
REMARK                            x       y       z     vdW  Elec       q    Type
REMARK                         _______ _______ _______ _____ _____    ______ ____
ROOT
ATOM      1  C   UNL     1       2.695   8.004  18.103  0.00  0.00    +0.000 C 
ATOM      2  O   UNL     1       3.687   7.740  17.427  0.00  0.00    +0.000 OA
ATOM      3  N   UNL     1       2.296   7.235  19.177  0.00  0.00    +0.000 N 
ATOM      4  H   UNL     1       1.526   7.558  19.751  0.00  0.00    +0.000 HD
ENDROOT
BRANCH   1   5
ATOM      5  C   UNL     1       1.768   9.164  17.759  0.00  0.00    +0.000 C 
BRANCH   5   6
ATOM      6  S   UNL     1       0.921   9.750  19.250  0.00  0.00    +0.000 S 
BRANCH   6  11
ATOM      7  C   UNL     1      -3.037  10.194  15.951  0.00  0.00    +0.000 C 
ATOM      8  C   UNL     1      -2.289  10.550  17.187  0.00  0.00    +0.000 A 
ATOM      9  C   UNL     1      -2.657  11.499  18.120  0.00  0.00    +0.000 A 
ATOM     10  S   UNL     1      -1.489  11.572  19.370  0.00  0.00    +0.000 S 
ATOM     11  C   UNL     1      -0.584  10.345  18.585  0.00  0.00    +0.000 A 
ATOM     12  N   UNL     1      -1.102   9.885  17.463  0.00  0.00    +0.000 NA
ENDBRANCH   6  11
ENDBRANCH   5   6
ENDBRANCH   1   5
BRANCH   3  13
ATOM     13  C   UNL     1       3.042   6.079  19.627  0.00  0.00    +0.000 C 
BRANCH  13  14
ATOM     14  C   UNL     1       2.349   4.772  19.323  0.00  0.00    +0.000 A 
ATOM     15  C   UNL     1       1.327   4.328  20.183  0.00  0.00    +0.000 A 
ATOM     16  C   UNL     1       0.680   3.108  19.969  0.00  0.00    +0.000 A 
ATOM     17  C   UNL     1       1.036   2.313  18.884  0.00  0.00    +0.000 A 
ATOM     18  C   UNL     1       2.033   2.743  18.010  0.00  0.00    +0.000 A 
ATOM     19  C   UNL     1       2.682   3.965  18.223  0.00  0.00    +0.000 A 
ATOM     20 CL   UNL     1       3.904   4.425  17.091  0.00  0.00    +0.000 Cl
ENDBRANCH  13  14
ENDBRANCH   3  13
TORSDOF 5
ENDMDL
MODEL 5
REMARK VINA RESULT:      -6.4      3.368      7.029
REMARK  Name = 
REMARK  6 active torsions:
REMARK  status: ('A' for Active; 'I' for Inactive)
REMARK    1  A    between atoms: C_1  and  C_2
REMARK    2  A    between atoms: C_5  and  S_6
REMARK    3  A    between atoms: S_6  and  C_7
REMARK    4  A    between atoms: C_7  and  C_8
REMARK    5  A    between atoms: N_10  and  C_11
REMARK    6  A    between atoms: C_11  and  C_12
REMARK                            x       y       z     vdW  Elec       q    Type
REMARK                         _______ _______ _______ _____ _____    ______ ____
ROOT
ATOM      1  C   UNL     1       6.728   4.677  17.835  0.00  0.00    +0.000 C 
ATOM      2  O   UNL     1       7.910   4.387  18.002  0.00  0.00    +0.000 OA
ATOM      3  N   UNL     1       6.263   5.289  16.688  0.00  0.00    +0.000 N 
ATOM      4  H   UNL     1       5.266   5.416  16.571  0.00  0.00    +0.000 HD
ENDROOT
BRANCH   1   5
ATOM      5  C   UNL     1       5.681   4.459  18.920  0.00  0.00    +0.000 C 
BRANCH   5   6
ATOM      6  S   UNL     1       4.253   5.538  18.636  0.00  0.00    +0.000 S 
BRANCH   6  11
ATOM      7  C   UNL     1       1.330   2.638  21.765  0.00  0.00    +0.000 C 
ATOM      8  C   UNL     1       1.664   3.261  20.456  0.00  0.00    +0.000 A 
ATOM      9  C   UNL     1       0.947   3.132  19.283  0.00  0.00    +0.000 A 
ATOM     10  S   UNL     1       1.711   4.017  18.032  0.00  0.00    +0.000 S 
ATOM     11  C   UNL     1       2.931   4.505  19.133  0.00  0.00    +0.000 A 
ATOM     12  N   UNL     1       2.797   4.057  20.366  0.00  0.00    +0.000 NA
ENDBRANCH   6  11
ENDBRANCH   5   6
ENDBRANCH   1   5
BRANCH   3  13
ATOM     13  C   UNL     1       7.124   5.597  15.566  0.00  0.00    +0.000 C 
BRANCH  13  14
ATOM     14  C   UNL     1       6.736   4.866  14.304  0.00  0.00    +0.000 A 
ATOM     15  C   UNL     1       5.560   4.091  14.301  0.00  0.00    +0.000 A 
ATOM     16  C   UNL     1       5.175   3.364  13.172  0.00  0.00    +0.000 A 
ATOM     17  C   UNL     1       5.952   3.406  12.018  0.00  0.00    +0.000 A 
ATOM     18  C   UNL     1       7.110   4.182  11.994  0.00  0.00    +0.000 A 
ATOM     19  C   UNL     1       7.498   4.910  13.125  0.00  0.00    +0.000 A 
ATOM     20 CL   UNL     1       8.945   5.848  13.010  0.00  0.00    +0.000 Cl
ENDBRANCH  13  14
ENDBRANCH   3  13
TORSDOF 5
ENDMDL
MODEL 6
REMARK VINA RESULT:      -6.3      3.263      4.997
REMARK  Name = 
REMARK  6 active torsions:
REMARK  status: ('A' for Active; 'I' for Inactive)
REMARK    1  A    between atoms: C_1  and  C_2
REMARK    2  A    between atoms: C_5  and  S_6
REMARK    3  A    between atoms: S_6  and  C_7
REMARK    4  A    between atoms: C_7  and  C_8
REMARK    5  A    between atoms: N_10  and  C_11
REMARK    6  A    between atoms: C_11  and  C_12
REMARK                            x       y       z     vdW  Elec       q    Type
REMARK                         _______ _______ _______ _____ _____    ______ ____
ROOT
ATOM      1  C   UNL     1       2.283   4.229  20.420  0.00  0.00    +0.000 C 
ATOM      2  O   UNL     1       2.236   4.011  21.628  0.00  0.00    +0.000 OA
ATOM      3  N   UNL     1       2.110   5.487  19.879  0.00  0.00    +0.000 N 
ATOM      4  H   UNL     1       2.254   5.616  18.885  0.00  0.00    +0.000 HD
ENDROOT
BRANCH   1   5
ATOM      5  C   UNL     1       2.455   3.107  19.403  0.00  0.00    +0.000 C 
BRANCH   5   6
ATOM      6  S   UNL     1       4.150   2.469  19.457  0.00  0.00    +0.000 S 
BRANCH   6  11
ATOM      7  C   UNL     1       7.770   6.121  18.904  0.00  0.00    +0.000 C 
ATOM      8  C   UNL     1       6.582   5.347  18.454  0.00  0.00    +0.000 A 
ATOM      9  C   UNL     1       5.887   5.528  17.274  0.00  0.00    +0.000 A 
ATOM     10  S   UNL     1       4.588   4.416  17.186  0.00  0.00    +0.000 S 
ATOM     11  C   UNL     1       5.039   3.780  18.712  0.00  0.00    +0.000 A 
ATOM     12  N   UNL     1       6.095   4.336  19.272  0.00  0.00    +0.000 NA
ENDBRANCH   6  11
ENDBRANCH   5   6
ENDBRANCH   1   5
BRANCH   3  13
ATOM     13  C   UNL     1       1.907   6.664  20.696  0.00  0.00    +0.000 C 
BRANCH  13  14
ATOM     14  C   UNL     1       1.709   7.922  19.884  0.00  0.00    +0.000 A 
ATOM     15  C   UNL     1       2.257   7.988  18.589  0.00  0.00    +0.000 A 
ATOM     16  C   UNL     1       2.136   9.142  17.810  0.00  0.00    +0.000 A 
ATOM     17  C   UNL     1       1.455  10.249  18.307  0.00  0.00    +0.000 A 
ATOM     18  C   UNL     1       0.889  10.197  19.579  0.00  0.00    +0.000 A 
ATOM     19  C   UNL     1       1.010   9.042  20.362  0.00  0.00    +0.000 A 
ATOM     20 CL   UNL     1       0.276   9.060  21.926  0.00  0.00    +0.000 Cl
ENDBRANCH  13  14
ENDBRANCH   3  13
TORSDOF 5
ENDMDL
MODEL 7
REMARK VINA RESULT:      -6.2      1.701      2.018
REMARK  Name = 
REMARK  6 active torsions:
REMARK  status: ('A' for Active; 'I' for Inactive)
REMARK    1  A    between atoms: C_1  and  C_2
REMARK    2  A    between atoms: C_5  and  S_6
REMARK    3  A    between atoms: S_6  and  C_7
REMARK    4  A    between atoms: C_7  and  C_8
REMARK    5  A    between atoms: N_10  and  C_11
REMARK    6  A    between atoms: C_11  and  C_12
REMARK                            x       y       z     vdW  Elec       q    Type
REMARK                         _______ _______ _______ _____ _____    ______ ____
ROOT
ATOM      1  C   UNL     1       4.563   5.923  17.422  0.00  0.00    +0.000 C 
ATOM      2  O   UNL     1       3.694   6.791  17.469  0.00  0.00    +0.000 OA
ATOM      3  N   UNL     1       4.270   4.575  17.365  0.00  0.00    +0.000 N 
ATOM      4  H   UNL     1       5.027   3.916  17.233  0.00  0.00    +0.000 HD
ENDROOT
BRANCH   1   5
ATOM      5  C   UNL     1       6.046   6.259  17.508  0.00  0.00    +0.000 C 
BRANCH   5   6
ATOM      6  S   UNL     1       7.041   4.776  17.200  0.00  0.00    +0.000 S 
BRANCH   6  11
ATOM      7  C   UNL     1       8.280   5.886  12.303  0.00  0.00    +0.000 C 
ATOM      8  C   UNL     1       7.523   5.147  13.349  0.00  0.00    +0.000 A 
ATOM      9  C   UNL     1       6.561   4.180  13.131  0.00  0.00    +0.000 A 
ATOM     10  S   UNL     1       5.954   3.613  14.629  0.00  0.00    +0.000 S 
ATOM     11  C   UNL     1       7.005   4.689  15.453  0.00  0.00    +0.000 A 
ATOM     12  N   UNL     1       7.779   5.430  14.684  0.00  0.00    +0.000 NA
ENDBRANCH   6  11
ENDBRANCH   5   6
ENDBRANCH   1   5
BRANCH   3  13
ATOM     13  C   UNL     1       2.914   4.075  17.306  0.00  0.00    +0.000 C 
BRANCH  13  14
ATOM     14  C   UNL     1       2.365   3.691  18.659  0.00  0.00    +0.000 A 
ATOM     15  C   UNL     1       1.552   4.610  19.348  0.00  0.00    +0.000 A 
ATOM     16  C   UNL     1       1.049   4.321  20.620  0.00  0.00    +0.000 A 
ATOM     17  C   UNL     1       1.341   3.101  21.223  0.00  0.00    +0.000 A 
ATOM     18  C   UNL     1       2.130   2.170  20.549  0.00  0.00    +0.000 A 
ATOM     19  C   UNL     1       2.634   2.458  19.275  0.00  0.00    +0.000 A 
ATOM     20 CL   UNL     1       3.600   1.248  18.509  0.00  0.00    +0.000 Cl
ENDBRANCH  13  14
ENDBRANCH   3  13
TORSDOF 5
ENDMDL
MODEL 8
REMARK VINA RESULT:      -6.2      3.543      5.046
REMARK  Name = 
REMARK  6 active torsions:
REMARK  status: ('A' for Active; 'I' for Inactive)
REMARK    1  A    between atoms: C_1  and  C_2
REMARK    2  A    between atoms: C_5  and  S_6
REMARK    3  A    between atoms: S_6  and  C_7
REMARK    4  A    between atoms: C_7  and  C_8
REMARK    5  A    between atoms: N_10  and  C_11
REMARK    6  A    between atoms: C_11  and  C_12
REMARK                            x       y       z     vdW  Elec       q    Type
REMARK                         _______ _______ _______ _____ _____    ______ ____
ROOT
ATOM      1  C   UNL     1       2.372   5.074  19.506  0.00  0.00    +0.000 C 
ATOM      2  O   UNL     1       1.753   4.870  18.464  0.00  0.00    +0.000 OA
ATOM      3  N   UNL     1       2.728   6.339  19.928  0.00  0.00    +0.000 N 
ATOM      4  H   UNL     1       3.154   6.448  20.840  0.00  0.00    +0.000 HD
ENDROOT
BRANCH   1   5
ATOM      5  C   UNL     1       2.877   3.935  20.382  0.00  0.00    +0.000 C 
BRANCH   5   6
ATOM      6  S   UNL     1       3.830   2.758  19.387  0.00  0.00    +0.000 S 
BRANCH   6  11
ATOM      7  C   UNL     1       7.846   5.992  18.976  0.00  0.00    +0.000 C 
ATOM      8  C   UNL     1       6.716   5.197  18.423  0.00  0.00    +0.000 A 
ATOM      9  C   UNL     1       6.329   5.137  17.099  0.00  0.00    +0.000 A 
ATOM     10  S   UNL     1       4.974   4.104  16.933  0.00  0.00    +0.000 S 
ATOM     11  C   UNL     1       4.998   3.813  18.622  0.00  0.00    +0.000 A 
ATOM     12  N   UNL     1       5.953   4.429  19.292  0.00  0.00    +0.000 NA
ENDBRANCH   6  11
ENDBRANCH   5   6
ENDBRANCH   1   5
BRANCH   3  13
ATOM     13  C   UNL     1       2.356   7.536  19.204  0.00  0.00    +0.000 C 
BRANCH  13  14
ATOM     14  C   UNL     1       1.462   8.457  19.999  0.00  0.00    +0.000 A 
ATOM     15  C   UNL     1       1.072   8.071  21.296  0.00  0.00    +0.000 A 
ATOM     16  C   UNL     1       0.215   8.868  22.060  0.00  0.00    +0.000 A 
ATOM     17  C   UNL     1      -0.260  10.071  21.546  0.00  0.00    +0.000 A 
ATOM     18  C   UNL     1       0.129  10.479  20.272  0.00  0.00    +0.000 A 
ATOM     19  C   UNL     1       0.988   9.682  19.504  0.00  0.00    +0.000 A 
ATOM     20 CL   UNL     1       1.423  10.262  17.936  0.00  0.00    +0.000 Cl
ENDBRANCH  13  14
ENDBRANCH   3  13
TORSDOF 5
ENDMDL
MODEL 9
REMARK VINA RESULT:      -6.2      2.567      4.192
REMARK  Name = 
REMARK  6 active torsions:
REMARK  status: ('A' for Active; 'I' for Inactive)
REMARK    1  A    between atoms: C_1  and  C_2
REMARK    2  A    between atoms: C_5  and  S_6
REMARK    3  A    between atoms: S_6  and  C_7
REMARK    4  A    between atoms: C_7  and  C_8
REMARK    5  A    between atoms: N_10  and  C_11
REMARK    6  A    between atoms: C_11  and  C_12
REMARK                            x       y       z     vdW  Elec       q    Type
REMARK                         _______ _______ _______ _____ _____    ______ ____
ROOT
ATOM      1  C   UNL     1       4.380   4.689  16.899  0.00  0.00    +0.000 C 
ATOM      2  O   UNL     1       4.320   3.672  17.586  0.00  0.00    +0.000 OA
ATOM      3  N   UNL     1       3.874   5.903  17.316  0.00  0.00    +0.000 N 
ATOM      4  H   UNL     1       4.038   6.723  16.745  0.00  0.00    +0.000 HD
ENDROOT
BRANCH   1   5
ATOM      5  C   UNL     1       4.948   4.677  15.485  0.00  0.00    +0.000 C 
BRANCH   5   6
ATOM      6  S   UNL     1       6.731   4.361  15.531  0.00  0.00    +0.000 S 
BRANCH   6  11
ATOM      7  C   UNL     1       7.981   8.844  17.788  0.00  0.00    +0.000 C 
ATOM      8  C   UNL     1       7.784   7.369  17.778  0.00  0.00    +0.000 A 
ATOM      9  C   UNL     1       7.994   6.509  18.838  0.00  0.00    +0.000 A 
ATOM     10  S   UNL     1       7.648   4.901  18.362  0.00  0.00    +0.000 S 
ATOM     11  C   UNL     1       7.247   5.460  16.791  0.00  0.00    +0.000 A 
ATOM     12  N   UNL     1       7.348   6.762  16.608  0.00  0.00    +0.000 NA
ENDBRANCH   6  11
ENDBRANCH   5   6
ENDBRANCH   1   5
BRANCH   3  13
ATOM     13  C   UNL     1       3.273   6.090  18.619  0.00  0.00    +0.000 C 
BRANCH  13  14
ATOM     14  C   UNL     1       2.521   7.394  18.743  0.00  0.00    +0.000 A 
ATOM     15  C   UNL     1       2.627   8.341  17.706  0.00  0.00    +0.000 A 
ATOM     16  C   UNL     1       1.983   9.578  17.788  0.00  0.00    +0.000 A 
ATOM     17  C   UNL     1       1.211   9.890  18.904  0.00  0.00    +0.000 A 
ATOM     18  C   UNL     1       1.079   8.959  19.933  0.00  0.00    +0.000 A 
ATOM     19  C   UNL     1       1.724   7.718  19.853  0.00  0.00    +0.000 A 
ATOM     20 CL   UNL     1       1.505   6.621  21.170  0.00  0.00    +0.000 Cl
ENDBRANCH  13  14
ENDBRANCH   3  13
TORSDOF 5
ENDMDL
