MODEL 1
REMARK VINA RESULT:      -8.7      0.000      0.000
REMARK  Name = 
REMARK  8 active torsions:
REMARK  status: ('A' for Active; 'I' for Inactive)
REMARK    1  A    between atoms: C_1  and  O_2
REMARK    2  A    between atoms: O_2  and  C_3
REMARK    3  A    between atoms: C_8  and  C_9
REMARK    4  A    between atoms: C_12  and  C_13
REMARK    5  A    between atoms: N_14  and  C_15
REMARK    6  A    between atoms: C_18  and  C_19
REMARK    7  A    between atoms: C_19  and  C_20
REMARK    8  A    between atoms: N_21  and  N_22
REMARK                            x       y       z     vdW  Elec       q    Type
REMARK                         _______ _______ _______ _____ _____    ______ ____
ROOT
ATOM      1  C   UNL     1       0.837   8.996  20.393  0.00  0.00    +0.000 A 
ATOM      2  C   UNL     1      -0.101   9.819  19.760  0.00  0.00    +0.000 A 
ATOM      3  C   UNL     1      -0.871  10.721  20.502  0.00  0.00    +0.000 A 
ATOM      4  C   UNL     1      -0.676  10.835  21.881  0.00  0.00    +0.000 A 
ATOM      5  C   UNL     1       0.274  10.020  22.513  0.00  0.00    +0.000 A 
ATOM      6  C   UNL     1       1.012   9.086  21.776  0.00  0.00    +0.000 A 
ENDROOT
BRANCH   1  12
ATOM      7  C   UNL     1       3.515   5.274  18.919  0.00  0.00    +0.000 C 
ATOM      8  C   UNL     1       2.895   6.459  18.896  0.00  0.00    +0.000 C 
ATOM      9  N   UNL     1       3.039   7.481  17.988  0.00  0.00    +0.000 NA
ATOM     10  C   UNL     1       2.304   8.440  18.473  0.00  0.00    +0.000 C 
ATOM     11  C   UNL     1       2.249   9.793  17.834  0.00  0.00    +0.000 C 
ATOM     12  N   UNL     1       1.654   8.156  19.630  0.00  0.00    +0.000 N 
ATOM     13  C   UNL     1       2.000   6.883  20.006  0.00  0.00    +0.000 C 
ATOM     14  O   UNL     1       1.716   6.241  21.000  0.00  0.00    +0.000 OA
BRANCH   7  20
ATOM     15  C   UNL     1       5.957   4.905  18.395  0.00  0.00    +0.000 A 
ATOM     16  C   UNL     1       6.939   4.631  17.434  0.00  0.00    +0.000 A 
ATOM     17  C   UNL     1       6.596   4.361  16.109  0.00  0.00    +0.000 A 
ATOM     18  C   UNL     1       5.259   4.375  15.726  0.00  0.00    +0.000 A 
ATOM     19  C   UNL     1       4.269   4.656  16.669  0.00  0.00    +0.000 A 
ATOM     20  C   UNL     1       4.603   4.926  18.007  0.00  0.00    +0.000 A 
BRANCH  15  22
ATOM     21  C   UNL     1       7.778   5.786  19.671  0.00  0.00    +0.000 C 
ATOM     22  O   UNL     1       6.477   5.216  19.627  0.00  0.00    +0.000 OA
ENDBRANCH  15  22
ENDBRANCH   7  20
ENDBRANCH   1  12
BRANCH   4  23
ATOM     23  C   UNL     1      -1.394  11.872  22.684  0.00  0.00    +0.000 C 
ATOM     24  C   UNL     1      -0.743  13.228  22.882  0.00  0.00    +0.000 C 
ATOM     25  N   UNL     1      -2.567  11.574  23.165  0.00  0.00    +0.000 NA
BRANCH  25  26
ATOM     26  N   UNL     1      -3.131  12.570  23.954  0.00  0.00    +0.000 NA
ATOM     27  C   UNL     1      -4.176  13.129  23.443  0.00  0.00    +0.000 C 
ATOM     28  N   UNL     1      -4.833  14.097  24.124  0.00  0.00    +0.000 N 
ATOM     29  C   UNL     1      -5.845  14.757  23.492  0.00  0.00    +0.000 C 
ATOM     30  O   UNL     1      -6.508  15.643  24.014  0.00  0.00    +0.000 OA
ATOM     31  C   UNL     1      -5.993  14.306  22.060  0.00  0.00    +0.000 C 
ATOM     32  S   UNL     1      -4.942  12.837  21.907  0.00  0.00    +0.000 S 
ATOM     33  H   UNL     1      -4.563  14.337  25.064  0.00  0.00    +0.000 HD
ENDBRANCH  25  26
ENDBRANCH   4  23
TORSDOF 5
ENDMDL
MODEL 2
REMARK VINA RESULT:      -8.6      2.125      2.844
REMARK  Name = 
REMARK  8 active torsions:
REMARK  status: ('A' for Active; 'I' for Inactive)
REMARK    1  A    between atoms: C_1  and  O_2
REMARK    2  A    between atoms: O_2  and  C_3
REMARK    3  A    between atoms: C_8  and  C_9
REMARK    4  A    between atoms: C_12  and  C_13
REMARK    5  A    between atoms: N_14  and  C_15
REMARK    6  A    between atoms: C_18  and  C_19
REMARK    7  A    between atoms: C_19  and  C_20
REMARK    8  A    between atoms: N_21  and  N_22
REMARK                            x       y       z     vdW  Elec       q    Type
REMARK                         _______ _______ _______ _____ _____    ______ ____
ROOT
ATOM      1  C   UNL     1       0.559  10.583  19.738  0.00  0.00    +0.000 A 
ATOM      2  C   UNL     1       1.201  11.651  20.374  0.00  0.00    +0.000 A 
ATOM      3  C   UNL     1       0.546  12.875  20.543  0.00  0.00    +0.000 A 
ATOM      4  C   UNL     1      -0.776  13.025  20.114  0.00  0.00    +0.000 A 
ATOM      5  C   UNL     1      -1.423  11.950  19.489  0.00  0.00    +0.000 A 
ATOM      6  C   UNL     1      -0.751  10.740  19.280  0.00  0.00    +0.000 A 
ENDROOT
BRANCH   1  12
ATOM      7  C   UNL     1       2.914   6.730  18.064  0.00  0.00    +0.000 C 
ATOM      8  C   UNL     1       2.292   7.541  18.926  0.00  0.00    +0.000 C 
ATOM      9  N   UNL     1       1.868   7.266  20.204  0.00  0.00    +0.000 NA
ATOM     10  C   UNL     1       1.232   8.344  20.564  0.00  0.00    +0.000 C 
ATOM     11  C   UNL     1       0.518   8.438  21.876  0.00  0.00    +0.000 C 
ATOM     12  N   UNL     1       1.198   9.342  19.646  0.00  0.00    +0.000 N 
ATOM     13  C   UNL     1       1.845   8.901  18.519  0.00  0.00    +0.000 C 
ATOM     14  O   UNL     1       1.999   9.425  17.433  0.00  0.00    +0.000 OA
BRANCH   7  20
ATOM     15  C   UNL     1       4.227   4.809  19.043  0.00  0.00    +0.000 A 
ATOM     16  C   UNL     1       4.388   3.424  19.177  0.00  0.00    +0.000 A 
ATOM     17  C   UNL     1       3.467   2.535  18.622  0.00  0.00    +0.000 A 
ATOM     18  C   UNL     1       2.376   3.024  17.913  0.00  0.00    +0.000 A 
ATOM     19  C   UNL     1       2.206   4.402  17.762  0.00  0.00    +0.000 A 
ATOM     20  C   UNL     1       3.126   5.306  18.320  0.00  0.00    +0.000 A 
BRANCH  15  22
ATOM     21  C   UNL     1       6.519   5.481  18.932  0.00  0.00    +0.000 C 
ATOM     22  O   UNL     1       5.260   5.529  19.589  0.00  0.00    +0.000 OA
ENDBRANCH  15  22
ENDBRANCH   7  20
ENDBRANCH   1  12
BRANCH   4  23
ATOM     23  C   UNL     1      -1.544  14.277  20.387  0.00  0.00    +0.000 C 
ATOM     24  C   UNL     1      -0.834  15.613  20.276  0.00  0.00    +0.000 C 
ATOM     25  N   UNL     1      -2.806  14.171  20.691  0.00  0.00    +0.000 NA
BRANCH  25  26
ATOM     26  N   UNL     1      -3.425  15.378  20.996  0.00  0.00    +0.000 NA
ATOM     27  C   UNL     1      -4.263  15.316  21.975  0.00  0.00    +0.000 C 
ATOM     28  N   UNL     1      -4.914  16.430  22.387  0.00  0.00    +0.000 N 
ATOM     29  C   UNL     1      -5.891  16.294  23.328  0.00  0.00    +0.000 C 
ATOM     30  O   UNL     1      -6.537  17.233  23.775  0.00  0.00    +0.000 OA
ATOM     31  C   UNL     1      -6.117  14.849  23.690  0.00  0.00    +0.000 C 
ATOM     32  S   UNL     1      -4.747  13.941  22.927  0.00  0.00    +0.000 S 
ATOM     33  H   UNL     1      -4.696  17.329  21.989  0.00  0.00    +0.000 HD
ENDBRANCH  25  26
ENDBRANCH   4  23
TORSDOF 5
ENDMDL
MODEL 3
REMARK VINA RESULT:      -8.4      4.580     11.046
REMARK  Name = 
REMARK  8 active torsions:
REMARK  status: ('A' for Active; 'I' for Inactive)
REMARK    1  A    between atoms: C_1  and  O_2
REMARK    2  A    between atoms: O_2  and  C_3
REMARK    3  A    between atoms: C_8  and  C_9
REMARK    4  A    between atoms: C_12  and  C_13
REMARK    5  A    between atoms: N_14  and  C_15
REMARK    6  A    between atoms: C_18  and  C_19
REMARK    7  A    between atoms: C_19  and  C_20
REMARK    8  A    between atoms: N_21  and  N_22
REMARK                            x       y       z     vdW  Elec       q    Type
REMARK                         _______ _______ _______ _____ _____    ______ ____
ROOT
ATOM      1  C   UNL     1       0.909  10.495  19.057  0.00  0.00    +0.000 A 
ATOM      2  C   UNL     1       0.750   9.913  20.319  0.00  0.00    +0.000 A 
ATOM      3  C   UNL     1       1.222   8.620  20.570  0.00  0.00    +0.000 A 
ATOM      4  C   UNL     1       1.896   7.916  19.569  0.00  0.00    +0.000 A 
ATOM      5  C   UNL     1       2.067   8.506  18.308  0.00  0.00    +0.000 A 
ATOM      6  C   UNL     1       1.555   9.782  18.045  0.00  0.00    +0.000 A 
ENDROOT
BRANCH   1  12
ATOM      7  C   UNL     1       0.701  15.307  19.058  0.00  0.00    +0.000 C 
ATOM      8  C   UNL     1       0.362  14.038  18.806  0.00  0.00    +0.000 C 
ATOM      9  N   UNL     1      -0.818  13.554  18.293  0.00  0.00    +0.000 NA
ATOM     10  C   UNL     1      -0.681  12.261  18.350  0.00  0.00    +0.000 C 
ATOM     11  C   UNL     1      -1.791  11.332  17.969  0.00  0.00    +0.000 C 
ATOM     12  N   UNL     1       0.503  11.816  18.843  0.00  0.00    +0.000 N 
ATOM     13  C   UNL     1       1.250  12.910  19.199  0.00  0.00    +0.000 C 
ATOM     14  O   UNL     1       2.335  12.991  19.741  0.00  0.00    +0.000 OA
BRANCH   7  20
ATOM     15  C   UNL     1      -1.271  16.653  19.874  0.00  0.00    +0.000 A 
ATOM     16  C   UNL     1      -2.172  17.702  19.647  0.00  0.00    +0.000 A 
ATOM     17  C   UNL     1      -2.049  18.527  18.529  0.00  0.00    +0.000 A 
ATOM     18  C   UNL     1      -1.027  18.304  17.614  0.00  0.00    +0.000 A 
ATOM     19  C   UNL     1      -0.127  17.256  17.821  0.00  0.00    +0.000 A 
ATOM     20  C   UNL     1      -0.239  16.421  18.945  0.00  0.00    +0.000 A 
BRANCH  15  22
ATOM     21  C   UNL     1      -2.763  15.112  20.933  0.00  0.00    +0.000 C 
ATOM     22  O   UNL     1      -1.583  15.903  20.981  0.00  0.00    +0.000 OA
ENDBRANCH  15  22
ENDBRANCH   7  20
ENDBRANCH   1  12
BRANCH   4  23
ATOM     23  C   UNL     1       2.518   6.585  19.840  0.00  0.00    +0.000 C 
ATOM     24  C   UNL     1       1.855   5.654  20.838  0.00  0.00    +0.000 C 
ATOM     25  N   UNL     1       3.599   6.267  19.189  0.00  0.00    +0.000 NA
BRANCH  25  26
ATOM     26  N   UNL     1       4.148   5.041  19.553  0.00  0.00    +0.000 NA
ATOM     27  C   UNL     1       3.746   4.043  18.840  0.00  0.00    +0.000 C 
ATOM     28  N   UNL     1       4.224   2.799  19.078  0.00  0.00    +0.000 N 
ATOM     29  C   UNL     1       3.671   1.755  18.398  0.00  0.00    +0.000 C 
ATOM     30  O   UNL     1       4.030   0.593  18.531  0.00  0.00    +0.000 OA
ATOM     31  C   UNL     1       2.528   2.204  17.524  0.00  0.00    +0.000 C 
ATOM     32  S   UNL     1       2.600   4.016  17.530  0.00  0.00    +0.000 S 
ATOM     33  H   UNL     1       4.953   2.650  19.757  0.00  0.00    +0.000 HD
ENDBRANCH  25  26
ENDBRANCH   4  23
TORSDOF 5
ENDMDL
MODEL 4
REMARK VINA RESULT:      -8.4      1.052      1.601
REMARK  Name = 
REMARK  8 active torsions:
REMARK  status: ('A' for Active; 'I' for Inactive)
REMARK    1  A    between atoms: C_1  and  O_2
REMARK    2  A    between atoms: O_2  and  C_3
REMARK    3  A    between atoms: C_8  and  C_9
REMARK    4  A    between atoms: C_12  and  C_13
REMARK    5  A    between atoms: N_14  and  C_15
REMARK    6  A    between atoms: C_18  and  C_19
REMARK    7  A    between atoms: C_19  and  C_20
REMARK    8  A    between atoms: N_21  and  N_22
REMARK                            x       y       z     vdW  Elec       q    Type
REMARK                         _______ _______ _______ _____ _____    ______ ____
ROOT
ATOM      1  C   UNL     1       0.663   9.281  20.425  0.00  0.00    +0.000 A 
ATOM      2  C   UNL     1      -0.324  10.056  19.806  0.00  0.00    +0.000 A 
ATOM      3  C   UNL     1      -1.106  10.942  20.554  0.00  0.00    +0.000 A 
ATOM      4  C   UNL     1      -0.874  11.091  21.925  0.00  0.00    +0.000 A 
ATOM      5  C   UNL     1       0.124  10.325  22.542  0.00  0.00    +0.000 A 
ATOM      6  C   UNL     1       0.875   9.405  21.800  0.00  0.00    +0.000 A 
ENDROOT
BRANCH   1  12
ATOM      7  C   UNL     1       3.410   5.620  18.927  0.00  0.00    +0.000 C 
ATOM      8  C   UNL     1       2.759   6.788  18.907  0.00  0.00    +0.000 C 
ATOM      9  N   UNL     1       2.862   7.809  17.991  0.00  0.00    +0.000 NA
ATOM     10  C   UNL     1       2.111   8.751  18.483  0.00  0.00    +0.000 C 
ATOM     11  C   UNL     1       2.010  10.098  17.838  0.00  0.00    +0.000 C 
ATOM     12  N   UNL     1       1.488   8.458  19.652  0.00  0.00    +0.000 N 
ATOM     13  C   UNL     1       1.872   7.196  20.030  0.00  0.00    +0.000 C 
ATOM     14  O   UNL     1       1.622   6.554  21.032  0.00  0.00    +0.000 OA
BRANCH   7  20
ATOM     15  C   UNL     1       4.403   4.260  17.047  0.00  0.00    +0.000 A 
ATOM     16  C   UNL     1       5.516   3.970  16.247  0.00  0.00    +0.000 A 
ATOM     17  C   UNL     1       6.699   4.701  16.366  0.00  0.00    +0.000 A 
ATOM     18  C   UNL     1       6.785   5.727  17.300  0.00  0.00    +0.000 A 
ATOM     19  C   UNL     1       5.688   6.022  18.112  0.00  0.00    +0.000 A 
ATOM     20  C   UNL     1       4.491   5.294  17.998  0.00  0.00    +0.000 A 
BRANCH  15  22
ATOM     21  C   UNL     1       3.277   2.244  17.671  0.00  0.00    +0.000 C 
ATOM     22  O   UNL     1       3.354   3.399  16.845  0.00  0.00    +0.000 OA
ENDBRANCH  15  22
ENDBRANCH   7  20
ENDBRANCH   1  12
BRANCH   4  23
ATOM     23  C   UNL     1      -1.607  12.116  22.729  0.00  0.00    +0.000 C 
ATOM     24  C   UNL     1      -0.943  13.454  22.994  0.00  0.00    +0.000 C 
ATOM     25  N   UNL     1      -2.802  11.824  23.155  0.00  0.00    +0.000 NA
BRANCH  25  26
ATOM     26  N   UNL     1      -3.382  12.806  23.951  0.00  0.00    +0.000 NA
ATOM     27  C   UNL     1      -4.469  13.310  23.472  0.00  0.00    +0.000 C 
ATOM     28  N   UNL     1      -5.143  14.258  24.164  0.00  0.00    +0.000 N 
ATOM     29  C   UNL     1      -6.206  14.862  23.561  0.00  0.00    +0.000 C 
ATOM     30  O   UNL     1      -6.888  15.726  24.096  0.00  0.00    +0.000 OA
ATOM     31  C   UNL     1      -6.386  14.384  22.143  0.00  0.00    +0.000 C 
ATOM     32  S   UNL     1      -5.276  12.961  21.970  0.00  0.00    +0.000 S 
ATOM     33  H   UNL     1      -4.850  14.524  25.091  0.00  0.00    +0.000 HD
ENDBRANCH  25  26
ENDBRANCH   4  23
TORSDOF 5
ENDMDL
MODEL 5
REMARK VINA RESULT:      -8.3      3.527     11.283
REMARK  Name = 
REMARK  8 active torsions:
REMARK  status: ('A' for Active; 'I' for Inactive)
REMARK    1  A    between atoms: C_1  and  O_2
REMARK    2  A    between atoms: O_2  and  C_3
REMARK    3  A    between atoms: C_8  and  C_9
REMARK    4  A    between atoms: C_12  and  C_13
REMARK    5  A    between atoms: N_14  and  C_15
REMARK    6  A    between atoms: C_18  and  C_19
REMARK    7  A    between atoms: C_19  and  C_20
REMARK    8  A    between atoms: N_21  and  N_22
REMARK                            x       y       z     vdW  Elec       q    Type
REMARK                         _______ _______ _______ _____ _____    ______ ____
ROOT
ATOM      1  C   UNL     1       0.180  10.378  19.700  0.00  0.00    +0.000 A 
ATOM      2  C   UNL     1       0.854  10.396  18.473  0.00  0.00    +0.000 A 
ATOM      3  C   UNL     1       1.800   9.412  18.168  0.00  0.00    +0.000 A 
ATOM      4  C   UNL     1       2.048   8.376  19.073  0.00  0.00    +0.000 A 
ATOM      5  C   UNL     1       1.362   8.352  20.296  0.00  0.00    +0.000 A 
ATOM      6  C   UNL     1       0.449   9.362  20.619  0.00  0.00    +0.000 A 
ENDROOT
BRANCH   1  12
ATOM      7  C   UNL     1      -2.449  13.856  21.747  0.00  0.00    +0.000 C 
ATOM      8  C   UNL     1      -2.066  12.933  20.858  0.00  0.00    +0.000 C 
ATOM      9  N   UNL     1      -2.777  12.422  19.797  0.00  0.00    +0.000 NA
ATOM     10  C   UNL     1      -2.006  11.486  19.323  0.00  0.00    +0.000 C 
ATOM     11  C   UNL     1      -2.442  10.599  18.199  0.00  0.00    +0.000 C 
ATOM     12  N   UNL     1      -0.818  11.322  19.959  0.00  0.00    +0.000 N 
ATOM     13  C   UNL     1      -0.774  12.209  21.004  0.00  0.00    +0.000 C 
ATOM     14  O   UNL     1       0.057  12.371  21.877  0.00  0.00    +0.000 OA
BRANCH   7  20
ATOM     15  C   UNL     1      -4.866  13.734  22.465  0.00  0.00    +0.000 A 
ATOM     16  C   UNL     1      -6.153  14.284  22.408  0.00  0.00    +0.000 A 
ATOM     17  C   UNL     1      -6.397  15.477  21.728  0.00  0.00    +0.000 A 
ATOM     18  C   UNL     1      -5.353  16.130  21.083  0.00  0.00    +0.000 A 
ATOM     19  C   UNL     1      -4.066  15.590  21.122  0.00  0.00    +0.000 A 
ATOM     20  C   UNL     1      -3.808  14.390  21.807  0.00  0.00    +0.000 A 
BRANCH  15  22
ATOM     21  C   UNL     1      -4.599  12.535  24.518  0.00  0.00    +0.000 C 
ATOM     22  O   UNL     1      -4.822  12.525  23.114  0.00  0.00    +0.000 OA
ENDBRANCH  15  22
ENDBRANCH   7  20
ENDBRANCH   1  12
BRANCH   4  23
ATOM     23  C   UNL     1       2.961   7.245  18.728  0.00  0.00    +0.000 C 
ATOM     24  C   UNL     1       3.680   7.263  17.392  0.00  0.00    +0.000 C 
ATOM     25  N   UNL     1       3.121   6.294  19.603  0.00  0.00    +0.000 NA
BRANCH  25  26
ATOM     26  N   UNL     1       3.932   5.250  19.171  0.00  0.00    +0.000 NA
ATOM     27  C   UNL     1       3.325   4.119  19.045  0.00  0.00    +0.000 C 
ATOM     28  N   UNL     1       3.998   3.028  18.609  0.00  0.00    +0.000 N 
ATOM     29  C   UNL     1       3.356   1.826  18.623  0.00  0.00    +0.000 C 
ATOM     30  O   UNL     1       3.867   0.780  18.246  0.00  0.00    +0.000 OA
ATOM     31  C   UNL     1       1.977   1.939  19.221  0.00  0.00    +0.000 C 
ATOM     32  S   UNL     1       1.662   3.718  19.372  0.00  0.00    +0.000 S 
ATOM     33  H   UNL     1       4.955   3.103  18.304  0.00  0.00    +0.000 HD
ENDBRANCH  25  26
ENDBRANCH   4  23
TORSDOF 5
ENDMDL
MODEL 6
REMARK VINA RESULT:      -8.2      3.343     11.546
REMARK  Name = 
REMARK  8 active torsions:
REMARK  status: ('A' for Active; 'I' for Inactive)
REMARK    1  A    between atoms: C_1  and  O_2
REMARK    2  A    between atoms: O_2  and  C_3
REMARK    3  A    between atoms: C_8  and  C_9
REMARK    4  A    between atoms: C_12  and  C_13
REMARK    5  A    between atoms: N_14  and  C_15
REMARK    6  A    between atoms: C_18  and  C_19
REMARK    7  A    between atoms: C_19  and  C_20
REMARK    8  A    between atoms: N_21  and  N_22
REMARK                            x       y       z     vdW  Elec       q    Type
REMARK                         _______ _______ _______ _____ _____    ______ ____
ROOT
ATOM      1  C   UNL     1      -0.439  10.621  20.768  0.00  0.00    +0.000 A 
ATOM      2  C   UNL     1       0.207  10.898  19.559  0.00  0.00    +0.000 A 
ATOM      3  C   UNL     1       1.141  10.002  19.030  0.00  0.00    +0.000 A 
ATOM      4  C   UNL     1       1.405   8.798  19.688  0.00  0.00    +0.000 A 
ATOM      5  C   UNL     1       0.747   8.514  20.893  0.00  0.00    +0.000 A 
ATOM      6  C   UNL     1      -0.155   9.432  21.445  0.00  0.00    +0.000 A 
ENDROOT
BRANCH   1  12
ATOM      7  C   UNL     1      -3.331  13.157  23.666  0.00  0.00    +0.000 C 
ATOM      8  C   UNL     1      -2.784  12.689  22.539  0.00  0.00    +0.000 C 
ATOM      9  N   UNL     1      -3.233  12.832  21.248  0.00  0.00    +0.000 NA
ATOM     10  C   UNL     1      -2.413  12.105  20.546  0.00  0.00    +0.000 C 
ATOM     11  C   UNL     1      -2.598  11.903  19.074  0.00  0.00    +0.000 C 
ATOM     12  N   UNL     1      -1.427  11.488  21.245  0.00  0.00    +0.000 N 
ATOM     13  C   UNL     1      -1.601  11.786  22.573  0.00  0.00    +0.000 C 
ATOM     14  O   UNL     1      -1.004  11.403  23.560  0.00  0.00    +0.000 OA
BRANCH   7  20
ATOM     15  C   UNL     1      -4.798  15.210  23.731  0.00  0.00    +0.000 A 
ATOM     16  C   UNL     1      -6.086  15.749  23.843  0.00  0.00    +0.000 A 
ATOM     17  C   UNL     1      -7.209  14.924  23.911  0.00  0.00    +0.000 A 
ATOM     18  C   UNL     1      -7.053  13.542  23.881  0.00  0.00    +0.000 A 
ATOM     19  C   UNL     1      -5.775  12.990  23.779  0.00  0.00    +0.000 A 
ATOM     20  C   UNL     1      -4.638  13.812  23.706  0.00  0.00    +0.000 A 
BRANCH  15  22
ATOM     21  C   UNL     1      -3.440  16.712  25.004  0.00  0.00    +0.000 C 
ATOM     22  O   UNL     1      -3.810  16.163  23.747  0.00  0.00    +0.000 OA
ENDBRANCH  15  22
ENDBRANCH   7  20
ENDBRANCH   1  12
BRANCH   4  23
ATOM     23  C   UNL     1       2.305   7.766  19.090  0.00  0.00    +0.000 C 
ATOM     24  C   UNL     1       2.909   8.023  17.722  0.00  0.00    +0.000 C 
ATOM     25  N   UNL     1       2.553   6.691  19.780  0.00  0.00    +0.000 NA
BRANCH  25  26
ATOM     26  N   UNL     1       3.343   5.756  19.120  0.00  0.00    +0.000 NA
ATOM     27  C   UNL     1       2.880   4.551  19.146  0.00  0.00    +0.000 C 
ATOM     28  N   UNL     1       3.543   3.552  18.518  0.00  0.00    +0.000 N 
ATOM     29  C   UNL     1       3.096   2.276  18.688  0.00  0.00    +0.000 C 
ATOM     30  O   UNL     1       3.615   1.300  18.163  0.00  0.00    +0.000 OA
ATOM     31  C   UNL     1       1.936   2.216  19.650  0.00  0.00    +0.000 C 
ATOM     32  S   UNL     1       1.443   3.940  19.917  0.00  0.00    +0.000 S 
ATOM     33  H   UNL     1       4.359   3.748  17.960  0.00  0.00    +0.000 HD
ENDBRANCH  25  26
ENDBRANCH   4  23
TORSDOF 5
ENDMDL
MODEL 7
REMARK VINA RESULT:      -8.2      3.743     11.350
REMARK  Name = 
REMARK  8 active torsions:
REMARK  status: ('A' for Active; 'I' for Inactive)
REMARK    1  A    between atoms: C_1  and  O_2
REMARK    2  A    between atoms: O_2  and  C_3
REMARK    3  A    between atoms: C_8  and  C_9
REMARK    4  A    between atoms: C_12  and  C_13
REMARK    5  A    between atoms: N_14  and  C_15
REMARK    6  A    between atoms: C_18  and  C_19
REMARK    7  A    between atoms: C_19  and  C_20
REMARK    8  A    between atoms: N_21  and  N_22
REMARK                            x       y       z     vdW  Elec       q    Type
REMARK                         _______ _______ _______ _____ _____    ______ ____
ROOT
ATOM      1  C   UNL     1      -0.415  10.331  19.329  0.00  0.00    +0.000 A 
ATOM      2  C   UNL     1       0.226  10.176  18.095  0.00  0.00    +0.000 A 
ATOM      3  C   UNL     1       1.261   9.248  17.943  0.00  0.00    +0.000 A 
ATOM      4  C   UNL     1       1.634   8.435  19.018  0.00  0.00    +0.000 A 
ATOM      5  C   UNL     1       0.982   8.581  20.251  0.00  0.00    +0.000 A 
ATOM      6  C   UNL     1      -0.024   9.542  20.413  0.00  0.00    +0.000 A 
ENDROOT
BRANCH   1  12
ATOM      7  C   UNL     1      -3.529  13.609  20.990  0.00  0.00    +0.000 C 
ATOM      8  C   UNL     1      -2.964  12.723  20.162  0.00  0.00    +0.000 C 
ATOM      9  N   UNL     1      -3.481  12.182  19.008  0.00  0.00    +0.000 NA
ATOM     10  C   UNL     1      -2.591  11.303  18.646  0.00  0.00    +0.000 C 
ATOM     11  C   UNL     1      -2.804  10.405  17.468  0.00  0.00    +0.000 C 
ATOM     12  N   UNL     1      -1.499  11.206  19.446  0.00  0.00    +0.000 N 
ATOM     13  C   UNL     1      -1.662  12.081  20.490  0.00  0.00    +0.000 C 
ATOM     14  O   UNL     1      -0.977  12.283  21.474  0.00  0.00    +0.000 OA
BRANCH   7  20
ATOM     15  C   UNL     1      -6.018  13.190  20.979  0.00  0.00    +0.000 A 
ATOM     16  C   UNL     1      -7.308  13.692  20.761  0.00  0.00    +0.000 A 
ATOM     17  C   UNL     1      -7.514  15.035  20.443  0.00  0.00    +0.000 A 
ATOM     18  C   UNL     1      -6.426  15.892  20.327  0.00  0.00    +0.000 A 
ATOM     19  C   UNL     1      -5.133  15.405  20.531  0.00  0.00    +0.000 A 
ATOM     20  C   UNL     1      -4.914  14.056  20.855  0.00  0.00    +0.000 A 
BRANCH  15  22
ATOM     21  C   UNL     1      -6.891  11.024  20.466  0.00  0.00    +0.000 C 
ATOM     22  O   UNL     1      -5.996  11.838  21.211  0.00  0.00    +0.000 OA
ENDBRANCH  15  22
ENDBRANCH   7  20
ENDBRANCH   1  12
BRANCH   4  23
ATOM     23  C   UNL     1       2.650   7.352  18.856  0.00  0.00    +0.000 C 
ATOM     24  C   UNL     1       3.612   7.416  17.685  0.00  0.00    +0.000 C 
ATOM     25  N   UNL     1       2.683   6.402  19.746  0.00  0.00    +0.000 NA
BRANCH  25  26
ATOM     26  N   UNL     1       3.612   5.401  19.480  0.00  0.00    +0.000 NA
ATOM     27  C   UNL     1       3.096   4.245  19.232  0.00  0.00    +0.000 C 
ATOM     28  N   UNL     1       3.893   3.192  18.934  0.00  0.00    +0.000 N 
ATOM     29  C   UNL     1       3.319   1.961  18.817  0.00  0.00    +0.000 C 
ATOM     30  O   UNL     1       3.943   0.944  18.545  0.00  0.00    +0.000 OA
ATOM     31  C   UNL     1       1.845   2.004  19.131  0.00  0.00    +0.000 C 
ATOM     32  S   UNL     1       1.423   3.764  19.223  0.00  0.00    +0.000 S 
ATOM     33  H   UNL     1       4.887   3.315  18.825  0.00  0.00    +0.000 HD
ENDBRANCH  25  26
ENDBRANCH   4  23
TORSDOF 5
ENDMDL
MODEL 8
REMARK VINA RESULT:      -8.2      2.030      2.326
REMARK  Name = 
REMARK  8 active torsions:
REMARK  status: ('A' for Active; 'I' for Inactive)
REMARK    1  A    between atoms: C_1  and  O_2
REMARK    2  A    between atoms: O_2  and  C_3
REMARK    3  A    between atoms: C_8  and  C_9
REMARK    4  A    between atoms: C_12  and  C_13
REMARK    5  A    between atoms: N_14  and  C_15
REMARK    6  A    between atoms: C_18  and  C_19
REMARK    7  A    between atoms: C_19  and  C_20
REMARK    8  A    between atoms: N_21  and  N_22
REMARK                            x       y       z     vdW  Elec       q    Type
REMARK                         _______ _______ _______ _____ _____    ______ ____
ROOT
ATOM      1  C   UNL     1       0.939   9.032  20.425  0.00  0.00    +0.000 A 
ATOM      2  C   UNL     1       0.024   9.898  19.817  0.00  0.00    +0.000 A 
ATOM      3  C   UNL     1      -0.695  10.823  20.581  0.00  0.00    +0.000 A 
ATOM      4  C   UNL     1      -0.471  10.917  21.957  0.00  0.00    +0.000 A 
ATOM      5  C   UNL     1       0.457  10.058  22.564  0.00  0.00    +0.000 A 
ATOM      6  C   UNL     1       1.143   9.102  21.805  0.00  0.00    +0.000 A 
ENDROOT
BRANCH   1  12
ATOM      7  C   UNL     1       3.463   5.231  18.882  0.00  0.00    +0.000 C 
ATOM      8  C   UNL     1       2.875   6.432  18.874  0.00  0.00    +0.000 C 
ATOM      9  N   UNL     1       3.019   7.447  17.957  0.00  0.00    +0.000 NA
ATOM     10  C   UNL     1       2.328   8.428  18.462  0.00  0.00    +0.000 C 
ATOM     11  C   UNL     1       2.290   9.779  17.819  0.00  0.00    +0.000 C 
ATOM     12  N   UNL     1       1.707   8.166  19.640  0.00  0.00    +0.000 N 
ATOM     13  C   UNL     1       2.029   6.885  20.011  0.00  0.00    +0.000 C 
ATOM     14  O   UNL     1       1.759   6.255  21.015  0.00  0.00    +0.000 OA
BRANCH   7  20
ATOM     15  C   UNL     1       5.881   5.065  18.178  0.00  0.00    +0.000 A 
ATOM     16  C   UNL     1       6.810   4.734  17.183  0.00  0.00    +0.000 A 
ATOM     17  C   UNL     1       6.401   4.178  15.971  0.00  0.00    +0.000 A 
ATOM     18  C   UNL     1       5.049   3.958  15.734  0.00  0.00    +0.000 A 
ATOM     19  C   UNL     1       4.109   4.292  16.711  0.00  0.00    +0.000 A 
ATOM     20  C   UNL     1       4.511   4.849  17.937  0.00  0.00    +0.000 A 
BRANCH  15  22
ATOM     21  C   UNL     1       7.870   5.663  19.364  0.00  0.00    +0.000 C 
ATOM     22  O   UNL     1       6.452   5.664  19.273  0.00  0.00    +0.000 OA
ENDBRANCH  15  22
ENDBRANCH   7  20
ENDBRANCH   1  12
BRANCH   4  23
ATOM     23  C   UNL     1      -1.131  11.974  22.781  0.00  0.00    +0.000 C 
ATOM     24  C   UNL     1      -2.570  11.772  23.218  0.00  0.00    +0.000 C 
ATOM     25  N   UNL     1      -0.433  13.022  23.111  0.00  0.00    +0.000 NA
BRANCH  25  26
ATOM     26  N   UNL     1      -1.146  13.985  23.818  0.00  0.00    +0.000 NA
ATOM     27  C   UNL     1      -1.068  15.176  23.327  0.00  0.00    +0.000 C 
ATOM     28  N   UNL     1      -1.737  16.199  23.910  0.00  0.00    +0.000 N 
ATOM     29  C   UNL     1      -1.517  17.461  23.444  0.00  0.00    +0.000 C 
ATOM     30  O   UNL     1      -2.071  18.455  23.892  0.00  0.00    +0.000 OA
ATOM     31  C   UNL     1      -0.462  17.479  22.366  0.00  0.00    +0.000 C 
ATOM     32  S   UNL     1      -0.175  15.740  21.943  0.00  0.00    +0.000 S 
ATOM     33  H   UNL     1      -2.362  16.030  24.681  0.00  0.00    +0.000 HD
ENDBRANCH  25  26
ENDBRANCH   4  23
TORSDOF 5
ENDMDL
MODEL 9
REMARK VINA RESULT:      -8.2      3.373     11.505
REMARK  Name = 
REMARK  8 active torsions:
REMARK  status: ('A' for Active; 'I' for Inactive)
REMARK    1  A    between atoms: C_1  and  O_2
REMARK    2  A    between atoms: O_2  and  C_3
REMARK    3  A    between atoms: C_8  and  C_9
REMARK    4  A    between atoms: C_12  and  C_13
REMARK    5  A    between atoms: N_14  and  C_15
REMARK    6  A    between atoms: C_18  and  C_19
REMARK    7  A    between atoms: C_19  and  C_20
REMARK    8  A    between atoms: N_21  and  N_22
REMARK                            x       y       z     vdW  Elec       q    Type
REMARK                         _______ _______ _______ _____ _____    ______ ____
ROOT
ATOM      1  C   UNL     1      -0.484  10.814  20.721  0.00  0.00    +0.000 A 
ATOM      2  C   UNL     1       0.303  11.125  19.606  0.00  0.00    +0.000 A 
ATOM      3  C   UNL     1       1.216  10.195  19.098  0.00  0.00    +0.000 A 
ATOM      4  C   UNL     1       1.318   8.928  19.678  0.00  0.00    +0.000 A 
ATOM      5  C   UNL     1       0.520   8.611  20.786  0.00  0.00    +0.000 A 
ATOM      6  C   UNL     1      -0.361   9.559  21.322  0.00  0.00    +0.000 A 
ENDROOT
BRANCH   1  12
ATOM      7  C   UNL     1      -3.297  13.525  23.537  0.00  0.00    +0.000 C 
ATOM      8  C   UNL     1      -2.766  13.004  22.425  0.00  0.00    +0.000 C 
ATOM      9  N   UNL     1      -3.216  13.115  21.130  0.00  0.00    +0.000 NA
ATOM     10  C   UNL     1      -2.417  12.342  20.452  0.00  0.00    +0.000 C 
ATOM     11  C   UNL     1      -2.613  12.094  18.989  0.00  0.00    +0.000 C 
ATOM     12  N   UNL     1      -1.446  11.723  21.170  0.00  0.00    +0.000 N 
ATOM     13  C   UNL     1      -1.608  12.072  22.487  0.00  0.00    +0.000 C 
ATOM     14  O   UNL     1      -1.018  11.707  23.486  0.00  0.00    +0.000 OA
BRANCH   7  20
ATOM     15  C   UNL     1      -5.798  13.593  23.205  0.00  0.00    +0.000 A 
ATOM     16  C   UNL     1      -6.975  14.353  23.182  0.00  0.00    +0.000 A 
ATOM     17  C   UNL     1      -6.966  15.706  23.521  0.00  0.00    +0.000 A 
ATOM     18  C   UNL     1      -5.770  16.321  23.875  0.00  0.00    +0.000 A 
ATOM     19  C   UNL     1      -4.587  15.580  23.892  0.00  0.00    +0.000 A 
ATOM     20  C   UNL     1      -4.586  14.216  23.557  0.00  0.00    +0.000 A 
BRANCH  15  22
ATOM     21  C   UNL     1      -6.634  12.103  21.531  0.00  0.00    +0.000 C 
ATOM     22  O   UNL     1      -5.980  12.301  22.777  0.00  0.00    +0.000 OA
ENDBRANCH  15  22
ENDBRANCH   7  20
ENDBRANCH   1  12
BRANCH   4  23
ATOM     23  C   UNL     1       2.193   7.871  19.086  0.00  0.00    +0.000 C 
ATOM     24  C   UNL     1       2.785   8.096  17.707  0.00  0.00    +0.000 C 
ATOM     25  N   UNL     1       2.431   6.804  19.792  0.00  0.00    +0.000 NA
BRANCH  25  26
ATOM     26  N   UNL     1       3.198   5.844  19.137  0.00  0.00    +0.000 NA
ATOM     27  C   UNL     1       2.742   4.641  19.232  0.00  0.00    +0.000 C 
ATOM     28  N   UNL     1       3.384   3.619  18.619  0.00  0.00    +0.000 N 
ATOM     29  C   UNL     1       2.950   2.349  18.859  0.00  0.00    +0.000 C 
ATOM     30  O   UNL     1       3.452   1.354  18.353  0.00  0.00    +0.000 OA
ATOM     31  C   UNL     1       1.832   2.325  19.870  0.00  0.00    +0.000 C 
ATOM     32  S   UNL     1       1.342   4.057  20.086  0.00  0.00    +0.000 S 
ATOM     33  H   UNL     1       4.174   3.794  18.020  0.00  0.00    +0.000 HD
ENDBRANCH  25  26
ENDBRANCH   4  23
TORSDOF 5
ENDMDL
