MODEL 1
REMARK VINA RESULT:      -6.9      0.000      0.000
REMARK  Name = 
REMARK  3 active torsions:
REMARK  status: ('A' for Active; 'I' for Inactive)
REMARK    1  A    between atoms: N_21  and  O_22
REMARK    2  A    between atoms: O_22  and  C_23
REMARK    3  A    between atoms: C_23  and  C_24
REMARK                            x       y       z     vdW  Elec       q    Type
REMARK                         _______ _______ _______ _____ _____    ______ ____
ROOT
ATOM      1  O   UNL     1      -6.995  12.645  18.227  0.00  0.00    +0.000 OA
ATOM      2  C   UNL     1      -5.912  12.161  17.957  0.00  0.00    +0.000 C 
ATOM      3  N   UNL     1      -5.526  11.576  16.759  0.00  0.00    +0.000 N 
ATOM      4  C   UNL     1      -4.225  11.081  16.827  0.00  0.00    +0.000 A 
ATOM      5  C   UNL     1      -3.530  10.431  15.821  0.00  0.00    +0.000 A 
ATOM      6  C   UNL     1      -2.234   9.987  16.107  0.00  0.00    +0.000 A 
ATOM      7  C   UNL     1      -1.713  10.132  17.393  0.00  0.00    +0.000 A 
ATOM      8 CL   UNL     1      -0.112   9.598  17.748  0.00  0.00    +0.000 Cl
ATOM      9  C   UNL     1      -2.461  10.731  18.407  0.00  0.00    +0.000 A 
ATOM     10  C   UNL     1      -3.689  11.292  18.100  0.00  0.00    +0.000 A 
ATOM     11  C   UNL     1      -4.690  12.086  18.846  0.00  0.00    +0.000 C 
ATOM     12  C   UNL     1      -4.640  12.763  20.009  0.00  0.00    +0.000 C 
ATOM     13  N   UNL     1      -5.622  13.463  20.701  0.00  0.00    +0.000 N 
ATOM     14  C   UNL     1      -5.173  13.753  21.993  0.00  0.00    +0.000 A 
ATOM     15  C   UNL     1      -5.817  14.446  23.002  0.00  0.00    +0.000 A 
ATOM     16  C   UNL     1      -5.108  14.724  24.187  0.00  0.00    +0.000 A 
ATOM     17  C   UNL     1      -3.774  14.323  24.355  0.00  0.00    +0.000 A 
ATOM     18  C   UNL     1      -3.120  13.655  23.325  0.00  0.00    +0.000 A 
ATOM     19  C   UNL     1      -3.829  13.401  22.159  0.00  0.00    +0.000 A 
ATOM     20  C   UNL     1      -3.385  12.862  20.860  0.00  0.00    +0.000 C 
ATOM     21  N   UNL     1      -2.182  12.627  20.460  0.00  0.00    +0.000 NA
ATOM     22  H   UNL     1      -6.143  11.496  15.964  0.00  0.00    +0.000 HD
ATOM     23  H   UNL     1      -6.597  13.346  20.449  0.00  0.00    +0.000 HD
ENDROOT
BRANCH  21  24
ATOM     24  O   UNL     1      -1.260  12.676  21.492  0.00  0.00    +0.000 OA
BRANCH  24  25
ATOM     25  C   UNL     1      -0.440  11.522  21.447  0.00  0.00    +0.000 C 
BRANCH  25  26
ATOM     26  C   UNL     1      -0.704  10.742  22.685  0.00  0.00    +0.000 C 
ATOM     27  C   UNL     1      -0.570   9.250  22.671  0.00  0.00    +0.000 C 
ATOM     28  O   UNL     1       0.437  10.089  23.257  0.00  0.00    +0.000 OA
ENDBRANCH  25  26
ENDBRANCH  24  25
ENDBRANCH  21  24
TORSDOF 3
ENDMDL
MODEL 2
REMARK VINA RESULT:      -6.8      2.864      4.944
REMARK  Name = 
REMARK  3 active torsions:
REMARK  status: ('A' for Active; 'I' for Inactive)
REMARK    1  A    between atoms: N_21  and  O_22
REMARK    2  A    between atoms: O_22  and  C_23
REMARK    3  A    between atoms: C_23  and  C_24
REMARK                            x       y       z     vdW  Elec       q    Type
REMARK                         _______ _______ _______ _____ _____    ______ ____
ROOT
ATOM      1  O   UNL     1      -2.653  11.127  15.817  0.00  0.00    +0.000 OA
ATOM      2  C   UNL     1      -3.455  11.243  16.724  0.00  0.00    +0.000 C 
ATOM      3  N   UNL     1      -4.798  10.894  16.710  0.00  0.00    +0.000 N 
ATOM      4  C   UNL     1      -5.424  11.220  17.911  0.00  0.00    +0.000 A 
ATOM      5  C   UNL     1      -6.756  11.021  18.235  0.00  0.00    +0.000 A 
ATOM      6  C   UNL     1      -7.191  11.449  19.495  0.00  0.00    +0.000 A 
ATOM      7  C   UNL     1      -6.315  12.124  20.344  0.00  0.00    +0.000 A 
ATOM      8 CL   UNL     1      -6.842  12.643  21.903  0.00  0.00    +0.000 Cl
ATOM      9  C   UNL     1      -4.995  12.372  19.966  0.00  0.00    +0.000 A 
ATOM     10  C   UNL     1      -4.520  11.836  18.780  0.00  0.00    +0.000 A 
ATOM     11  C   UNL     1      -3.201  11.782  18.115  0.00  0.00    +0.000 C 
ATOM     12  C   UNL     1      -1.945  12.007  18.549  0.00  0.00    +0.000 C 
ATOM     13  N   UNL     1      -0.730  11.988  17.874  0.00  0.00    +0.000 N 
ATOM     14  C   UNL     1       0.263  12.562  18.676  0.00  0.00    +0.000 A 
ATOM     15  C   UNL     1       1.609  12.727  18.407  0.00  0.00    +0.000 A 
ATOM     16  C   UNL     1       2.445  13.222  19.428  0.00  0.00    +0.000 A 
ATOM     17  C   UNL     1       1.940  13.539  20.698  0.00  0.00    +0.000 A 
ATOM     18  C   UNL     1       0.592  13.341  20.975  0.00  0.00    +0.000 A 
ATOM     19  C   UNL     1      -0.215  12.839  19.961  0.00  0.00    +0.000 A 
ATOM     20  C   UNL     1      -1.617  12.385  19.983  0.00  0.00    +0.000 C 
ATOM     21  N   UNL     1      -2.390  12.220  21.002  0.00  0.00    +0.000 NA
ATOM     22  H   UNL     1      -5.252  10.491  15.903  0.00  0.00    +0.000 HD
ATOM     23  H   UNL     1      -0.714  11.987  16.861  0.00  0.00    +0.000 HD
ENDROOT
BRANCH  21  24
ATOM     24  O   UNL     1      -1.869  12.777  22.159  0.00  0.00    +0.000 OA
BRANCH  24  25
ATOM     25  C   UNL     1      -2.405  12.108  23.287  0.00  0.00    +0.000 C 
BRANCH  25  26
ATOM     26  C   UNL     1      -3.749  12.688  23.548  0.00  0.00    +0.000 C 
ATOM     27  C   UNL     1      -4.465  12.365  24.824  0.00  0.00    +0.000 C 
ATOM     28  O   UNL     1      -3.813  13.629  24.628  0.00  0.00    +0.000 OA
ENDBRANCH  25  26
ENDBRANCH  24  25
ENDBRANCH  21  24
TORSDOF 3
ENDMDL
MODEL 3
REMARK VINA RESULT:      -6.8      2.408      4.695
REMARK  Name = 
REMARK  3 active torsions:
REMARK  status: ('A' for Active; 'I' for Inactive)
REMARK    1  A    between atoms: N_21  and  O_22
REMARK    2  A    between atoms: O_22  and  C_23
REMARK    3  A    between atoms: C_23  and  C_24
REMARK                            x       y       z     vdW  Elec       q    Type
REMARK                         _______ _______ _______ _____ _____    ______ ____
ROOT
ATOM      1  O   UNL     1       1.175  11.788  21.460  0.00  0.00    +0.000 OA
ATOM      2  C   UNL     1       0.248  11.568  20.704  0.00  0.00    +0.000 C 
ATOM      3  N   UNL     1       0.234  10.706  19.617  0.00  0.00    +0.000 N 
ATOM      4  C   UNL     1      -0.987  10.749  18.946  0.00  0.00    +0.000 A 
ATOM      5  C   UNL     1      -1.340  10.028  17.818  0.00  0.00    +0.000 A 
ATOM      6  C   UNL     1      -2.616  10.240  17.282  0.00  0.00    +0.000 A 
ATOM      7  C   UNL     1      -3.452  11.211  17.833  0.00  0.00    +0.000 A 
ATOM      8 CL   UNL     1      -5.030  11.470  17.185  0.00  0.00    +0.000 Cl
ATOM      9  C   UNL     1      -3.045  11.972  18.929  0.00  0.00    +0.000 A 
ATOM     10  C   UNL     1      -1.841  11.676  19.548  0.00  0.00    +0.000 A 
ATOM     11  C   UNL     1      -1.143  12.161  20.758  0.00  0.00    +0.000 C 
ATOM     12  C   UNL     1      -1.550  12.873  21.827  0.00  0.00    +0.000 C 
ATOM     13  N   UNL     1      -0.845  13.349  22.927  0.00  0.00    +0.000 N 
ATOM     14  C   UNL     1      -1.630  14.273  23.625  0.00  0.00    +0.000 A 
ATOM     15  C   UNL     1      -1.330  14.970  24.782  0.00  0.00    +0.000 A 
ATOM     16  C   UNL     1      -2.337  15.758  25.373  0.00  0.00    +0.000 A 
ATOM     17  C   UNL     1      -3.623  15.842  24.819  0.00  0.00    +0.000 A 
ATOM     18  C   UNL     1      -3.930  15.115  23.674  0.00  0.00    +0.000 A 
ATOM     19  C   UNL     1      -2.930  14.331  23.112  0.00  0.00    +0.000 A 
ATOM     20  C   UNL     1      -2.980  13.349  22.013  0.00  0.00    +0.000 C 
ATOM     21  N   UNL     1      -4.015  12.884  21.402  0.00  0.00    +0.000 NA
ATOM     22  H   UNL     1       1.034  10.155  19.343  0.00  0.00    +0.000 HD
ATOM     23  H   UNL     1       0.168  13.356  22.914  0.00  0.00    +0.000 HD
ENDROOT
BRANCH  21  24
ATOM     24  O   UNL     1      -5.166  13.602  21.684  0.00  0.00    +0.000 OA
BRANCH  24  25
ATOM     25  C   UNL     1      -6.232  12.703  21.937  0.00  0.00    +0.000 C 
BRANCH  25  26
ATOM     26  C   UNL     1      -6.423  12.648  23.410  0.00  0.00    +0.000 C 
ATOM     27  C   UNL     1      -7.697  13.151  24.017  0.00  0.00    +0.000 C 
ATOM     28  O   UNL     1      -7.442  11.746  23.865  0.00  0.00    +0.000 OA
ENDBRANCH  25  26
ENDBRANCH  24  25
ENDBRANCH  21  24
TORSDOF 3
ENDMDL
MODEL 4
REMARK VINA RESULT:      -6.8      2.158      4.642
REMARK  Name = 
REMARK  3 active torsions:
REMARK  status: ('A' for Active; 'I' for Inactive)
REMARK    1  A    between atoms: N_21  and  O_22
REMARK    2  A    between atoms: O_22  and  C_23
REMARK    3  A    between atoms: C_23  and  C_24
REMARK                            x       y       z     vdW  Elec       q    Type
REMARK                         _______ _______ _______ _____ _____    ______ ____
ROOT
ATOM      1  O   UNL     1       1.089  11.657  21.466  0.00  0.00    +0.000 OA
ATOM      2  C   UNL     1       0.189  11.448  20.675  0.00  0.00    +0.000 C 
ATOM      3  N   UNL     1       0.213  10.599  19.577  0.00  0.00    +0.000 N 
ATOM      4  C   UNL     1      -0.983  10.651  18.864  0.00  0.00    +0.000 A 
ATOM      5  C   UNL     1      -1.297   9.945  17.716  0.00  0.00    +0.000 A 
ATOM      6  C   UNL     1      -2.552  10.165  17.138  0.00  0.00    +0.000 A 
ATOM      7  C   UNL     1      -3.408  11.128  17.672  0.00  0.00    +0.000 A 
ATOM      8 CL   UNL     1      -4.962  11.396  16.971  0.00  0.00    +0.000 Cl
ATOM      9  C   UNL     1      -3.040  11.875  18.791  0.00  0.00    +0.000 A 
ATOM     10  C   UNL     1      -1.859  11.571  19.447  0.00  0.00    +0.000 A 
ATOM     11  C   UNL     1      -1.203  12.040  20.688  0.00  0.00    +0.000 C 
ATOM     12  C   UNL     1      -1.647  12.739  21.750  0.00  0.00    +0.000 C 
ATOM     13  N   UNL     1      -0.982  13.200  22.881  0.00  0.00    +0.000 N 
ATOM     14  C   UNL     1      -1.790  14.116  23.562  0.00  0.00    +0.000 A 
ATOM     15  C   UNL     1      -1.532  14.797  24.738  0.00  0.00    +0.000 A 
ATOM     16  C   UNL     1      -2.559  15.579  25.303  0.00  0.00    +0.000 A 
ATOM     17  C   UNL     1      -3.825  15.670  24.705  0.00  0.00    +0.000 A 
ATOM     18  C   UNL     1      -4.091  14.958  23.541  0.00  0.00    +0.000 A 
ATOM     19  C   UNL     1      -3.072  14.181  23.004  0.00  0.00    +0.000 A 
ATOM     20  C   UNL     1      -3.083  13.213  21.892  0.00  0.00    +0.000 C 
ATOM     21  N   UNL     1      -4.096  12.756  21.239  0.00  0.00    +0.000 NA
ATOM     22  H   UNL     1       1.022  10.052  19.325  0.00  0.00    +0.000 HD
ATOM     23  H   UNL     1       0.031  13.208  22.904  0.00  0.00    +0.000 HD
ENDROOT
BRANCH  21  24
ATOM     24  O   UNL     1      -5.257  13.471  21.490  0.00  0.00    +0.000 OA
BRANCH  24  25
ATOM     25  C   UNL     1      -6.355  12.579  21.550  0.00  0.00    +0.000 C 
BRANCH  25  26
ATOM     26  C   UNL     1      -6.343  11.776  20.299  0.00  0.00    +0.000 C 
ATOM     27  C   UNL     1      -7.180  10.538  20.198  0.00  0.00    +0.000 C 
ATOM     28  O   UNL     1      -7.573  11.764  19.562  0.00  0.00    +0.000 OA
ENDBRANCH  25  26
ENDBRANCH  24  25
ENDBRANCH  21  24
TORSDOF 3
ENDMDL
MODEL 5
REMARK VINA RESULT:      -6.5      2.824      4.982
REMARK  Name = 
REMARK  3 active torsions:
REMARK  status: ('A' for Active; 'I' for Inactive)
REMARK    1  A    between atoms: N_21  and  O_22
REMARK    2  A    between atoms: O_22  and  C_23
REMARK    3  A    between atoms: C_23  and  C_24
REMARK                            x       y       z     vdW  Elec       q    Type
REMARK                         _______ _______ _______ _____ _____    ______ ____
ROOT
ATOM      1  O   UNL     1      -2.762  11.101  15.862  0.00  0.00    +0.000 OA
ATOM      2  C   UNL     1      -3.551  11.229  16.779  0.00  0.00    +0.000 C 
ATOM      3  N   UNL     1      -4.896  10.885  16.787  0.00  0.00    +0.000 N 
ATOM      4  C   UNL     1      -5.504  11.223  17.994  0.00  0.00    +0.000 A 
ATOM      5  C   UNL     1      -6.831  11.032  18.339  0.00  0.00    +0.000 A 
ATOM      6  C   UNL     1      -7.246  11.472  19.601  0.00  0.00    +0.000 A 
ATOM      7  C   UNL     1      -6.356  12.151  20.432  0.00  0.00    +0.000 A 
ATOM      8 CL   UNL     1      -6.859  12.685  21.994  0.00  0.00    +0.000 Cl
ATOM      9  C   UNL     1      -5.041  12.391  20.033  0.00  0.00    +0.000 A 
ATOM     10  C   UNL     1      -4.585  11.843  18.846  0.00  0.00    +0.000 A 
ATOM     11  C   UNL     1      -3.275  11.778  18.162  0.00  0.00    +0.000 C 
ATOM     12  C   UNL     1      -2.013  12.001  18.576  0.00  0.00    +0.000 C 
ATOM     13  N   UNL     1      -0.807  11.972  17.885  0.00  0.00    +0.000 N 
ATOM     14  C   UNL     1       0.199  12.549  18.667  0.00  0.00    +0.000 A 
ATOM     15  C   UNL     1       1.542  12.707  18.378  0.00  0.00    +0.000 A 
ATOM     16  C   UNL     1       2.394  13.207  19.382  0.00  0.00    +0.000 A 
ATOM     17  C   UNL     1       1.909  13.537  20.657  0.00  0.00    +0.000 A 
ATOM     18  C   UNL     1       0.564  13.346  20.954  0.00  0.00    +0.000 A 
ATOM     19  C   UNL     1      -0.259  12.839  19.956  0.00  0.00    +0.000 A 
ATOM     20  C   UNL     1      -1.663  12.391  20.002  0.00  0.00    +0.000 C 
ATOM     21  N   UNL     1      -2.421  12.237  21.033  0.00  0.00    +0.000 NA
ATOM     22  H   UNL     1      -5.362  10.476  15.991  0.00  0.00    +0.000 HD
ATOM     23  H   UNL     1      -0.805  11.962  16.871  0.00  0.00    +0.000 HD
ENDROOT
BRANCH  21  24
ATOM     24  O   UNL     1      -1.882  12.802  22.178  0.00  0.00    +0.000 OA
BRANCH  24  25
ATOM     25  C   UNL     1      -2.819  13.699  22.746  0.00  0.00    +0.000 C 
BRANCH  25  26
ATOM     26  C   UNL     1      -2.051  14.826  23.338  0.00  0.00    +0.000 C 
ATOM     27  C   UNL     1      -2.045  15.028  24.822  0.00  0.00    +0.000 C 
ATOM     28  O   UNL     1      -0.923  14.449  24.139  0.00  0.00    +0.000 OA
ENDBRANCH  25  26
ENDBRANCH  24  25
ENDBRANCH  21  24
TORSDOF 3
ENDMDL
MODEL 6
REMARK VINA RESULT:      -6.4      2.804      4.684
REMARK  Name = 
REMARK  3 active torsions:
REMARK  status: ('A' for Active; 'I' for Inactive)
REMARK    1  A    between atoms: N_21  and  O_22
REMARK    2  A    between atoms: O_22  and  C_23
REMARK    3  A    between atoms: C_23  and  C_24
REMARK                            x       y       z     vdW  Elec       q    Type
REMARK                         _______ _______ _______ _____ _____    ______ ____
ROOT
ATOM      1  O   UNL     1      -2.735  11.266  15.712  0.00  0.00    +0.000 OA
ATOM      2  C   UNL     1      -3.492  11.324  16.661  0.00  0.00    +0.000 C 
ATOM      3  N   UNL     1      -4.832  10.960  16.694  0.00  0.00    +0.000 N 
ATOM      4  C   UNL     1      -5.400  11.214  17.941  0.00  0.00    +0.000 A 
ATOM      5  C   UNL     1      -6.712  10.982  18.318  0.00  0.00    +0.000 A 
ATOM      6  C   UNL     1      -7.089  11.336  19.618  0.00  0.00    +0.000 A 
ATOM      7  C   UNL     1      -6.178  11.974  20.460  0.00  0.00    +0.000 A 
ATOM      8 CL   UNL     1      -6.632  12.402  22.068  0.00  0.00    +0.000 Cl
ATOM      9  C   UNL     1      -4.881  12.258  20.032  0.00  0.00    +0.000 A 
ATOM     10  C   UNL     1      -4.460  11.792  18.797  0.00  0.00    +0.000 A 
ATOM     11  C   UNL     1      -3.174  11.789  18.066  0.00  0.00    +0.000 C 
ATOM     12  C   UNL     1      -1.901  12.005  18.450  0.00  0.00    +0.000 C 
ATOM     13  N   UNL     1      -0.720  12.036  17.717  0.00  0.00    +0.000 N 
ATOM     14  C   UNL     1       0.305  12.577  18.499  0.00  0.00    +0.000 A 
ATOM     15  C   UNL     1       1.636  12.773  18.174  0.00  0.00    +0.000 A 
ATOM     16  C   UNL     1       2.516  13.222  19.178  0.00  0.00    +0.000 A 
ATOM     17  C   UNL     1       2.072  13.463  20.487  0.00  0.00    +0.000 A 
ATOM     18  C   UNL     1       0.741  13.235  20.818  0.00  0.00    +0.000 A 
ATOM     19  C   UNL     1      -0.110  12.779  19.819  0.00  0.00    +0.000 A 
ATOM     20  C   UNL     1      -1.506  12.309  19.884  0.00  0.00    +0.000 C 
ATOM     21  N   UNL     1      -2.226  12.079  20.930  0.00  0.00    +0.000 NA
ATOM     22  H   UNL     1      -5.320  10.596  15.890  0.00  0.00    +0.000 HD
ATOM     23  H   UNL     1      -0.754  12.090  16.705  0.00  0.00    +0.000 HD
ENDROOT
BRANCH  21  24
ATOM     24  O   UNL     1      -1.654  12.579  22.088  0.00  0.00    +0.000 OA
BRANCH  24  25
ATOM     25  C   UNL     1      -1.573  11.549  23.057  0.00  0.00    +0.000 C 
BRANCH  25  26
ATOM     26  C   UNL     1      -0.454  10.654  22.659  0.00  0.00    +0.000 C 
ATOM     27  C   UNL     1      -0.048   9.523  23.553  0.00  0.00    +0.000 C 
ATOM     28  O   UNL     1      -0.822   9.300  22.364  0.00  0.00    +0.000 OA
ENDBRANCH  25  26
ENDBRANCH  24  25
ENDBRANCH  21  24
TORSDOF 3
ENDMDL
MODEL 7
REMARK VINA RESULT:      -6.3      2.550      4.610
REMARK  Name = 
REMARK  3 active torsions:
REMARK  status: ('A' for Active; 'I' for Inactive)
REMARK    1  A    between atoms: N_21  and  O_22
REMARK    2  A    between atoms: O_22  and  C_23
REMARK    3  A    between atoms: C_23  and  C_24
REMARK                            x       y       z     vdW  Elec       q    Type
REMARK                         _______ _______ _______ _____ _____    ______ ____
ROOT
ATOM      1  O   UNL     1      -2.690  10.281  15.710  0.00  0.00    +0.000 OA
ATOM      2  C   UNL     1      -2.097  10.335  16.771  0.00  0.00    +0.000 C 
ATOM      3  N   UNL     1      -0.818   9.873  17.046  0.00  0.00    +0.000 N 
ATOM      4  C   UNL     1      -0.484  10.056  18.386  0.00  0.00    +0.000 A 
ATOM      5  C   UNL     1       0.705   9.703  19.002  0.00  0.00    +0.000 A 
ATOM      6  C   UNL     1       0.826   9.951  20.374  0.00  0.00    +0.000 A 
ATOM      7  C   UNL     1      -0.256  10.461  21.091  0.00  0.00    +0.000 A 
ATOM      8 CL   UNL     1      -0.109  10.781  22.780  0.00  0.00    +0.000 Cl
ATOM      9  C   UNL     1      -1.467  10.746  20.458  0.00  0.00    +0.000 A 
ATOM     10  C   UNL     1      -1.552  10.630  19.080  0.00  0.00    +0.000 A 
ATOM     11  C   UNL     1      -2.588  10.937  18.070  0.00  0.00    +0.000 C 
ATOM     12  C   UNL     1      -3.711  11.680  18.105  0.00  0.00    +0.000 C 
ATOM     13  N   UNL     1      -4.685  11.908  17.140  0.00  0.00    +0.000 N 
ATOM     14  C   UNL     1      -5.800  12.512  17.729  0.00  0.00    +0.000 A 
ATOM     15  C   UNL     1      -6.979  12.927  17.136  0.00  0.00    +0.000 A 
ATOM     16  C   UNL     1      -7.916  13.631  17.918  0.00  0.00    +0.000 A 
ATOM     17  C   UNL     1      -7.671  13.922  19.269  0.00  0.00    +0.000 A 
ATOM     18  C   UNL     1      -6.471  13.532  19.853  0.00  0.00    +0.000 A 
ATOM     19  C   UNL     1      -5.553  12.850  19.064  0.00  0.00    +0.000 A 
ATOM     20  C   UNL     1      -4.162  12.446  19.337  0.00  0.00    +0.000 C 
ATOM     21  N   UNL     1      -3.420  12.760  20.343  0.00  0.00    +0.000 NA
ATOM     22  H   UNL     1      -0.235   9.428  16.352  0.00  0.00    +0.000 HD
ATOM     23  H   UNL     1      -4.725  11.322  16.314  0.00  0.00    +0.000 HD
ENDROOT
BRANCH  21  24
ATOM     24  O   UNL     1      -4.140  13.347  21.372  0.00  0.00    +0.000 OA
BRANCH  24  25
ATOM     25  C   UNL     1      -4.036  12.546  22.535  0.00  0.00    +0.000 C 
BRANCH  25  26
ATOM     26  C   UNL     1      -4.948  13.127  23.556  0.00  0.00    +0.000 C 
ATOM     27  C   UNL     1      -6.348  12.609  23.688  0.00  0.00    +0.000 C 
ATOM     28  O   UNL     1      -5.321  12.245  24.623  0.00  0.00    +0.000 OA
ENDBRANCH  25  26
ENDBRANCH  24  25
ENDBRANCH  21  24
TORSDOF 3
ENDMDL
MODEL 8
REMARK VINA RESULT:      -6.3      2.042      5.575
REMARK  Name = 
REMARK  3 active torsions:
REMARK  status: ('A' for Active; 'I' for Inactive)
REMARK    1  A    between atoms: N_21  and  O_22
REMARK    2  A    between atoms: O_22  and  C_23
REMARK    3  A    between atoms: C_23  and  C_24
REMARK                            x       y       z     vdW  Elec       q    Type
REMARK                         _______ _______ _______ _____ _____    ______ ____
ROOT
ATOM      1  O   UNL     1      -7.334  13.544  20.128  0.00  0.00    +0.000 OA
ATOM      2  C   UNL     1      -6.477  13.870  20.928  0.00  0.00    +0.000 C 
ATOM      3  N   UNL     1      -6.655  14.571  22.113  0.00  0.00    +0.000 N 
ATOM      4  C   UNL     1      -5.440  14.814  22.750  0.00  0.00    +0.000 A 
ATOM      5  C   UNL     1      -5.248  15.492  23.943  0.00  0.00    +0.000 A 
ATOM      6  C   UNL     1      -3.934  15.650  24.398  0.00  0.00    +0.000 A 
ATOM      7  C   UNL     1      -2.866  15.205  23.620  0.00  0.00    +0.000 A 
ATOM      8 CL   UNL     1      -1.245  15.386  24.181  0.00  0.00    +0.000 Cl
ATOM      9  C   UNL     1      -3.084  14.585  22.389  0.00  0.00    +0.000 A 
ATOM     10  C   UNL     1      -4.382  14.304  21.994  0.00  0.00    +0.000 A 
ATOM     11  C   UNL     1      -4.994  13.583  20.856  0.00  0.00    +0.000 C 
ATOM     12  C   UNL     1      -4.500  12.723  19.944  0.00  0.00    +0.000 C 
ATOM     13  N   UNL     1      -5.104  12.100  18.858  0.00  0.00    +0.000 N 
ATOM     14  C   UNL     1      -4.125  11.525  18.041  0.00  0.00    +0.000 A 
ATOM     15  C   UNL     1      -4.283  10.797  16.876  0.00  0.00    +0.000 A 
ATOM     16  C   UNL     1      -3.145  10.206  16.291  0.00  0.00    +0.000 A 
ATOM     17  C   UNL     1      -1.873  10.337  16.867  0.00  0.00    +0.000 A 
ATOM     18  C   UNL     1      -1.723  11.042  18.056  0.00  0.00    +0.000 A 
ATOM     19  C   UNL     1      -2.857  11.607  18.627  0.00  0.00    +0.000 A 
ATOM     20  C   UNL     1      -3.051  12.269  19.930  0.00  0.00    +0.000 C 
ATOM     21  N   UNL     1      -2.224  12.354  20.916  0.00  0.00    +0.000 NA
ATOM     22  H   UNL     1      -7.558  14.888  22.432  0.00  0.00    +0.000 HD
ATOM     23  H   UNL     1      -6.004  12.424  18.526  0.00  0.00    +0.000 HD
ENDROOT
BRANCH  21  24
ATOM     24  O   UNL     1      -0.938  11.975  20.564  0.00  0.00    +0.000 OA
BRANCH  24  25
ATOM     25  C   UNL     1      -0.178  11.745  21.738  0.00  0.00    +0.000 C 
BRANCH  25  26
ATOM     26  C   UNL     1      -0.904  10.727  22.543  0.00  0.00    +0.000 C 
ATOM     27  C   UNL     1      -0.448   9.301  22.531  0.00  0.00    +0.000 C 
ATOM     28  O   UNL     1      -0.168  10.169  23.639  0.00  0.00    +0.000 OA
ENDBRANCH  25  26
ENDBRANCH  24  25
ENDBRANCH  21  24
TORSDOF 3
ENDMDL
MODEL 9
REMARK VINA RESULT:      -6.2      2.645      4.650
REMARK  Name = 
REMARK  3 active torsions:
REMARK  status: ('A' for Active; 'I' for Inactive)
REMARK    1  A    between atoms: N_21  and  O_22
REMARK    2  A    between atoms: O_22  and  C_23
REMARK    3  A    between atoms: C_23  and  C_24
REMARK                            x       y       z     vdW  Elec       q    Type
REMARK                         _______ _______ _______ _____ _____    ______ ____
ROOT
ATOM      1  O   UNL     1       0.430  13.211  19.364  0.00  0.00    +0.000 OA
ATOM      2  C   UNL     1      -0.640  12.723  19.051  0.00  0.00    +0.000 C 
ATOM      3  N   UNL     1      -0.935  12.004  17.902  0.00  0.00    +0.000 N 
ATOM      4  C   UNL     1      -2.280  11.645  17.853  0.00  0.00    +0.000 A 
ATOM      5  C   UNL     1      -2.914  10.934  16.848  0.00  0.00    +0.000 A 
ATOM      6  C   UNL     1      -4.288  10.702  16.982  0.00  0.00    +0.000 A 
ATOM      7  C   UNL     1      -4.988  11.249  18.057  0.00  0.00    +0.000 A 
ATOM      8 CL   UNL     1      -6.679  10.957  18.234  0.00  0.00    +0.000 Cl
ATOM      9  C   UNL     1      -4.337  12.019  19.021  0.00  0.00    +0.000 A 
ATOM     10  C   UNL     1      -2.958  12.141  18.969  0.00  0.00    +0.000 A 
ATOM     11  C   UNL     1      -1.931  12.755  19.840  0.00  0.00    +0.000 C 
ATOM     12  C   UNL     1      -1.950  13.182  21.118  0.00  0.00    +0.000 C 
ATOM     13  N   UNL     1      -0.969  13.797  21.888  0.00  0.00    +0.000 N 
ATOM     14  C   UNL     1      -1.541  14.310  23.057  0.00  0.00    +0.000 A 
ATOM     15  C   UNL     1      -0.930  14.975  24.104  0.00  0.00    +0.000 A 
ATOM     16  C   UNL     1      -1.698  15.289  25.243  0.00  0.00    +0.000 A 
ATOM     17  C   UNL     1      -3.052  14.934  25.334  0.00  0.00    +0.000 A 
ATOM     18  C   UNL     1      -3.655  14.236  24.293  0.00  0.00    +0.000 A 
ATOM     19  C   UNL     1      -2.880  13.923  23.183  0.00  0.00    +0.000 A 
ATOM     20  C   UNL     1      -3.174  13.080  22.010  0.00  0.00    +0.000 C 
ATOM     21  N   UNL     1      -4.192  12.314  21.810  0.00  0.00    +0.000 NA
ATOM     22  H   UNL     1      -0.250  11.810  17.186  0.00  0.00    +0.000 HD
ATOM     23  H   UNL     1      -0.143  14.179  21.443  0.00  0.00    +0.000 HD
ENDROOT
BRANCH  21  24
ATOM     24  O   UNL     1      -5.210  12.533  22.725  0.00  0.00    +0.000 OA
BRANCH  24  25
ATOM     25  C   UNL     1      -6.452  12.573  22.046  0.00  0.00    +0.000 C 
BRANCH  25  26
ATOM     26  C   UNL     1      -6.588  13.929  21.452  0.00  0.00    +0.000 C 
ATOM     27  C   UNL     1      -7.353  14.113  20.177  0.00  0.00    +0.000 C 
ATOM     28  O   UNL     1      -7.916  14.470  21.449  0.00  0.00    +0.000 OA
ENDBRANCH  25  26
ENDBRANCH  24  25
ENDBRANCH  21  24
TORSDOF 3
ENDMDL
