MODEL 1
REMARK VINA RESULT:      -7.7      0.000      0.000
REMARK  Name = 
REMARK  6 active torsions:
REMARK  status: ('A' for Active; 'I' for Inactive)
REMARK    1  A    between atoms: C_1  and  N_2
REMARK    2  A    between atoms: N_2  and  C_3
REMARK    3  A    between atoms: N_2  and  C_4
REMARK    4  A    between atoms: C_4  and  C_5
REMARK    5  A    between atoms: C_5  and  S_6
REMARK    6  A    between atoms: S_6  and  C_7
REMARK                            x       y       z     vdW  Elec       q    Type
REMARK                         _______ _______ _______ _____ _____    ______ ____
ROOT
ATOM      1  C   UNL     1       4.353   4.719  17.817  0.00  0.00    +0.000 A 
ATOM      2  N   UNL     1       4.452   3.806  18.791  0.00  0.00    +0.000 NA
ATOM      3  C   UNL     1       3.553   3.838  19.773  0.00  0.00    +0.000 A 
ATOM      4  C   UNL     1       3.603   2.765  20.627  0.00  0.00    +0.000 A 
ATOM      5  C   UNL     1       2.476   2.376  21.336  0.00  0.00    +0.000 A 
ATOM      6  C   UNL     1       1.378   3.216  21.365  0.00  0.00    +0.000 A 
ATOM      7  C   UNL     1       1.445   4.468  20.730  0.00  0.00    +0.000 A 
ATOM      8  C   UNL     1       2.537   4.821  19.891  0.00  0.00    +0.000 A 
ATOM      9  C   UNL     1       2.720   6.008  19.074  0.00  0.00    +0.000 A 
ATOM     10  C   UNL     1       3.589   5.876  17.967  0.00  0.00    +0.000 A 
ATOM     11  C   UNL     1       3.695   6.972  16.944  0.00  0.00    +0.000 C 
ATOM     12  O   UNL     1       2.938   8.161  17.129  0.00  0.00    +0.000 OA
ATOM     13  C   UNL     1       2.310   8.347  18.323  0.00  0.00    +0.000 A 
ATOM     14  C   UNL     1       1.881   9.668  18.510  0.00  0.00    +0.000 A 
ATOM     15  C   UNL     1       1.226  10.037  19.675  0.00  0.00    +0.000 A 
ATOM     16  C   UNL     1       1.000   9.075  20.649  0.00  0.00    +0.000 A 
ATOM     17  C   UNL     1       1.446   7.754  20.465  0.00  0.00    +0.000 A 
ATOM     18  C   UNL     1       2.104   7.344  19.289  0.00  0.00    +0.000 A 
ENDROOT
BRANCH   1  19
ATOM     19  S   UNL     1       5.179   4.287  16.298  0.00  0.00    +0.000 S 
BRANCH  19  20
ATOM     20  C   UNL     1       6.924   4.698  16.760  0.00  0.00    +0.000 C 
BRANCH  20  21
ATOM     21  C   UNL     1       7.234   6.209  16.700  0.00  0.00    +0.000 C 
BRANCH  21  23
ATOM     22  C   UNL     1       7.799   6.003  19.035  0.00  0.00    +0.000 C 
ATOM     23  N   UNL     1       7.269   6.910  18.007  0.00  0.00    +0.000 NA
ATOM     24  C   UNL     1       8.075   8.131  17.981  0.00  0.00    +0.000 C 
ENDBRANCH  21  23
ENDBRANCH  20  21
ENDBRANCH  19  20
ENDBRANCH   1  19
TORSDOF 4
ENDMDL
MODEL 2
REMARK VINA RESULT:      -7.4      2.327      4.947
REMARK  Name = 
REMARK  6 active torsions:
REMARK  status: ('A' for Active; 'I' for Inactive)
REMARK    1  A    between atoms: C_1  and  N_2
REMARK    2  A    between atoms: N_2  and  C_3
REMARK    3  A    between atoms: N_2  and  C_4
REMARK    4  A    between atoms: C_4  and  C_5
REMARK    5  A    between atoms: C_5  and  S_6
REMARK    6  A    between atoms: S_6  and  C_7
REMARK                            x       y       z     vdW  Elec       q    Type
REMARK                         _______ _______ _______ _____ _____    ______ ____
ROOT
ATOM      1  C   UNL     1       4.522   6.502  17.553  0.00  0.00    +0.000 A 
ATOM      2  N   UNL     1       3.641   7.472  17.281  0.00  0.00    +0.000 NA
ATOM      3  C   UNL     1       2.672   7.703  18.164  0.00  0.00    +0.000 A 
ATOM      4  C   UNL     1       1.926   8.828  17.911  0.00  0.00    +0.000 A 
ATOM      5  C   UNL     1       1.272   9.487  18.943  0.00  0.00    +0.000 A 
ATOM      6  C   UNL     1       1.175   8.870  20.177  0.00  0.00    +0.000 A 
ATOM      7  C   UNL     1       1.683   7.571  20.347  0.00  0.00    +0.000 A 
ATOM      8  C   UNL     1       2.470   6.942  19.344  0.00  0.00    +0.000 A 
ATOM      9  C   UNL     1       3.165   5.667  19.389  0.00  0.00    +0.000 A 
ATOM     10  C   UNL     1       4.269   5.527  18.517  0.00  0.00    +0.000 A 
ATOM     11  C   UNL     1       5.178   4.334  18.622  0.00  0.00    +0.000 C 
ATOM     12  O   UNL     1       4.887   3.330  19.585  0.00  0.00    +0.000 OA
ATOM     13  C   UNL     1       3.688   3.381  20.229  0.00  0.00    +0.000 A 
ATOM     14  C   UNL     1       3.378   2.187  20.894  0.00  0.00    +0.000 A 
ATOM     15  C   UNL     1       2.190   2.062  21.599  0.00  0.00    +0.000 A 
ATOM     16  C   UNL     1       1.318   3.140  21.637  0.00  0.00    +0.000 A 
ATOM     17  C   UNL     1       1.625   4.332  20.955  0.00  0.00    +0.000 A 
ATOM     18  C   UNL     1       2.827   4.495  20.240  0.00  0.00    +0.000 A 
ENDROOT
BRANCH   1  19
ATOM     19  S   UNL     1       6.065   6.622  16.671  0.00  0.00    +0.000 S 
BRANCH  19  20
ATOM     20  C   UNL     1       5.528   6.008  15.009  0.00  0.00    +0.000 C 
BRANCH  20  21
ATOM     21  C   UNL     1       5.593   4.471  14.873  0.00  0.00    +0.000 C 
BRANCH  21  23
ATOM     22  C   UNL     1       5.819   3.459  12.697  0.00  0.00    +0.000 C 
ATOM     23  N   UNL     1       6.555   3.956  13.868  0.00  0.00    +0.000 NA
ATOM     24  C   UNL     1       7.526   4.961  13.436  0.00  0.00    +0.000 C 
ENDBRANCH  21  23
ENDBRANCH  20  21
ENDBRANCH  19  20
ENDBRANCH   1  19
TORSDOF 4
ENDMDL
MODEL 3
REMARK VINA RESULT:      -7.4      1.817      2.431
REMARK  Name = 
REMARK  6 active torsions:
REMARK  status: ('A' for Active; 'I' for Inactive)
REMARK    1  A    between atoms: C_1  and  N_2
REMARK    2  A    between atoms: N_2  and  C_3
REMARK    3  A    between atoms: N_2  and  C_4
REMARK    4  A    between atoms: C_4  and  C_5
REMARK    5  A    between atoms: C_5  and  S_6
REMARK    6  A    between atoms: S_6  and  C_7
REMARK                            x       y       z     vdW  Elec       q    Type
REMARK                         _______ _______ _______ _____ _____    ______ ____
ROOT
ATOM      1  C   UNL     1       4.097   5.819  18.021  0.00  0.00    +0.000 A 
ATOM      2  N   UNL     1       4.315   4.735  18.775  0.00  0.00    +0.000 NA
ATOM      3  C   UNL     1       3.423   4.440  19.718  0.00  0.00    +0.000 A 
ATOM      4  C   UNL     1       3.612   3.220  20.320  0.00  0.00    +0.000 A 
ATOM      5  C   UNL     1       2.546   2.548  20.900  0.00  0.00    +0.000 A 
ATOM      6  C   UNL     1       1.350   3.217  21.083  0.00  0.00    +0.000 A 
ATOM      7  C   UNL     1       1.255   4.576  20.737  0.00  0.00    +0.000 A 
ATOM      8  C   UNL     1       2.290   5.237  20.022  0.00  0.00    +0.000 A 
ATOM      9  C   UNL     1       2.318   6.588  19.487  0.00  0.00    +0.000 A 
ATOM     10  C   UNL     1       3.192   6.810  18.399  0.00  0.00    +0.000 A 
ATOM     11  C   UNL     1       3.154   8.108  17.642  0.00  0.00    +0.000 C 
ATOM     12  O   UNL     1       2.253   9.123  18.062  0.00  0.00    +0.000 OA
ATOM     13  C   UNL     1       1.610   8.964  19.252  0.00  0.00    +0.000 A 
ATOM     14  C   UNL     1       1.016  10.148  19.711  0.00  0.00    +0.000 A 
ATOM     15  C   UNL     1       0.324  10.169  20.912  0.00  0.00    +0.000 A 
ATOM     16  C   UNL     1       0.226   8.997  21.648  0.00  0.00    +0.000 A 
ATOM     17  C   UNL     1       0.836   7.814  21.192  0.00  0.00    +0.000 A 
ATOM     18  C   UNL     1       1.537   7.757  19.972  0.00  0.00    +0.000 A 
ENDROOT
BRANCH   1  19
ATOM     19  S   UNL     1       4.967   5.837  16.465  0.00  0.00    +0.000 S 
BRANCH  19  20
ATOM     20  C   UNL     1       5.179   4.017  16.202  0.00  0.00    +0.000 C 
BRANCH  20  21
ATOM     21  C   UNL     1       6.300   3.670  15.198  0.00  0.00    +0.000 C 
BRANCH  21  23
ATOM     22  C   UNL     1       7.519   5.114  13.700  0.00  0.00    +0.000 C 
ATOM     23  N   UNL     1       6.253   4.396  13.906  0.00  0.00    +0.000 NA
ATOM     24  C   UNL     1       6.008   3.515  12.763  0.00  0.00    +0.000 C 
ENDBRANCH  21  23
ENDBRANCH  20  21
ENDBRANCH  19  20
ENDBRANCH   1  19
TORSDOF 4
ENDMDL
MODEL 4
REMARK VINA RESULT:      -7.2      0.885      1.246
REMARK  Name = 
REMARK  6 active torsions:
REMARK  status: ('A' for Active; 'I' for Inactive)
REMARK    1  A    between atoms: C_1  and  N_2
REMARK    2  A    between atoms: N_2  and  C_3
REMARK    3  A    between atoms: N_2  and  C_4
REMARK    4  A    between atoms: C_4  and  C_5
REMARK    5  A    between atoms: C_5  and  S_6
REMARK    6  A    between atoms: S_6  and  C_7
REMARK                            x       y       z     vdW  Elec       q    Type
REMARK                         _______ _______ _______ _____ _____    ______ ____
ROOT
ATOM      1  C   UNL     1       3.917   5.746  17.950  0.00  0.00    +0.000 A 
ATOM      2  N   UNL     1       4.154   4.654  18.687  0.00  0.00    +0.000 NA
ATOM      3  C   UNL     1       3.313   4.374  19.680  0.00  0.00    +0.000 A 
ATOM      4  C   UNL     1       3.510   3.148  20.266  0.00  0.00    +0.000 A 
ATOM      5  C   UNL     1       2.465   2.497  20.906  0.00  0.00    +0.000 A 
ATOM      6  C   UNL     1       1.297   3.193  21.162  0.00  0.00    +0.000 A 
ATOM      7  C   UNL     1       1.213   4.555  20.827  0.00  0.00    +0.000 A 
ATOM      8  C   UNL     1       2.219   5.196  20.054  0.00  0.00    +0.000 A 
ATOM      9  C   UNL     1       2.245   6.548  19.522  0.00  0.00    +0.000 A 
ATOM     10  C   UNL     1       3.059   6.755  18.385  0.00  0.00    +0.000 A 
ATOM     11  C   UNL     1       3.006   8.057  17.635  0.00  0.00    +0.000 C 
ATOM     12  O   UNL     1       2.154   9.090  18.111  0.00  0.00    +0.000 OA
ATOM     13  C   UNL     1       1.580   8.940  19.337  0.00  0.00    +0.000 A 
ATOM     14  C   UNL     1       1.041  10.136  19.834  0.00  0.00    +0.000 A 
ATOM     15  C   UNL     1       0.422  10.167  21.074  0.00  0.00    +0.000 A 
ATOM     16  C   UNL     1       0.341   8.994  21.811  0.00  0.00    +0.000 A 
ATOM     17  C   UNL     1       0.895   7.799  21.316  0.00  0.00    +0.000 A 
ATOM     18  C   UNL     1       1.522   7.732  20.057  0.00  0.00    +0.000 A 
ENDROOT
BRANCH   1  19
ATOM     19  S   UNL     1       4.693   5.751  16.346  0.00  0.00    +0.000 S 
BRANCH  19  20
ATOM     20  C   UNL     1       6.212   4.765  16.727  0.00  0.00    +0.000 C 
BRANCH  20  21
ATOM     21  C   UNL     1       7.522   5.563  16.547  0.00  0.00    +0.000 C 
BRANCH  21  23
ATOM     22  C   UNL     1       7.535   7.729  17.607  0.00  0.00    +0.000 C 
ATOM     23  N   UNL     1       7.974   6.332  17.733  0.00  0.00    +0.000 NA
ATOM     24  C   UNL     1       7.477   5.783  18.995  0.00  0.00    +0.000 C 
ENDBRANCH  21  23
ENDBRANCH  20  21
ENDBRANCH  19  20
ENDBRANCH   1  19
TORSDOF 4
ENDMDL
MODEL 5
REMARK VINA RESULT:      -7.0      2.787      5.838
REMARK  Name = 
REMARK  6 active torsions:
REMARK  status: ('A' for Active; 'I' for Inactive)
REMARK    1  A    between atoms: C_1  and  N_2
REMARK    2  A    between atoms: N_2  and  C_3
REMARK    3  A    between atoms: N_2  and  C_4
REMARK    4  A    between atoms: C_4  and  C_5
REMARK    5  A    between atoms: C_5  and  S_6
REMARK    6  A    between atoms: S_6  and  C_7
REMARK                            x       y       z     vdW  Elec       q    Type
REMARK                         _______ _______ _______ _____ _____    ______ ____
ROOT
ATOM      1  C   UNL     1       2.193   6.835  19.406  0.00  0.00    +0.000 A 
ATOM      2  N   UNL     1       1.562   5.880  20.100  0.00  0.00    +0.000 NA
ATOM      3  C   UNL     1       2.104   4.664  20.127  0.00  0.00    +0.000 A 
ATOM      4  C   UNL     1       1.508   3.794  21.006  0.00  0.00    +0.000 A 
ATOM      5  C   UNL     1       2.222   2.728  21.535  0.00  0.00    +0.000 A 
ATOM      6  C   UNL     1       3.451   2.406  20.988  0.00  0.00    +0.000 A 
ATOM      7  C   UNL     1       3.924   3.121  19.874  0.00  0.00    +0.000 A 
ATOM      8  C   UNL     1       3.270   4.294  19.410  0.00  0.00    +0.000 A 
ATOM      9  C   UNL     1       3.673   5.215  18.360  0.00  0.00    +0.000 A 
ATOM     10  C   UNL     1       3.169   6.531  18.457  0.00  0.00    +0.000 A 
ATOM     11  C   UNL     1       3.677   7.613  17.545  0.00  0.00    +0.000 C 
ATOM     12  O   UNL     1       4.644   7.282  16.558  0.00  0.00    +0.000 OA
ATOM     13  C   UNL     1       4.918   5.966  16.338  0.00  0.00    +0.000 A 
ATOM     14  C   UNL     1       5.623   5.750  15.145  0.00  0.00    +0.000 A 
ATOM     15  C   UNL     1       5.980   4.466  14.762  0.00  0.00    +0.000 A 
ATOM     16  C   UNL     1       5.632   3.402  15.581  0.00  0.00    +0.000 A 
ATOM     17  C   UNL     1       4.913   3.621  16.770  0.00  0.00    +0.000 A 
ATOM     18  C   UNL     1       4.544   4.912  17.193  0.00  0.00    +0.000 A 
ENDROOT
BRANCH   1  19
ATOM     19  S   UNL     1       1.765   8.502  19.865  0.00  0.00    +0.000 S 
BRANCH  19  20
ATOM     20  C   UNL     1       0.892   8.176  21.464  0.00  0.00    +0.000 C 
BRANCH  20  21
ATOM     21  C   UNL     1       0.736   9.434  22.345  0.00  0.00    +0.000 C 
BRANCH  21  23
ATOM     22  C   UNL     1      -1.133  10.737  23.131  0.00  0.00    +0.000 C 
ATOM     23  N   UNL     1      -0.346  10.367  21.947  0.00  0.00    +0.000 NA
ATOM     24  C   UNL     1       0.154  11.582  21.302  0.00  0.00    +0.000 C 
ENDBRANCH  21  23
ENDBRANCH  20  21
ENDBRANCH  19  20
ENDBRANCH   1  19
TORSDOF 4
ENDMDL
MODEL 6
REMARK VINA RESULT:      -6.8      1.861      2.413
REMARK  Name = 
REMARK  6 active torsions:
REMARK  status: ('A' for Active; 'I' for Inactive)
REMARK    1  A    between atoms: C_1  and  N_2
REMARK    2  A    between atoms: N_2  and  C_3
REMARK    3  A    between atoms: N_2  and  C_4
REMARK    4  A    between atoms: C_4  and  C_5
REMARK    5  A    between atoms: C_5  and  S_6
REMARK    6  A    between atoms: S_6  and  C_7
REMARK                            x       y       z     vdW  Elec       q    Type
REMARK                         _______ _______ _______ _____ _____    ______ ____
ROOT
ATOM      1  C   UNL     1       4.934   4.914  18.308  0.00  0.00    +0.000 A 
ATOM      2  N   UNL     1       4.810   4.044  19.318  0.00  0.00    +0.000 NA
ATOM      3  C   UNL     1       3.678   4.055  20.018  0.00  0.00    +0.000 A 
ATOM      4  C   UNL     1       3.549   3.018  20.909  0.00  0.00    +0.000 A 
ATOM      5  C   UNL     1       2.293   2.584  21.307  0.00  0.00    +0.000 A 
ATOM      6  C   UNL     1       1.187   3.354  20.996  0.00  0.00    +0.000 A 
ATOM      7  C   UNL     1       1.360   4.585  20.339  0.00  0.00    +0.000 A 
ATOM      8  C   UNL     1       2.619   4.975  19.809  0.00  0.00    +0.000 A 
ATOM      9  C   UNL     1       2.957   6.142  19.011  0.00  0.00    +0.000 A 
ATOM     10  C   UNL     1       4.099   6.024  18.186  0.00  0.00    +0.000 A 
ATOM     11  C   UNL     1       4.423   7.088  17.175  0.00  0.00    +0.000 C 
ATOM     12  O   UNL     1       3.586   8.233  17.088  0.00  0.00    +0.000 OA
ATOM     13  C   UNL     1       2.648   8.421  18.058  0.00  0.00    +0.000 A 
ATOM     14  C   UNL     1       2.117   9.719  18.054  0.00  0.00    +0.000 A 
ATOM     15  C   UNL     1       1.153  10.088  18.979  0.00  0.00    +0.000 A 
ATOM     16  C   UNL     1       0.720   9.149  19.905  0.00  0.00    +0.000 A 
ATOM     17  C   UNL     1       1.265   7.852  19.916  0.00  0.00    +0.000 A 
ATOM     18  C   UNL     1       2.238   7.443  18.984  0.00  0.00    +0.000 A 
ENDROOT
BRANCH   1  19
ATOM     19  S   UNL     1       6.162   4.481  17.092  0.00  0.00    +0.000 S 
BRANCH  19  20
ATOM     20  C   UNL     1       5.067   3.795  15.766  0.00  0.00    +0.000 C 
BRANCH  20  21
ATOM     21  C   UNL     1       5.310   4.431  14.381  0.00  0.00    +0.000 C 
BRANCH  21  23
ATOM     22  C   UNL     1       6.030   3.373  12.338  0.00  0.00    +0.000 C 
ATOM     23  N   UNL     1       6.479   3.910  13.631  0.00  0.00    +0.000 NA
ATOM     24  C   UNL     1       7.509   4.922  13.400  0.00  0.00    +0.000 C 
ENDBRANCH  21  23
ENDBRANCH  20  21
ENDBRANCH  19  20
ENDBRANCH   1  19
TORSDOF 4
ENDMDL
MODEL 7
REMARK VINA RESULT:      -6.8      2.503      5.888
REMARK  Name = 
REMARK  6 active torsions:
REMARK  status: ('A' for Active; 'I' for Inactive)
REMARK    1  A    between atoms: C_1  and  N_2
REMARK    2  A    between atoms: N_2  and  C_3
REMARK    3  A    between atoms: N_2  and  C_4
REMARK    4  A    between atoms: C_4  and  C_5
REMARK    5  A    between atoms: C_5  and  S_6
REMARK    6  A    between atoms: S_6  and  C_7
REMARK                            x       y       z     vdW  Elec       q    Type
REMARK                         _______ _______ _______ _____ _____    ______ ____
ROOT
ATOM      1  C   UNL     1       2.583   5.149  20.604  0.00  0.00    +0.000 A 
ATOM      2  N   UNL     1       1.969   6.320  20.815  0.00  0.00    +0.000 NA
ATOM      3  C   UNL     1       2.142   7.288  19.917  0.00  0.00    +0.000 A 
ATOM      4  C   UNL     1       1.337   8.385  20.100  0.00  0.00    +0.000 A 
ATOM      5  C   UNL     1       1.008   9.204  19.029  0.00  0.00    +0.000 A 
ATOM      6  C   UNL     1       1.687   9.051  17.834  0.00  0.00    +0.000 A 
ATOM      7  C   UNL     1       2.734   8.117  17.745  0.00  0.00    +0.000 A 
ATOM      8  C   UNL     1       2.990   7.184  18.785  0.00  0.00    +0.000 A 
ATOM      9  C   UNL     1       3.942   6.086  18.820  0.00  0.00    +0.000 A 
ATOM     10  C   UNL     1       3.637   5.023  19.700  0.00  0.00    +0.000 A 
ATOM     11  C   UNL     1       4.440   3.753  19.670  0.00  0.00    +0.000 C 
ATOM     12  O   UNL     1       5.535   3.652  18.769  0.00  0.00    +0.000 OA
ATOM     13  C   UNL     1       5.942   4.778  18.121  0.00  0.00    +0.000 A 
ATOM     14  C   UNL     1       7.205   4.636  17.528  0.00  0.00    +0.000 A 
ATOM     15  C   UNL     1       7.778   5.688  16.830  0.00  0.00    +0.000 A 
ATOM     16  C   UNL     1       7.077   6.881  16.725  0.00  0.00    +0.000 A 
ATOM     17  C   UNL     1       5.817   7.026  17.333  0.00  0.00    +0.000 A 
ATOM     18  C   UNL     1       5.204   5.974  18.040  0.00  0.00    +0.000 A 
ENDROOT
BRANCH   1  19
ATOM     19  S   UNL     1       1.881   3.766  21.480  0.00  0.00    +0.000 S 
BRANCH  19  20
ATOM     20  C   UNL     1       0.696   3.149  20.200  0.00  0.00    +0.000 C 
BRANCH  20  21
ATOM     21  C   UNL     1       1.301   2.072  19.273  0.00  0.00    +0.000 C 
BRANCH  21  23
ATOM     22  C   UNL     1       1.176   3.895  17.700  0.00  0.00    +0.000 C 
ATOM     23  N   UNL     1       1.441   2.457  17.847  0.00  0.00    +0.000 NA
ATOM     24  C   UNL     1       2.763   2.152  17.299  0.00  0.00    +0.000 C 
ENDBRANCH  21  23
ENDBRANCH  20  21
ENDBRANCH  19  20
ENDBRANCH   1  19
TORSDOF 4
ENDMDL
MODEL 8
REMARK VINA RESULT:      -6.6      2.022      4.722
REMARK  Name = 
REMARK  6 active torsions:
REMARK  status: ('A' for Active; 'I' for Inactive)
REMARK    1  A    between atoms: C_1  and  N_2
REMARK    2  A    between atoms: N_2  and  C_3
REMARK    3  A    between atoms: N_2  and  C_4
REMARK    4  A    between atoms: C_4  and  C_5
REMARK    5  A    between atoms: C_5  and  S_6
REMARK    6  A    between atoms: S_6  and  C_7
REMARK                            x       y       z     vdW  Elec       q    Type
REMARK                         _______ _______ _______ _____ _____    ______ ____
ROOT
ATOM      1  C   UNL     1       4.969   6.496  17.634  0.00  0.00    +0.000 A 
ATOM      2  N   UNL     1       4.144   7.466  17.222  0.00  0.00    +0.000 NA
ATOM      3  C   UNL     1       3.060   7.718  17.953  0.00  0.00    +0.000 A 
ATOM      4  C   UNL     1       2.367   8.842  17.576  0.00  0.00    +0.000 A 
ATOM      5  C   UNL     1       1.577   9.522  18.491  0.00  0.00    +0.000 A 
ATOM      6  C   UNL     1       1.298   8.929  19.709  0.00  0.00    +0.000 A 
ATOM      7  C   UNL     1       1.767   7.630  19.972  0.00  0.00    +0.000 A 
ATOM      8  C   UNL     1       2.684   6.979  19.104  0.00  0.00    +0.000 A 
ATOM      9  C   UNL     1       3.355   5.701  19.269  0.00  0.00    +0.000 A 
ATOM     10  C   UNL     1       4.572   5.539  18.569  0.00  0.00    +0.000 A 
ATOM     11  C   UNL     1       5.447   4.344  18.823  0.00  0.00    +0.000 C 
ATOM     12  O   UNL     1       5.012   3.359  19.750  0.00  0.00    +0.000 OA
ATOM     13  C   UNL     1       3.734   3.428  20.215  0.00  0.00    +0.000 A 
ATOM     14  C   UNL     1       3.322   2.247  20.848  0.00  0.00    +0.000 A 
ATOM     15  C   UNL     1       2.044   2.141  21.377  0.00  0.00    +0.000 A 
ATOM     16  C   UNL     1       1.184   3.225  21.270  0.00  0.00    +0.000 A 
ATOM     17  C   UNL     1       1.596   4.403  20.621  0.00  0.00    +0.000 A 
ATOM     18  C   UNL     1       2.889   4.546  20.083  0.00  0.00    +0.000 A 
ENDROOT
BRANCH   1  19
ATOM     19  S   UNL     1       6.624   6.591  16.981  0.00  0.00    +0.000 S 
BRANCH  19  20
ATOM     20  C   UNL     1       7.047   8.332  17.447  0.00  0.00    +0.000 C 
BRANCH  20  21
ATOM     21  C   UNL     1       8.342   8.446  18.279  0.00  0.00    +0.000 C 
BRANCH  21  23
ATOM     22  C   UNL     1       8.084  10.764  17.668  0.00  0.00    +0.000 C 
ATOM     23  N   UNL     1       8.987   9.782  18.285  0.00  0.00    +0.000 NA
ATOM     24  C   UNL     1       9.347  10.238  19.628  0.00  0.00    +0.000 C 
ENDBRANCH  21  23
ENDBRANCH  20  21
ENDBRANCH  19  20
ENDBRANCH   1  19
TORSDOF 4
ENDMDL
MODEL 9
REMARK VINA RESULT:      -6.6      2.728      5.550
REMARK  Name = 
REMARK  6 active torsions:
REMARK  status: ('A' for Active; 'I' for Inactive)
REMARK    1  A    between atoms: C_1  and  N_2
REMARK    2  A    between atoms: N_2  and  C_3
REMARK    3  A    between atoms: N_2  and  C_4
REMARK    4  A    between atoms: C_4  and  C_5
REMARK    5  A    between atoms: C_5  and  S_6
REMARK    6  A    between atoms: S_6  and  C_7
REMARK                            x       y       z     vdW  Elec       q    Type
REMARK                         _______ _______ _______ _____ _____    ______ ____
ROOT
ATOM      1  C   UNL     1       2.105   6.785  19.750  0.00  0.00    +0.000 A 
ATOM      2  N   UNL     1       1.488   5.786  20.393  0.00  0.00    +0.000 NA
ATOM      3  C   UNL     1       2.028   4.571  20.326  0.00  0.00    +0.000 A 
ATOM      4  C   UNL     1       1.450   3.644  21.158  0.00  0.00    +0.000 A 
ATOM      5  C   UNL     1       2.173   2.545  21.598  0.00  0.00    +0.000 A 
ATOM      6  C   UNL     1       3.389   2.260  21.005  0.00  0.00    +0.000 A 
ATOM      7  C   UNL     1       3.840   3.048  19.932  0.00  0.00    +0.000 A 
ATOM      8  C   UNL     1       3.178   4.250  19.561  0.00  0.00    +0.000 A 
ATOM      9  C   UNL     1       3.560   5.239  18.567  0.00  0.00    +0.000 A 
ATOM     10  C   UNL     1       3.060   6.546  18.762  0.00  0.00    +0.000 A 
ATOM     11  C   UNL     1       3.551   7.686  17.914  0.00  0.00    +0.000 C 
ATOM     12  O   UNL     1       4.497   7.422  16.887  0.00  0.00    +0.000 OA
ATOM     13  C   UNL     1       4.764   6.123  16.574  0.00  0.00    +0.000 A 
ATOM     14  C   UNL     1       5.442   5.988  15.354  0.00  0.00    +0.000 A 
ATOM     15  C   UNL     1       5.789   4.732  14.878  0.00  0.00    +0.000 A 
ATOM     16  C   UNL     1       5.457   3.616  15.632  0.00  0.00    +0.000 A 
ATOM     17  C   UNL     1       4.763   3.754  16.847  0.00  0.00    +0.000 A 
ATOM     18  C   UNL     1       4.406   5.014  17.364  0.00  0.00    +0.000 A 
ENDROOT
BRANCH   1  19
ATOM     19  S   UNL     1       1.691   8.419  20.329  0.00  0.00    +0.000 S 
BRANCH  19  20
ATOM     20  C   UNL     1       0.995   9.138  18.772  0.00  0.00    +0.000 C 
BRANCH  20  21
ATOM     21  C   UNL     1       1.153  10.672  18.683  0.00  0.00    +0.000 C 
BRANCH  21  23
ATOM     22  C   UNL     1      -1.242  10.648  18.964  0.00  0.00    +0.000 C 
ATOM     23  N   UNL     1      -0.028  11.465  19.105  0.00  0.00    +0.000 NA
ATOM     24  C   UNL     1       0.070  11.947  20.483  0.00  0.00    +0.000 C 
ENDBRANCH  21  23
ENDBRANCH  20  21
ENDBRANCH  19  20
ENDBRANCH   1  19
TORSDOF 4
ENDMDL
