MODEL 1
REMARK VINA RESULT:      -7.8      0.000      0.000
REMARK  Name = 
REMARK  3 active torsions:
REMARK  status: ('A' for Active; 'I' for Inactive)
REMARK    1  A    between atoms: C_1  and  N_2
REMARK    2  A    between atoms: C_9  and  N_10
REMARK    3  A    between atoms: N_10  and  C_11
REMARK                            x       y       z     vdW  Elec       q    Type
REMARK                         _______ _______ _______ _____ _____    ______ ____
ROOT
ATOM      1  C   UNL     1       7.937   6.933  18.000  0.00  0.00    +0.000 C 
ATOM      2  N   UNL     1       6.914   6.015  17.541  0.00  0.00    +0.000 N 
ATOM      3  C   UNL     1       7.235   4.688  17.330  0.00  0.00    +0.000 C 
ATOM      4  O   UNL     1       8.347   4.205  17.528  0.00  0.00    +0.000 OA
ATOM      5  N   UNL     1       6.226   3.878  16.888  0.00  0.00    +0.000 N 
ATOM      6  C   UNL     1       4.891   4.145  16.983  0.00  0.00    +0.000 C 
ATOM      7  O   UNL     1       4.042   3.265  16.888  0.00  0.00    +0.000 OA
ATOM      8  C   UNL     1       4.579   5.555  17.260  0.00  0.00    +0.000 C 
ATOM      9  C   UNL     1       3.355   5.953  17.643  0.00  0.00    +0.000 C 
ATOM     10  C   UNL     1       5.663   6.557  17.300  0.00  0.00    +0.000 C 
ATOM     11  O   UNL     1       5.446   7.761  17.194  0.00  0.00    +0.000 OA
ATOM     12  H   UNL     1       6.472   2.904  16.779  0.00  0.00    +0.000 HD
ENDROOT
BRANCH   9  13
ATOM     13  N   UNL     1       2.240   5.181  17.859  0.00  0.00    +0.000 N 
ATOM     14  H   UNL     1       1.604   5.104  17.061  0.00  0.00    +0.000 HD
BRANCH  13  15
ATOM     15  C   UNL     1       1.920   4.396  18.977  0.00  0.00    +0.000 A 
ATOM     16  C   UNL     1       1.126   3.241  18.911  0.00  0.00    +0.000 A 
ATOM     17  C   UNL     1       0.837   2.498  20.058  0.00  0.00    +0.000 A 
ATOM     18  C   UNL     1       1.335   2.913  21.285  0.00  0.00    +0.000 A 
ATOM     19  F   UNL     1       1.068   2.195  22.382  0.00  0.00    +0.000 F 
ATOM     20  C   UNL     1       2.105   4.063  21.387  0.00  0.00    +0.000 A 
ATOM     21  C   UNL     1       2.393   4.799  20.238  0.00  0.00    +0.000 A 
ENDBRANCH  13  15
ENDBRANCH   9  13
TORSDOF 2
ENDMDL
MODEL 2
REMARK VINA RESULT:      -7.7      0.087      1.109
REMARK  Name = 
REMARK  3 active torsions:
REMARK  status: ('A' for Active; 'I' for Inactive)
REMARK    1  A    between atoms: C_1  and  N_2
REMARK    2  A    between atoms: C_9  and  N_10
REMARK    3  A    between atoms: N_10  and  C_11
REMARK                            x       y       z     vdW  Elec       q    Type
REMARK                         _______ _______ _______ _____ _____    ______ ____
ROOT
ATOM      1  C   UNL     1       7.929   6.953  17.840  0.00  0.00    +0.000 C 
ATOM      2  N   UNL     1       6.893   6.026  17.433  0.00  0.00    +0.000 N 
ATOM      3  C   UNL     1       7.207   4.695  17.240  0.00  0.00    +0.000 C 
ATOM      4  O   UNL     1       8.325   4.215  17.414  0.00  0.00    +0.000 OA
ATOM      5  N   UNL     1       6.184   3.876  16.847  0.00  0.00    +0.000 N 
ATOM      6  C   UNL     1       4.854   4.145  16.978  0.00  0.00    +0.000 C 
ATOM      7  O   UNL     1       4.002   3.264  16.928  0.00  0.00    +0.000 OA
ATOM      8  C   UNL     1       4.550   5.561  17.234  0.00  0.00    +0.000 C 
ATOM      9  C   UNL     1       3.338   5.968  17.647  0.00  0.00    +0.000 C 
ATOM     10  C   UNL     1       5.634   6.563  17.219  0.00  0.00    +0.000 C 
ATOM     11  O   UNL     1       5.414   7.765  17.094  0.00  0.00    +0.000 OA
ATOM     12  H   UNL     1       6.427   2.900  16.752  0.00  0.00    +0.000 HD
ENDROOT
BRANCH   9  13
ATOM     13  N   UNL     1       2.231   5.201  17.914  0.00  0.00    +0.000 N 
ATOM     14  H   UNL     1       1.577   5.096  17.134  0.00  0.00    +0.000 HD
BRANCH  13  15
ATOM     15  C   UNL     1       1.938   4.454  19.065  0.00  0.00    +0.000 A 
ATOM     16  C   UNL     1       2.422   4.779  20.342  0.00  0.00    +0.000 A 
ATOM     17  C   UNL     1       2.100   3.997  21.454  0.00  0.00    +0.000 A 
ATOM     18  C   UNL     1       1.299   2.876  21.294  0.00  0.00    +0.000 A 
ATOM     19  F   UNL     1       0.982   2.134  22.361  0.00  0.00    +0.000 F 
ATOM     20  C   UNL     1       0.823   2.516  20.041  0.00  0.00    +0.000 A 
ATOM     21  C   UNL     1       1.145   3.302  18.934  0.00  0.00    +0.000 A 
ENDBRANCH  13  15
ENDBRANCH   9  13
TORSDOF 2
ENDMDL
MODEL 3
REMARK VINA RESULT:      -7.5      3.338      6.440
REMARK  Name = 
REMARK  3 active torsions:
REMARK  status: ('A' for Active; 'I' for Inactive)
REMARK    1  A    between atoms: C_1  and  N_2
REMARK    2  A    between atoms: C_9  and  N_10
REMARK    3  A    between atoms: N_10  and  C_11
REMARK                            x       y       z     vdW  Elec       q    Type
REMARK                         _______ _______ _______ _____ _____    ______ ____
ROOT
ATOM      1  C   UNL     1       1.035   2.821  21.208  0.00  0.00    +0.000 C 
ATOM      2  N   UNL     1       1.901   2.625  20.062  0.00  0.00    +0.000 N 
ATOM      3  C   UNL     1       1.344   2.454  18.810  0.00  0.00    +0.000 C 
ATOM      4  O   UNL     1       0.138   2.480  18.579  0.00  0.00    +0.000 OA
ATOM      5  N   UNL     1       2.217   2.264  17.774  0.00  0.00    +0.000 N 
ATOM      6  C   UNL     1       3.543   2.583  17.782  0.00  0.00    +0.000 C 
ATOM      7  O   UNL     1       4.190   2.708  16.747  0.00  0.00    +0.000 OA
ATOM      8  C   UNL     1       4.098   2.810  19.124  0.00  0.00    +0.000 C 
ATOM      9  C   UNL     1       5.299   3.382  19.313  0.00  0.00    +0.000 C 
ATOM     10  C   UNL     1       3.261   2.578  20.318  0.00  0.00    +0.000 C 
ATOM     11  O   UNL     1       3.743   2.429  21.437  0.00  0.00    +0.000 OA
ATOM     12  H   UNL     1       1.790   2.182  16.862  0.00  0.00    +0.000 HD
ENDROOT
BRANCH   9  13
ATOM     13  N   UNL     1       6.173   3.853  18.365  0.00  0.00    +0.000 N 
ATOM     14  H   UNL     1       6.465   3.167  17.663  0.00  0.00    +0.000 HD
BRANCH  13  15
ATOM     15  C   UNL     1       6.623   5.167  18.162  0.00  0.00    +0.000 A 
ATOM     16  C   UNL     1       7.721   5.721  18.837  0.00  0.00    +0.000 A 
ATOM     17  C   UNL     1       8.125   7.037  18.598  0.00  0.00    +0.000 A 
ATOM     18  C   UNL     1       7.423   7.813  17.686  0.00  0.00    +0.000 A 
ATOM     19  F   UNL     1       7.816   9.069  17.449  0.00  0.00    +0.000 F 
ATOM     20  C   UNL     1       6.319   7.301  17.019  0.00  0.00    +0.000 A 
ATOM     21  C   UNL     1       5.922   5.985  17.260  0.00  0.00    +0.000 A 
ENDBRANCH  13  15
ENDBRANCH   9  13
TORSDOF 2
ENDMDL
MODEL 4
REMARK VINA RESULT:      -7.4      4.431      5.982
REMARK  Name = 
REMARK  3 active torsions:
REMARK  status: ('A' for Active; 'I' for Inactive)
REMARK    1  A    between atoms: C_1  and  N_2
REMARK    2  A    between atoms: C_9  and  N_10
REMARK    3  A    between atoms: N_10  and  C_11
REMARK                            x       y       z     vdW  Elec       q    Type
REMARK                         _______ _______ _______ _____ _____    ______ ____
ROOT
ATOM      1  C   UNL     1       0.715  12.519  20.804  0.00  0.00    +0.000 C 
ATOM      2  N   UNL     1       1.006  11.411  19.916  0.00  0.00    +0.000 N 
ATOM      3  C   UNL     1       1.530  11.661  18.663  0.00  0.00    +0.000 C 
ATOM      4  O   UNL     1       1.798  12.781  18.237  0.00  0.00    +0.000 OA
ATOM      5  N   UNL     1       1.771  10.571  17.873  0.00  0.00    +0.000 N 
ATOM      6  C   UNL     1       1.896   9.285  18.308  0.00  0.00    +0.000 C 
ATOM      7  O   UNL     1       2.437   8.417  17.630  0.00  0.00    +0.000 OA
ATOM      8  C   UNL     1       1.378   9.057  19.665  0.00  0.00    +0.000 C 
ATOM      9  C   UNL     1       1.648   7.935  20.353  0.00  0.00    +0.000 C 
ATOM     10  C   UNL     1       0.690  10.146  20.385  0.00  0.00    +0.000 C 
ATOM     11  O   UNL     1      -0.038   9.935  21.351  0.00  0.00    +0.000 OA
ATOM     12  H   UNL     1       2.193  10.775  16.977  0.00  0.00    +0.000 HD
ENDROOT
BRANCH   9  13
ATOM     13  N   UNL     1       2.421   6.868  19.967  0.00  0.00    +0.000 N 
ATOM     14  H   UNL     1       3.431   7.008  20.054  0.00  0.00    +0.000 HD
BRANCH  13  15
ATOM     15  C   UNL     1       2.011   5.581  19.583  0.00  0.00    +0.000 A 
ATOM     16  C   UNL     1       2.138   5.087  18.276  0.00  0.00    +0.000 A 
ATOM     17  C   UNL     1       1.710   3.797  17.949  0.00  0.00    +0.000 A 
ATOM     18  C   UNL     1       1.141   2.997  18.928  0.00  0.00    +0.000 A 
ATOM     19  F   UNL     1       0.742   1.758  18.617  0.00  0.00    +0.000 F 
ATOM     20  C   UNL     1       0.981   3.464  20.224  0.00  0.00    +0.000 A 
ATOM     21  C   UNL     1       1.413   4.752  20.546  0.00  0.00    +0.000 A 
ENDBRANCH  13  15
ENDBRANCH   9  13
TORSDOF 2
ENDMDL
MODEL 5
REMARK VINA RESULT:      -7.4      3.373      6.432
REMARK  Name = 
REMARK  3 active torsions:
REMARK  status: ('A' for Active; 'I' for Inactive)
REMARK    1  A    between atoms: C_1  and  N_2
REMARK    2  A    between atoms: C_9  and  N_10
REMARK    3  A    between atoms: N_10  and  C_11
REMARK                            x       y       z     vdW  Elec       q    Type
REMARK                         _______ _______ _______ _____ _____    ______ ____
ROOT
ATOM      1  C   UNL     1       1.278   2.732  21.481  0.00  0.00    +0.000 C 
ATOM      2  N   UNL     1       2.020   2.604  20.242  0.00  0.00    +0.000 N 
ATOM      3  C   UNL     1       1.336   2.479  19.049  0.00  0.00    +0.000 C 
ATOM      4  O   UNL     1       0.112   2.491  18.948  0.00  0.00    +0.000 OA
ATOM      5  N   UNL     1       2.097   2.352  17.919  0.00  0.00    +0.000 N 
ATOM      6  C   UNL     1       3.411   2.696  17.802  0.00  0.00    +0.000 C 
ATOM      7  O   UNL     1       3.942   2.880  16.712  0.00  0.00    +0.000 OA
ATOM      8  C   UNL     1       4.103   2.873  19.087  0.00  0.00    +0.000 C 
ATOM      9  C   UNL     1       5.309   3.459  19.175  0.00  0.00    +0.000 C 
ATOM     10  C   UNL     1       3.400   2.572  20.350  0.00  0.00    +0.000 C 
ATOM     11  O   UNL     1       4.001   2.381  21.404  0.00  0.00    +0.000 OA
ATOM     12  H   UNL     1       1.576   2.304  17.054  0.00  0.00    +0.000 HD
ENDROOT
BRANCH   9  13
ATOM     13  N   UNL     1       6.070   3.989  18.163  0.00  0.00    +0.000 N 
ATOM     14  H   UNL     1       6.182   3.388  17.343  0.00  0.00    +0.000 HD
BRANCH  13  15
ATOM     15  C   UNL     1       6.610   5.280  18.056  0.00  0.00    +0.000 A 
ATOM     16  C   UNL     1       6.159   6.233  17.130  0.00  0.00    +0.000 A 
ATOM     17  C   UNL     1       6.736   7.505  17.066  0.00  0.00    +0.000 A 
ATOM     18  C   UNL     1       7.778   7.826  17.923  0.00  0.00    +0.000 A 
ATOM     19  F   UNL     1       8.323   9.047  17.869  0.00  0.00    +0.000 F 
ATOM     20  C   UNL     1       8.261   6.899  18.834  0.00  0.00    +0.000 A 
ATOM     21  C   UNL     1       7.680   5.632  18.897  0.00  0.00    +0.000 A 
ENDBRANCH  13  15
ENDBRANCH   9  13
TORSDOF 2
ENDMDL
MODEL 6
REMARK VINA RESULT:      -7.3      4.047      6.568
REMARK  Name = 
REMARK  3 active torsions:
REMARK  status: ('A' for Active; 'I' for Inactive)
REMARK    1  A    between atoms: C_1  and  N_2
REMARK    2  A    between atoms: C_9  and  N_10
REMARK    3  A    between atoms: N_10  and  C_11
REMARK                            x       y       z     vdW  Elec       q    Type
REMARK                         _______ _______ _______ _____ _____    ______ ____
ROOT
ATOM      1  C   UNL     1       1.730   3.693  19.047  0.00  0.00    +0.000 C 
ATOM      2  N   UNL     1       3.138   3.997  18.890  0.00  0.00    +0.000 N 
ATOM      3  C   UNL     1       4.082   3.173  19.471  0.00  0.00    +0.000 C 
ATOM      4  O   UNL     1       3.815   2.159  20.111  0.00  0.00    +0.000 OA
ATOM      5  N   UNL     1       5.392   3.523  19.291  0.00  0.00    +0.000 N 
ATOM      6  C   UNL     1       5.868   4.359  18.324  0.00  0.00    +0.000 C 
ATOM      7  O   UNL     1       7.050   4.372  17.997  0.00  0.00    +0.000 OA
ATOM      8  C   UNL     1       4.834   5.187  17.685  0.00  0.00    +0.000 C 
ATOM      9  C   UNL     1       5.065   5.867  16.550  0.00  0.00    +0.000 C 
ATOM     10  C   UNL     1       3.445   5.148  18.183  0.00  0.00    +0.000 C 
ATOM     11  O   UNL     1       2.632   6.032  17.927  0.00  0.00    +0.000 OA
ATOM     12  H   UNL     1       6.066   2.884  19.690  0.00  0.00    +0.000 HD
ENDROOT
BRANCH   9  13
ATOM     13  N   UNL     1       6.216   5.905  15.802  0.00  0.00    +0.000 N 
ATOM     14  H   UNL     1       6.986   6.437  16.216  0.00  0.00    +0.000 HD
BRANCH  13  15
ATOM     15  C   UNL     1       6.513   5.220  14.614  0.00  0.00    +0.000 A 
ATOM     16  C   UNL     1       7.581   5.561  13.770  0.00  0.00    +0.000 A 
ATOM     17  C   UNL     1       7.829   4.845  12.596  0.00  0.00    +0.000 A 
ATOM     18  C   UNL     1       7.001   3.786  12.253  0.00  0.00    +0.000 A 
ATOM     19  F   UNL     1       7.245   3.093  11.135  0.00  0.00    +0.000 F 
ATOM     20  C   UNL     1       5.924   3.438  13.055  0.00  0.00    +0.000 A 
ATOM     21  C   UNL     1       5.682   4.154  14.228  0.00  0.00    +0.000 A 
ENDBRANCH  13  15
ENDBRANCH   9  13
TORSDOF 2
ENDMDL
MODEL 7
REMARK VINA RESULT:      -7.3      4.147      6.979
REMARK  Name = 
REMARK  3 active torsions:
REMARK  status: ('A' for Active; 'I' for Inactive)
REMARK    1  A    between atoms: C_1  and  N_2
REMARK    2  A    between atoms: C_9  and  N_10
REMARK    3  A    between atoms: N_10  and  C_11
REMARK                            x       y       z     vdW  Elec       q    Type
REMARK                         _______ _______ _______ _____ _____    ______ ____
ROOT
ATOM      1  C   UNL     1       0.602   2.423  19.320  0.00  0.00    +0.000 C 
ATOM      2  N   UNL     1       1.929   3.004  19.264  0.00  0.00    +0.000 N 
ATOM      3  C   UNL     1       2.733   2.977  20.386  0.00  0.00    +0.000 C 
ATOM      4  O   UNL     1       2.413   2.462  21.454  0.00  0.00    +0.000 OA
ATOM      5  N   UNL     1       3.969   3.551  20.266  0.00  0.00    +0.000 N 
ATOM      6  C   UNL     1       4.616   3.811  19.094  0.00  0.00    +0.000 C 
ATOM      7  O   UNL     1       5.826   4.005  19.047  0.00  0.00    +0.000 OA
ATOM      8  C   UNL     1       3.746   3.783  17.909  0.00  0.00    +0.000 C 
ATOM      9  C   UNL     1       4.241   3.755  16.660  0.00  0.00    +0.000 C 
ATOM     10  C   UNL     1       2.289   3.601  18.067  0.00  0.00    +0.000 C 
ATOM     11  O   UNL     1       1.493   3.895  17.180  0.00  0.00    +0.000 OA
ATOM     12  H   UNL     1       4.556   3.483  21.086  0.00  0.00    +0.000 HD
ENDROOT
BRANCH   9  13
ATOM     13  N   UNL     1       5.557   3.725  16.270  0.00  0.00    +0.000 N 
ATOM     14  H   UNL     1       6.209   3.358  16.968  0.00  0.00    +0.000 HD
BRANCH  13  15
ATOM     15  C   UNL     1       6.105   4.019  15.012  0.00  0.00    +0.000 A 
ATOM     16  C   UNL     1       7.158   4.927  14.820  0.00  0.00    +0.000 A 
ATOM     17  C   UNL     1       7.665   5.182  13.543  0.00  0.00    +0.000 A 
ATOM     18  C   UNL     1       7.111   4.538  12.446  0.00  0.00    +0.000 A 
ATOM     19  F   UNL     1       7.604   4.775  11.225  0.00  0.00    +0.000 F 
ATOM     20  C   UNL     1       6.055   3.652  12.600  0.00  0.00    +0.000 A 
ATOM     21  C   UNL     1       5.555   3.397  13.878  0.00  0.00    +0.000 A 
ENDBRANCH  13  15
ENDBRANCH   9  13
TORSDOF 2
ENDMDL
MODEL 8
REMARK VINA RESULT:      -7.2      3.987      6.399
REMARK  Name = 
REMARK  3 active torsions:
REMARK  status: ('A' for Active; 'I' for Inactive)
REMARK    1  A    between atoms: C_1  and  N_2
REMARK    2  A    between atoms: C_9  and  N_10
REMARK    3  A    between atoms: N_10  and  C_11
REMARK                            x       y       z     vdW  Elec       q    Type
REMARK                         _______ _______ _______ _____ _____    ______ ____
ROOT
ATOM      1  C   UNL     1       1.964   4.255  19.389  0.00  0.00    +0.000 C 
ATOM      2  N   UNL     1       3.372   4.396  19.077  0.00  0.00    +0.000 N 
ATOM      3  C   UNL     1       4.268   3.444  19.524  0.00  0.00    +0.000 C 
ATOM      4  O   UNL     1       3.953   2.444  20.164  0.00  0.00    +0.000 OA
ATOM      5  N   UNL     1       5.582   3.644  19.203  0.00  0.00    +0.000 N 
ATOM      6  C   UNL     1       6.045   4.455  18.209  0.00  0.00    +0.000 C 
ATOM      7  O   UNL     1       7.176   4.341  17.748  0.00  0.00    +0.000 OA
ATOM      8  C   UNL     1       5.056   5.424  17.715  0.00  0.00    +0.000 C 
ATOM      9  C   UNL     1       5.239   6.116  16.579  0.00  0.00    +0.000 C 
ATOM     10  C   UNL     1       3.736   5.530  18.370  0.00  0.00    +0.000 C 
ATOM     11  O   UNL     1       3.014   6.513  18.231  0.00  0.00    +0.000 OA
ATOM     12  H   UNL     1       6.214   2.914  19.504  0.00  0.00    +0.000 HD
ENDROOT
BRANCH   9  13
ATOM     13  N   UNL     1       6.296   6.046  15.704  0.00  0.00    +0.000 N 
ATOM     14  H   UNL     1       7.117   6.596  15.970  0.00  0.00    +0.000 HD
BRANCH  13  15
ATOM     15  C   UNL     1       6.441   5.237  14.567  0.00  0.00    +0.000 A 
ATOM     16  C   UNL     1       5.541   4.217  14.223  0.00  0.00    +0.000 A 
ATOM     17  C   UNL     1       5.736   3.440  13.078  0.00  0.00    +0.000 A 
ATOM     18  C   UNL     1       6.843   3.672  12.275  0.00  0.00    +0.000 A 
ATOM     19  F   UNL     1       7.023   2.935  11.173  0.00  0.00    +0.000 F 
ATOM     20  C   UNL     1       7.763   4.658  12.600  0.00  0.00    +0.000 A 
ATOM     21  C   UNL     1       7.561   5.434  13.742  0.00  0.00    +0.000 A 
ENDBRANCH  13  15
ENDBRANCH   9  13
TORSDOF 2
ENDMDL
MODEL 9
REMARK VINA RESULT:      -7.1      3.946      6.888
REMARK  Name = 
REMARK  3 active torsions:
REMARK  status: ('A' for Active; 'I' for Inactive)
REMARK    1  A    between atoms: C_1  and  N_2
REMARK    2  A    between atoms: C_9  and  N_10
REMARK    3  A    between atoms: N_10  and  C_11
REMARK                            x       y       z     vdW  Elec       q    Type
REMARK                         _______ _______ _______ _____ _____    ______ ____
ROOT
ATOM      1  C   UNL     1       1.022   4.001  20.023  0.00  0.00    +0.000 C 
ATOM      2  N   UNL     1       1.977   4.694  19.182  0.00  0.00    +0.000 N 
ATOM      3  C   UNL     1       2.344   5.989  19.493  0.00  0.00    +0.000 C 
ATOM      4  O   UNL     1       1.931   6.610  20.468  0.00  0.00    +0.000 OA
ATOM      5  N   UNL     1       3.242   6.588  18.652  0.00  0.00    +0.000 N 
ATOM      6  C   UNL     1       4.069   5.943  17.780  0.00  0.00    +0.000 C 
ATOM      7  O   UNL     1       5.067   6.480  17.310  0.00  0.00    +0.000 OA
ATOM      8  C   UNL     1       3.685   4.550  17.507  0.00  0.00    +0.000 C 
ATOM      9  C   UNL     1       4.512   3.689  16.891  0.00  0.00    +0.000 C 
ATOM     10  C   UNL     1       2.434   4.005  18.071  0.00  0.00    +0.000 C 
ATOM     11  O   UNL     1       1.901   2.993  17.625  0.00  0.00    +0.000 OA
ATOM     12  H   UNL     1       3.528   7.519  18.921  0.00  0.00    +0.000 HD
ENDROOT
BRANCH   9  13
ATOM     13  N   UNL     1       5.792   3.912  16.447  0.00  0.00    +0.000 N 
ATOM     14  H   UNL     1       6.521   3.830  17.162  0.00  0.00    +0.000 HD
BRANCH  13  15
ATOM     15  C   UNL     1       6.241   4.121  15.134  0.00  0.00    +0.000 A 
ATOM     16  C   UNL     1       7.328   4.947  14.811  0.00  0.00    +0.000 A 
ATOM     17  C   UNL     1       7.732   5.120  13.484  0.00  0.00    +0.000 A 
ATOM     18  C   UNL     1       7.040   4.474  12.469  0.00  0.00    +0.000 A 
ATOM     19  F   UNL     1       7.434   4.630  11.200  0.00  0.00    +0.000 F 
ATOM     20  C   UNL     1       5.948   3.668  12.755  0.00  0.00    +0.000 A 
ATOM     21  C   UNL     1       5.551   3.496  14.082  0.00  0.00    +0.000 A 
ENDBRANCH  13  15
ENDBRANCH   9  13
TORSDOF 2
ENDMDL
