MODEL 1
REMARK VINA RESULT:      -9.5      0.000      0.000
REMARK  Name = 
REMARK  4 active torsions:
REMARK  status: ('A' for Active; 'I' for Inactive)
REMARK    1  A    between atoms: C_2  and  C_4
REMARK    2  A    between atoms: C_7  and  N_8
REMARK    3  A    between atoms: C_24  and  N_25
REMARK    4  A    between atoms: N_25  and  C_26
REMARK                            x       y       z     vdW  Elec       q    Type
REMARK                         _______ _______ _______ _____ _____    ______ ____
ROOT
ATOM      1  C   UNL     1       1.316   9.822  19.045  0.00  0.00    +0.000 A 
ATOM      2  C   UNL     1       1.496   9.368  17.747  0.00  0.00    +0.000 A 
ATOM      3  C   UNL     1       1.976   8.077  17.508  0.00  0.00    +0.000 A 
ATOM      4  C   UNL     1       2.339   7.227  18.559  0.00  0.00    +0.000 A 
ATOM      5  C   UNL     1       2.002   7.646  19.870  0.00  0.00    +0.000 A 
ATOM      6  C   UNL     1       1.464   8.929  20.130  0.00  0.00    +0.000 A 
ENDROOT
BRANCH   4   7
ATOM      7  N   UNL     1       3.109   6.025  18.292  0.00  0.00    +0.000 N 
ATOM      8  C   UNL     1       2.764   4.692  18.596  0.00  0.00    +0.000 A 
ATOM      9  C   UNL     1       3.950   4.000  18.635  0.00  0.00    +0.000 A 
ATOM     10  C   UNL     1       4.666   4.557  17.586  0.00  0.00    +0.000 A 
ATOM     11  C   UNL     1       5.591   4.038  16.673  0.00  0.00    +0.000 A 
ATOM     12  C   UNL     1       6.517   4.916  16.154  0.00  0.00    +0.000 A 
ATOM     13  F   UNL     1       7.478   4.442  15.354  0.00  0.00    +0.000 F 
ATOM     14  C   UNL     1       6.515   6.246  16.542  0.00  0.00    +0.000 A 
ATOM     15  C   UNL     1       5.451   6.792  17.293  0.00  0.00    +0.000 A 
ATOM     16  C   UNL     1       4.414   5.927  17.705  0.00  0.00    +0.000 A 
ATOM     17  C   UNL     1       4.044   2.685  19.192  0.00  0.00    +0.000 C 
ATOM     18  O   UNL     1       4.880   2.357  20.032  0.00  0.00    +0.000 OA
ATOM     19  C   UNL     1       3.039   1.772  18.598  0.00  0.00    +0.000 C 
ATOM     20  C   UNL     1       1.629   2.406  18.642  0.00  0.00    +0.000 C 
ATOM     21  C   UNL     1       1.470   3.973  18.792  0.00  0.00    +0.000 C 
ENDBRANCH   4   7
BRANCH   1  23
ATOM     22  N   UNL     1       0.151  11.857  18.364  0.00  0.00    +0.000 N 
ATOM     23  C   UNL     1       1.011  11.255  19.255  0.00  0.00    +0.000 C 
ATOM     24  O   UNL     1       1.558  11.915  20.134  0.00  0.00    +0.000 OA
ATOM     25  H   UNL     1       0.067  12.865  18.413  0.00  0.00    +0.000 HD
ATOM     26  H   UNL     1      -0.074  11.423  17.487  0.00  0.00    +0.000 HD
ENDBRANCH   1  23
BRANCH   6  27
ATOM     27  N   UNL     1       1.204   9.369  21.475  0.00  0.00    +0.000 N 
ATOM     28  H   UNL     1       1.588  10.325  21.576  0.00  0.00    +0.000 HD
BRANCH  27  29
ATOM     29  C   UNL     1      -0.154   9.327  22.049  0.00  0.00    +0.000 C 
ATOM     30  C   UNL     1      -0.500   9.519  23.493  0.00  0.00    +0.000 C 
ATOM     31  C   UNL     1      -0.720  10.644  22.532  0.00  0.00    +0.000 C 
ENDBRANCH  27  29
ENDBRANCH   6  27
TORSDOF 4
ENDMDL
MODEL 2
REMARK VINA RESULT:      -9.1      1.380      2.573
REMARK  Name = 
REMARK  4 active torsions:
REMARK  status: ('A' for Active; 'I' for Inactive)
REMARK    1  A    between atoms: C_2  and  C_4
REMARK    2  A    between atoms: C_7  and  N_8
REMARK    3  A    between atoms: C_24  and  N_25
REMARK    4  A    between atoms: N_25  and  C_26
REMARK                            x       y       z     vdW  Elec       q    Type
REMARK                         _______ _______ _______ _____ _____    ______ ____
ROOT
ATOM      1  C   UNL     1       0.632   9.591  20.277  0.00  0.00    +0.000 A 
ATOM      2  C   UNL     1       0.828   8.501  21.111  0.00  0.00    +0.000 A 
ATOM      3  C   UNL     1       1.624   7.428  20.700  0.00  0.00    +0.000 A 
ATOM      4  C   UNL     1       2.203   7.395  19.426  0.00  0.00    +0.000 A 
ATOM      5  C   UNL     1       2.123   8.579  18.653  0.00  0.00    +0.000 A 
ATOM      6  C   UNL     1       1.366   9.698  19.074  0.00  0.00    +0.000 A 
ENDROOT
BRANCH   4   7
ATOM      7  N   UNL     1       2.765   6.158  18.912  0.00  0.00    +0.000 N 
ATOM      8  C   UNL     1       2.455   4.839  19.303  0.00  0.00    +0.000 A 
ATOM      9  C   UNL     1       3.541   4.079  18.945  0.00  0.00    +0.000 A 
ATOM     10  C   UNL     1       3.907   4.623  17.722  0.00  0.00    +0.000 A 
ATOM     11  C   UNL     1       4.446   4.077  16.552  0.00  0.00    +0.000 A 
ATOM     12  C   UNL     1       5.204   4.914  15.764  0.00  0.00    +0.000 A 
ATOM     13  F   UNL     1       5.817   4.407  14.688  0.00  0.00    +0.000 F 
ATOM     14  C   UNL     1       5.414   6.230  16.139  0.00  0.00    +0.000 A 
ATOM     15  C   UNL     1       4.692   6.816  17.203  0.00  0.00    +0.000 A 
ATOM     16  C   UNL     1       3.796   6.001  17.927  0.00  0.00    +0.000 A 
ATOM     17  C   UNL     1       3.729   2.746  19.431  0.00  0.00    +0.000 C 
ATOM     18  O   UNL     1       4.771   2.347  19.946  0.00  0.00    +0.000 OA
ATOM     19  C   UNL     1       2.528   1.910  19.194  0.00  0.00    +0.000 C 
ATOM     20  C   UNL     1       1.255   2.623  19.704  0.00  0.00    +0.000 C 
ATOM     21  C   UNL     1       1.254   4.191  19.910  0.00  0.00    +0.000 C 
ENDBRANCH   4   7
BRANCH   1  23
ATOM     22  N   UNL     1      -0.460  10.945  21.991  0.00  0.00    +0.000 N 
ATOM     23  C   UNL     1      -0.381  10.600  20.661  0.00  0.00    +0.000 C 
ATOM     24  O   UNL     1      -1.182  11.058  19.850  0.00  0.00    +0.000 OA
ATOM     25  H   UNL     1      -1.250  11.511  22.275  0.00  0.00    +0.000 HD
ATOM     26  H   UNL     1      -0.025  10.382  22.700  0.00  0.00    +0.000 HD
ENDBRANCH   1  23
BRANCH   6  27
ATOM     27  N   UNL     1       1.229  10.863  18.240  0.00  0.00    +0.000 N 
ATOM     28  H   UNL     1       0.287  11.260  18.401  0.00  0.00    +0.000 HD
BRANCH  27  29
ATOM     29  C   UNL     1       2.226  11.949  18.267  0.00  0.00    +0.000 C 
ATOM     30  C   UNL     1       1.952  13.395  17.988  0.00  0.00    +0.000 C 
ATOM     31  C   UNL     1       2.109  12.940  19.404  0.00  0.00    +0.000 C 
ENDBRANCH  27  29
ENDBRANCH   6  27
TORSDOF 4
ENDMDL
MODEL 3
REMARK VINA RESULT:      -9.0      1.692      2.603
REMARK  Name = 
REMARK  4 active torsions:
REMARK  status: ('A' for Active; 'I' for Inactive)
REMARK    1  A    between atoms: C_2  and  C_4
REMARK    2  A    between atoms: C_7  and  N_8
REMARK    3  A    between atoms: C_24  and  N_25
REMARK    4  A    between atoms: N_25  and  C_26
REMARK                            x       y       z     vdW  Elec       q    Type
REMARK                         _______ _______ _______ _____ _____    ______ ____
ROOT
ATOM      1  C   UNL     1       0.499   9.696  20.583  0.00  0.00    +0.000 A 
ATOM      2  C   UNL     1       1.200   8.849  21.428  0.00  0.00    +0.000 A 
ATOM      3  C   UNL     1       1.987   7.819  20.905  0.00  0.00    +0.000 A 
ATOM      4  C   UNL     1       2.053   7.577  19.528  0.00  0.00    +0.000 A 
ATOM      5  C   UNL     1       1.461   8.543  18.678  0.00  0.00    +0.000 A 
ATOM      6  C   UNL     1       0.703   9.625  19.187  0.00  0.00    +0.000 A 
ENDROOT
BRANCH   4   7
ATOM      7  N   UNL     1       2.623   6.337  19.031  0.00  0.00    +0.000 N 
ATOM      8  C   UNL     1       2.345   5.024  19.464  0.00  0.00    +0.000 A 
ATOM      9  C   UNL     1       3.434   4.273  19.097  0.00  0.00    +0.000 A 
ATOM     10  C   UNL     1       3.759   4.790  17.851  0.00  0.00    +0.000 A 
ATOM     11  C   UNL     1       4.276   4.223  16.681  0.00  0.00    +0.000 A 
ATOM     12  C   UNL     1       4.999   5.052  15.852  0.00  0.00    +0.000 A 
ATOM     13  F   UNL     1       5.593   4.527  14.773  0.00  0.00    +0.000 F 
ATOM     14  C   UNL     1       5.196   6.380  16.188  0.00  0.00    +0.000 A 
ATOM     15  C   UNL     1       4.493   6.981  17.256  0.00  0.00    +0.000 A 
ATOM     16  C   UNL     1       3.630   6.171  18.023  0.00  0.00    +0.000 A 
ATOM     17  C   UNL     1       3.658   2.956  19.611  0.00  0.00    +0.000 C 
ATOM     18  O   UNL     1       4.720   2.587  20.108  0.00  0.00    +0.000 OA
ATOM     19  C   UNL     1       2.466   2.094  19.427  0.00  0.00    +0.000 C 
ATOM     20  C   UNL     1       1.194   2.799  19.953  0.00  0.00    +0.000 C 
ATOM     21  C   UNL     1       1.171   4.372  20.118  0.00  0.00    +0.000 C 
ENDBRANCH   4   7
BRANCH   1  23
ATOM     22  N   UNL     1      -0.919  10.364  22.456  0.00  0.00    +0.000 N 
ATOM     23  C   UNL     1      -0.483  10.630  21.177  0.00  0.00    +0.000 C 
ATOM     24  O   UNL     1      -0.962  11.564  20.539  0.00  0.00    +0.000 OA
ATOM     25  H   UNL     1      -1.700  10.908  22.800  0.00  0.00    +0.000 HD
ATOM     26  H   UNL     1      -0.767   9.466  22.879  0.00  0.00    +0.000 HD
ENDBRANCH   1  23
BRANCH   6  27
ATOM     27  N   UNL     1       0.041  10.551  18.307  0.00  0.00    +0.000 N 
ATOM     28  H   UNL     1       0.763  11.004  17.720  0.00  0.00    +0.000 HD
BRANCH  27  29
ATOM     29  C   UNL     1      -1.085  10.128  17.453  0.00  0.00    +0.000 C 
ATOM     30  C   UNL     1      -2.495   9.910  17.910  0.00  0.00    +0.000 C 
ATOM     31  C   UNL     1      -2.148  11.169  17.180  0.00  0.00    +0.000 C 
ENDBRANCH  27  29
ENDBRANCH   6  27
TORSDOF 4
ENDMDL
MODEL 4
REMARK VINA RESULT:      -8.9      1.717      3.323
REMARK  Name = 
REMARK  4 active torsions:
REMARK  status: ('A' for Active; 'I' for Inactive)
REMARK    1  A    between atoms: C_2  and  C_4
REMARK    2  A    between atoms: C_7  and  N_8
REMARK    3  A    between atoms: C_24  and  N_25
REMARK    4  A    between atoms: N_25  and  C_26
REMARK                            x       y       z     vdW  Elec       q    Type
REMARK                         _______ _______ _______ _____ _____    ______ ____
ROOT
ATOM      1  C   UNL     1       1.314   9.933  19.062  0.00  0.00    +0.000 A 
ATOM      2  C   UNL     1       1.453   9.577  17.729  0.00  0.00    +0.000 A 
ATOM      3  C   UNL     1       1.951   8.318  17.380  0.00  0.00    +0.000 A 
ATOM      4  C   UNL     1       2.370   7.403  18.353  0.00  0.00    +0.000 A 
ATOM      5  C   UNL     1       2.074   7.721  19.702  0.00  0.00    +0.000 A 
ATOM      6  C   UNL     1       1.520   8.969  20.073  0.00  0.00    +0.000 A 
ENDROOT
BRANCH   4   7
ATOM      7  N   UNL     1       3.154   6.241  17.974  0.00  0.00    +0.000 N 
ATOM      8  C   UNL     1       4.455   6.217  17.429  0.00  0.00    +0.000 A 
ATOM      9  C   UNL     1       4.566   5.010  16.784  0.00  0.00    +0.000 A 
ATOM     10  C   UNL     1       3.900   4.142  17.639  0.00  0.00    +0.000 A 
ATOM     11  C   UNL     1       4.092   2.800  17.983  0.00  0.00    +0.000 A 
ATOM     12  C   UNL     1       2.981   2.093  18.387  0.00  0.00    +0.000 A 
ATOM     13  F   UNL     1       3.103   0.783  18.632  0.00  0.00    +0.000 F 
ATOM     14  C   UNL     1       1.740   2.706  18.433  0.00  0.00    +0.000 A 
ATOM     15  C   UNL     1       1.604   4.104  18.287  0.00  0.00    +0.000 A 
ATOM     16  C   UNL     1       2.765   4.862  18.022  0.00  0.00    +0.000 A 
ATOM     17  C   UNL     1       5.630   4.732  15.868  0.00  0.00    +0.000 C 
ATOM     18  O   UNL     1       5.458   4.285  14.736  0.00  0.00    +0.000 OA
ATOM     19  C   UNL     1       6.953   5.013  16.475  0.00  0.00    +0.000 C 
ATOM     20  C   UNL     1       6.978   6.424  17.106  0.00  0.00    +0.000 C 
ATOM     21  C   UNL     1       5.623   7.146  17.487  0.00  0.00    +0.000 C 
ENDBRANCH   4   7
BRANCH   1  23
ATOM     22  N   UNL     1       0.102  11.992  18.556  0.00  0.00    +0.000 N 
ATOM     23  C   UNL     1       0.987  11.340  19.385  0.00  0.00    +0.000 C 
ATOM     24  O   UNL     1       1.538  11.942  20.303  0.00  0.00    +0.000 OA
ATOM     25  H   UNL     1       0.001  12.991  18.683  0.00  0.00    +0.000 HD
ATOM     26  H   UNL     1      -0.131  11.622  17.652  0.00  0.00    +0.000 HD
ENDBRANCH   1  23
BRANCH   6  27
ATOM     27  N   UNL     1       1.302   9.307  21.455  0.00  0.00    +0.000 N 
ATOM     28  H   UNL     1       1.663  10.264  21.609  0.00  0.00    +0.000 HD
BRANCH  27  29
ATOM     29  C   UNL     1      -0.031   9.184  22.075  0.00  0.00    +0.000 C 
ATOM     30  C   UNL     1      -0.343   9.389  23.525  0.00  0.00    +0.000 C 
ATOM     31  C   UNL     1      -0.674  10.469  22.544  0.00  0.00    +0.000 C 
ENDBRANCH  27  29
ENDBRANCH   6  27
TORSDOF 4
ENDMDL
MODEL 5
REMARK VINA RESULT:      -8.5      2.147      4.156
REMARK  Name = 
REMARK  4 active torsions:
REMARK  status: ('A' for Active; 'I' for Inactive)
REMARK    1  A    between atoms: C_2  and  C_4
REMARK    2  A    between atoms: C_7  and  N_8
REMARK    3  A    between atoms: C_24  and  N_25
REMARK    4  A    between atoms: N_25  and  C_26
REMARK                            x       y       z     vdW  Elec       q    Type
REMARK                         _______ _______ _______ _____ _____    ______ ____
ROOT
ATOM      1  C   UNL     1       0.957   9.416  19.763  0.00  0.00    +0.000 A 
ATOM      2  C   UNL     1       1.208   8.272  20.505  0.00  0.00    +0.000 A 
ATOM      3  C   UNL     1       2.095   7.301  20.033  0.00  0.00    +0.000 A 
ATOM      4  C   UNL     1       2.715   7.425  18.784  0.00  0.00    +0.000 A 
ATOM      5  C   UNL     1       2.571   8.665  18.115  0.00  0.00    +0.000 A 
ATOM      6  C   UNL     1       1.718   9.684  18.604  0.00  0.00    +0.000 A 
ENDROOT
BRANCH   4   7
ATOM      7  N   UNL     1       3.385   6.283  18.186  0.00  0.00    +0.000 N 
ATOM      8  C   UNL     1       4.611   6.267  17.490  0.00  0.00    +0.000 A 
ATOM      9  C   UNL     1       4.580   5.141  16.706  0.00  0.00    +0.000 A 
ATOM     10  C   UNL     1       3.970   4.208  17.532  0.00  0.00    +0.000 A 
ATOM     11  C   UNL     1       4.125   2.828  17.700  0.00  0.00    +0.000 A 
ATOM     12  C   UNL     1       3.030   2.126  18.153  0.00  0.00    +0.000 A 
ATOM     13  F   UNL     1       3.106   0.793  18.234  0.00  0.00    +0.000 F 
ATOM     14  C   UNL     1       1.839   2.781  18.416  0.00  0.00    +0.000 A 
ATOM     15  C   UNL     1       1.765   4.191  18.444  0.00  0.00    +0.000 A 
ATOM     16  C   UNL     1       2.928   4.925  18.127  0.00  0.00    +0.000 A 
ATOM     17  C   UNL     1       5.515   4.928  15.643  0.00  0.00    +0.000 C 
ATOM     18  O   UNL     1       5.189   4.624  14.497  0.00  0.00    +0.000 OA
ATOM     19  C   UNL     1       6.912   5.080  16.114  0.00  0.00    +0.000 C 
ATOM     20  C   UNL     1       7.088   6.406  16.890  0.00  0.00    +0.000 C 
ATOM     21  C   UNL     1       5.827   7.134  17.509  0.00  0.00    +0.000 C 
ENDBRANCH   4   7
BRANCH   1  23
ATOM     22  N   UNL     1      -0.148  10.717  21.510  0.00  0.00    +0.000 N 
ATOM     23  C   UNL     1      -0.141  10.310  20.194  0.00  0.00    +0.000 C 
ATOM     24  O   UNL     1      -1.063  10.619  19.443  0.00  0.00    +0.000 OA
ATOM     25  H   UNL     1      -0.977  11.195  21.841  0.00  0.00    +0.000 HD
ATOM     26  H   UNL     1       0.417  10.254  22.199  0.00  0.00    +0.000 HD
ENDBRANCH   1  23
BRANCH   6  27
ATOM     27  N   UNL     1       1.520  10.906  17.870  0.00  0.00    +0.000 N 
ATOM     28  H   UNL     1       0.544  11.213  18.021  0.00  0.00    +0.000 HD
BRANCH  27  29
ATOM     29  C   UNL     1       2.425  12.059  18.039  0.00  0.00    +0.000 C 
ATOM     30  C   UNL     1       2.041  13.500  17.896  0.00  0.00    +0.000 C 
ATOM     31  C   UNL     1       2.197  12.916  19.264  0.00  0.00    +0.000 C 
ENDBRANCH  27  29
ENDBRANCH   6  27
TORSDOF 4
ENDMDL
MODEL 6
REMARK VINA RESULT:      -8.4      3.788      7.702
REMARK  Name = 
REMARK  4 active torsions:
REMARK  status: ('A' for Active; 'I' for Inactive)
REMARK    1  A    between atoms: C_2  and  C_4
REMARK    2  A    between atoms: C_7  and  N_8
REMARK    3  A    between atoms: C_24  and  N_25
REMARK    4  A    between atoms: N_25  and  C_26
REMARK                            x       y       z     vdW  Elec       q    Type
REMARK                         _______ _______ _______ _____ _____    ______ ____
ROOT
ATOM      1  C   UNL     1       7.135   4.970  14.389  0.00  0.00    +0.000 A 
ATOM      2  C   UNL     1       7.392   5.682  15.551  0.00  0.00    +0.000 A 
ATOM      3  C   UNL     1       6.532   5.581  16.648  0.00  0.00    +0.000 A 
ATOM      4  C   UNL     1       5.368   4.806  16.595  0.00  0.00    +0.000 A 
ATOM      5  C   UNL     1       5.206   3.966  15.464  0.00  0.00    +0.000 A 
ATOM      6  C   UNL     1       6.095   4.014  14.364  0.00  0.00    +0.000 A 
ENDROOT
BRANCH   4   7
ATOM      7  N   UNL     1       4.347   4.951  17.617  0.00  0.00    +0.000 N 
ATOM      8  C   UNL     1       3.921   3.989  18.557  0.00  0.00    +0.000 A 
ATOM      9  C   UNL     1       2.660   4.374  18.938  0.00  0.00    +0.000 A 
ATOM     10  C   UNL     1       2.767   5.755  19.009  0.00  0.00    +0.000 A 
ATOM     11  C   UNL     1       2.188   6.722  19.837  0.00  0.00    +0.000 A 
ATOM     12  C   UNL     1       2.044   7.988  19.315  0.00  0.00    +0.000 A 
ATOM     13  F   UNL     1       1.408   8.916  20.039  0.00  0.00    +0.000 F 
ATOM     14  C   UNL     1       2.456   8.263  18.022  0.00  0.00    +0.000 A 
ATOM     15  C   UNL     1       3.225   7.338  17.282  0.00  0.00    +0.000 A 
ATOM     16  C   UNL     1       3.508   6.087  17.871  0.00  0.00    +0.000 A 
ATOM     17  C   UNL     1       1.784   3.501  19.660  0.00  0.00    +0.000 C 
ATOM     18  O   UNL     1       0.622   3.272  19.328  0.00  0.00    +0.000 OA
ATOM     19  C   UNL     1       2.444   2.950  20.867  0.00  0.00    +0.000 C 
ATOM     20  C   UNL     1       3.825   2.352  20.512  0.00  0.00    +0.000 C 
ATOM     21  C   UNL     1       4.563   2.796  19.186  0.00  0.00    +0.000 C 
ENDBRANCH   4   7
BRANCH   1  23
ATOM     22  N   UNL     1       9.034   6.096  13.344  0.00  0.00    +0.000 N 
ATOM     23  C   UNL     1       7.946   5.267  13.187  0.00  0.00    +0.000 C 
ATOM     24  O   UNL     1       7.625   4.867  12.070  0.00  0.00    +0.000 OA
ATOM     25  H   UNL     1       9.491   6.422  12.502  0.00  0.00    +0.000 HD
ATOM     26  H   UNL     1       9.143   6.657  14.170  0.00  0.00    +0.000 HD
ENDBRANCH   1  23
BRANCH   6  27
ATOM     27  N   UNL     1       5.871   3.214  13.190  0.00  0.00    +0.000 N 
ATOM     28  H   UNL     1       6.104   2.234  13.424  0.00  0.00    +0.000 HD
BRANCH  27  29
ATOM     29  C   UNL     1       4.584   3.249  12.469  0.00  0.00    +0.000 C 
ATOM     30  C   UNL     1       4.328   3.951  11.171  0.00  0.00    +0.000 C 
ATOM     31  C   UNL     1       4.518   2.467  11.176  0.00  0.00    +0.000 C 
ENDBRANCH  27  29
ENDBRANCH   6  27
TORSDOF 4
ENDMDL
MODEL 7
REMARK VINA RESULT:      -8.3      1.849      3.366
REMARK  Name = 
REMARK  4 active torsions:
REMARK  status: ('A' for Active; 'I' for Inactive)
REMARK    1  A    between atoms: C_2  and  C_4
REMARK    2  A    between atoms: C_7  and  N_8
REMARK    3  A    between atoms: C_24  and  N_25
REMARK    4  A    between atoms: N_25  and  C_26
REMARK                            x       y       z     vdW  Elec       q    Type
REMARK                         _______ _______ _______ _____ _____    ______ ____
ROOT
ATOM      1  C   UNL     1       1.106   9.877  18.826  0.00  0.00    +0.000 A 
ATOM      2  C   UNL     1       1.333   9.247  17.611  0.00  0.00    +0.000 A 
ATOM      3  C   UNL     1       1.960   7.999  17.567  0.00  0.00    +0.000 A 
ATOM      4  C   UNL     1       2.423   7.373  18.730  0.00  0.00    +0.000 A 
ATOM      5  C   UNL     1       2.045   7.953  19.966  0.00  0.00    +0.000 A 
ATOM      6  C   UNL     1       1.362   9.191  20.034  0.00  0.00    +0.000 A 
ENDROOT
BRANCH   4   7
ATOM      7  N   UNL     1       3.328   6.241  18.639  0.00  0.00    +0.000 N 
ATOM      8  C   UNL     1       4.520   6.144  17.891  0.00  0.00    +0.000 A 
ATOM      9  C   UNL     1       4.736   4.801  17.707  0.00  0.00    +0.000 A 
ATOM     10  C   UNL     1       4.360   4.259  18.928  0.00  0.00    +0.000 A 
ATOM     11  C   UNL     1       4.825   3.175  19.680  0.00  0.00    +0.000 A 
ATOM     12  C   UNL     1       3.921   2.564  20.521  0.00  0.00    +0.000 A 
ATOM     13  F   UNL     1       4.296   1.465  21.185  0.00  0.00    +0.000 F 
ATOM     14  C   UNL     1       2.614   3.019  20.593  0.00  0.00    +0.000 A 
ATOM     15  C   UNL     1       2.224   4.236  19.992  0.00  0.00    +0.000 A 
ATOM     16  C   UNL     1       3.189   4.950  19.249  0.00  0.00    +0.000 A 
ATOM     17  C   UNL     1       5.686   4.307  16.757  0.00  0.00    +0.000 C 
ATOM     18  O   UNL     1       5.427   3.449  15.915  0.00  0.00    +0.000 OA
ATOM     19  C   UNL     1       7.017   4.930  16.948  0.00  0.00    +0.000 C 
ATOM     20  C   UNL     1       6.896   6.470  17.019  0.00  0.00    +0.000 C 
ATOM     21  C   UNL     1       5.509   7.140  17.381  0.00  0.00    +0.000 C 
ENDBRANCH   4   7
BRANCH   1  23
ATOM     22  N   UNL     1       1.502  12.236  18.333  0.00  0.00    +0.000 N 
ATOM     23  C   UNL     1       0.636  11.281  18.815  0.00  0.00    +0.000 C 
ATOM     24  O   UNL     1      -0.448  11.608  19.290  0.00  0.00    +0.000 OA
ATOM     25  H   UNL     1       1.243  13.205  18.470  0.00  0.00    +0.000 HD
ATOM     26  H   UNL     1       2.480  12.038  18.214  0.00  0.00    +0.000 HD
ENDBRANCH   1  23
BRANCH   6  27
ATOM     27  N   UNL     1       1.056   9.806  21.298  0.00  0.00    +0.000 N 
ATOM     28  H   UNL     1       1.108  10.832  21.173  0.00  0.00    +0.000 HD
BRANCH  27  29
ATOM     29  C   UNL     1      -0.172   9.468  22.041  0.00  0.00    +0.000 C 
ATOM     30  C   UNL     1      -0.305   9.412  23.532  0.00  0.00    +0.000 C 
ATOM     31  C   UNL     1      -0.835  10.600  22.793  0.00  0.00    +0.000 C 
ENDBRANCH  27  29
ENDBRANCH   6  27
TORSDOF 4
ENDMDL
MODEL 8
REMARK VINA RESULT:      -8.3      2.050      3.466
REMARK  Name = 
REMARK  4 active torsions:
REMARK  status: ('A' for Active; 'I' for Inactive)
REMARK    1  A    between atoms: C_2  and  C_4
REMARK    2  A    between atoms: C_7  and  N_8
REMARK    3  A    between atoms: C_24  and  N_25
REMARK    4  A    between atoms: N_25  and  C_26
REMARK                            x       y       z     vdW  Elec       q    Type
REMARK                         _______ _______ _______ _____ _____    ______ ____
ROOT
ATOM      1  C   UNL     1       1.185  10.506  19.031  0.00  0.00    +0.000 A 
ATOM      2  C   UNL     1       1.464   9.890  17.820  0.00  0.00    +0.000 A 
ATOM      3  C   UNL     1       1.859   8.550  17.782  0.00  0.00    +0.000 A 
ATOM      4  C   UNL     1       2.035   7.807  18.955  0.00  0.00    +0.000 A 
ATOM      5  C   UNL     1       1.595   8.401  20.164  0.00  0.00    +0.000 A 
ATOM      6  C   UNL     1       1.141   9.741  20.217  0.00  0.00    +0.000 A 
ENDROOT
BRANCH   4   7
ATOM      7  N   UNL     1       2.727   6.531  18.913  0.00  0.00    +0.000 N 
ATOM      8  C   UNL     1       3.824   6.168  18.105  0.00  0.00    +0.000 A 
ATOM      9  C   UNL     1       3.797   4.797  18.035  0.00  0.00    +0.000 A 
ATOM     10  C   UNL     1       3.431   4.430  19.322  0.00  0.00    +0.000 A 
ATOM     11  C   UNL     1       3.763   3.346  20.142  0.00  0.00    +0.000 A 
ATOM     12  C   UNL     1       2.837   2.973  21.090  0.00  0.00    +0.000 A 
ATOM     13  F   UNL     1       3.074   1.882  21.829  0.00  0.00    +0.000 F 
ATOM     14  C   UNL     1       1.636   3.652  21.201  0.00  0.00    +0.000 A 
ATOM     15  C   UNL     1       1.410   4.865  20.514  0.00  0.00    +0.000 A 
ATOM     16  C   UNL     1       2.420   5.338  19.649  0.00  0.00    +0.000 A 
ATOM     17  C   UNL     1       4.574   4.070  17.077  0.00  0.00    +0.000 C 
ATOM     18  O   UNL     1       4.110   3.204  16.337  0.00  0.00    +0.000 OA
ATOM     19  C   UNL     1       6.001   4.465  17.126  0.00  0.00    +0.000 C 
ATOM     20  C   UNL     1       6.146   6.003  17.060  0.00  0.00    +0.000 C 
ATOM     21  C   UNL     1       4.924   6.931  17.444  0.00  0.00    +0.000 C 
ENDBRANCH   4   7
BRANCH   1  23
ATOM     22  N   UNL     1       0.017  12.485  18.203  0.00  0.00    +0.000 N 
ATOM     23  C   UNL     1       0.979  11.972  19.045  0.00  0.00    +0.000 C 
ATOM     24  O   UNL     1       1.686  12.723  19.712  0.00  0.00    +0.000 OA
ATOM     25  H   UNL     1      -0.014  13.492  18.099  0.00  0.00    +0.000 HD
ATOM     26  H   UNL     1      -0.362  11.936  17.453  0.00  0.00    +0.000 HD
ENDBRANCH   1  23
BRANCH   6  27
ATOM     27  N   UNL     1       0.776  10.355  21.466  0.00  0.00    +0.000 N 
ATOM     28  H   UNL     1       1.325  11.225  21.565  0.00  0.00    +0.000 HD
BRANCH  27  29
ATOM     29  C   UNL     1      -0.634  10.628  21.805  0.00  0.00    +0.000 C 
ATOM     30  C   UNL     1      -1.199  10.718  23.189  0.00  0.00    +0.000 C 
ATOM     31  C   UNL     1      -0.925  11.976  22.427  0.00  0.00    +0.000 C 
ENDBRANCH  27  29
ENDBRANCH   6  27
TORSDOF 4
ENDMDL
MODEL 9
REMARK VINA RESULT:      -8.2      3.683      8.260
REMARK  Name = 
REMARK  4 active torsions:
REMARK  status: ('A' for Active; 'I' for Inactive)
REMARK    1  A    between atoms: C_2  and  C_4
REMARK    2  A    between atoms: C_7  and  N_8
REMARK    3  A    between atoms: C_24  and  N_25
REMARK    4  A    between atoms: N_25  and  C_26
REMARK                            x       y       z     vdW  Elec       q    Type
REMARK                         _______ _______ _______ _____ _____    ______ ____
ROOT
ATOM      1  C   UNL     1       2.986   7.041  18.296  0.00  0.00    +0.000 A 
ATOM      2  C   UNL     1       2.872   8.148  17.468  0.00  0.00    +0.000 A 
ATOM      3  C   UNL     1       2.064   9.227  17.836  0.00  0.00    +0.000 A 
ATOM      4  C   UNL     1       1.310   9.207  19.016  0.00  0.00    +0.000 A 
ATOM      5  C   UNL     1       1.560   8.144  19.919  0.00  0.00    +0.000 A 
ATOM      6  C   UNL     1       2.416   7.066  19.588  0.00  0.00    +0.000 A 
ENDROOT
BRANCH   4   7
ATOM      7  N   UNL     1       0.261  10.188  19.228  0.00  0.00    +0.000 N 
ATOM      8  C   UNL     1       0.250  11.256  20.149  0.00  0.00    +0.000 A 
ATOM      9  C   UNL     1      -1.074  11.565  20.344  0.00  0.00    +0.000 A 
ATOM     10  C   UNL     1      -1.612  11.431  19.072  0.00  0.00    +0.000 A 
ATOM     11  C   UNL     1      -2.629  12.102  18.385  0.00  0.00    +0.000 A 
ATOM     12  C   UNL     1      -3.293  11.396  17.406  0.00  0.00    +0.000 A 
ATOM     13  F   UNL     1      -4.335  11.969  16.792  0.00  0.00    +0.000 F 
ATOM     14  C   UNL     1      -2.955  10.080  17.141  0.00  0.00    +0.000 A 
ATOM     15  C   UNL     1      -1.795   9.492  17.693  0.00  0.00    +0.000 A 
ATOM     16  C   UNL     1      -1.019  10.263  18.585  0.00  0.00    +0.000 A 
ATOM     17  C   UNL     1      -1.508  12.401  21.422  0.00  0.00    +0.000 C 
ATOM     18  O   UNL     1      -2.409  12.098  22.202  0.00  0.00    +0.000 OA
ATOM     19  C   UNL     1      -0.764  13.682  21.447  0.00  0.00    +0.000 C 
ATOM     20  C   UNL     1       0.761  13.432  21.381  0.00  0.00    +0.000 C 
ATOM     21  C   UNL     1       1.314  12.060  20.819  0.00  0.00    +0.000 C 
ENDBRANCH   4   7
BRANCH   1  23
ATOM     22  N   UNL     1       5.025   5.944  17.520  0.00  0.00    +0.000 N 
ATOM     23  C   UNL     1       3.676   5.839  17.775  0.00  0.00    +0.000 C 
ATOM     24  O   UNL     1       3.068   4.808  17.498  0.00  0.00    +0.000 OA
ATOM     25  H   UNL     1       5.460   5.178  17.020  0.00  0.00    +0.000 HD
ATOM     26  H   UNL     1       5.474   6.840  17.462  0.00  0.00    +0.000 HD
ENDBRANCH   1  23
BRANCH   6  27
ATOM     27  N   UNL     1       2.596   5.955  20.484  0.00  0.00    +0.000 N 
ATOM     28  H   UNL     1       3.032   6.313  21.351  0.00  0.00    +0.000 HD
BRANCH  27  29
ATOM     29  C   UNL     1       1.476   5.062  20.836  0.00  0.00    +0.000 C 
ATOM     30  C   UNL     1       1.026   3.871  20.046  0.00  0.00    +0.000 C 
ATOM     31  C   UNL     1       1.846   3.664  21.280  0.00  0.00    +0.000 C 
ENDBRANCH  27  29
ENDBRANCH   6  27
TORSDOF 4
ENDMDL
