MODEL 1
REMARK VINA RESULT:      -7.1      0.000      0.000
REMARK  Name = 
REMARK  6 active torsions:
REMARK  status: ('A' for Active; 'I' for Inactive)
REMARK    1  A    between atoms: C_1  and  N_2
REMARK    2  A    between atoms: N_2  and  C_3
REMARK    3  A    between atoms: C_3  and  C_4
REMARK    4  A    between atoms: C_4  and  O_5
REMARK    5  A    between atoms: O_5  and  S_6
REMARK    6  A    between atoms: S_6  and  C_8
REMARK                            x       y       z     vdW  Elec       q    Type
REMARK                         _______ _______ _______ _____ _____    ______ ____
ROOT
ATOM      1  S   UNL     1       2.841   6.637  19.046  0.00  0.00    +0.000 S 
ATOM      2  O   UNL     1       2.016   7.151  17.906  0.00  0.00    +0.000 OA
ENDROOT
BRANCH   1   3
ATOM      3  C   UNL     1       2.453   4.843  19.279  0.00  0.00    +0.000 C 
ATOM      4  C   UNL     1       1.972   4.192  17.961  0.00  0.00    +0.000 C 
ATOM      5  C   UNL     1       1.697   2.688  18.180  0.00  0.00    +0.000 C 
ATOM      6  C   UNL     1       2.972   1.976  18.663  0.00  0.00    +0.000 C 
ATOM      7  C   UNL     1       3.476   2.629  19.961  0.00  0.00    +0.000 C 
ATOM      8  C   UNL     1       2.401   2.497  21.049  0.00  0.00    +0.000 C 
ATOM      9  C   UNL     1       1.100   3.155  20.586  0.00  0.00    +0.000 C 
ATOM     10  C   UNL     1       0.619   2.525  19.262  0.00  0.00    +0.000 C 
ATOM     11  C   UNL     1       1.363   4.650  20.362  0.00  0.00    +0.000 C 
ATOM     12  C   UNL     1       3.757   4.115  19.693  0.00  0.00    +0.000 C 
ENDBRANCH   1   3
BRANCH   1  13
ATOM     13  O   UNL     1       4.329   6.393  18.474  0.00  0.00    +0.000 OA
BRANCH  13  14
ATOM     14  C   UNL     1       4.521   6.721  17.097  0.00  0.00    +0.000 C 
BRANCH  14  15
ATOM     15  C   UNL     1       6.010   6.569  16.710  0.00  0.00    +0.000 C 
BRANCH  15  17
ATOM     16  C   UNL     1       7.209   4.724  17.960  0.00  0.00    +0.000 C 
ATOM     17  N   UNL     1       6.519   5.093  16.654  0.00  0.00    +0.000 N 
ATOM     18  C   UNL     1       7.608   4.982  15.511  0.00  0.00    +0.000 C 
ATOM     19  C   UNL     1       6.993   4.866  14.106  0.00  0.00    +0.000 C 
ATOM     20  O   UNL     1       5.989   3.841  14.030  0.00  0.00    +0.000 OA
ATOM     21  C   UNL     1       4.916   4.136  14.920  0.00  0.00    +0.000 C 
ATOM     22  C   UNL     1       5.424   4.054  16.356  0.00  0.00    +0.000 C 
ENDBRANCH  15  17
ENDBRANCH  14  15
ENDBRANCH  13  14
ENDBRANCH   1  13
TORSDOF 5
ENDMDL
MODEL 2
REMARK VINA RESULT:      -7.1      0.115      1.628
REMARK  Name = 
REMARK  6 active torsions:
REMARK  status: ('A' for Active; 'I' for Inactive)
REMARK    1  A    between atoms: C_1  and  N_2
REMARK    2  A    between atoms: N_2  and  C_3
REMARK    3  A    between atoms: C_3  and  C_4
REMARK    4  A    between atoms: C_4  and  O_5
REMARK    5  A    between atoms: O_5  and  S_6
REMARK    6  A    between atoms: S_6  and  C_8
REMARK                            x       y       z     vdW  Elec       q    Type
REMARK                         _______ _______ _______ _____ _____    ______ ____
ROOT
ATOM      1  S   UNL     1       2.823   6.748  18.989  0.00  0.00    +0.000 S 
ATOM      2  O   UNL     1       2.008   7.172  17.806  0.00  0.00    +0.000 OA
ENDROOT
BRANCH   1   3
ATOM      3  C   UNL     1       2.473   4.961  19.323  0.00  0.00    +0.000 C 
ATOM      4  C   UNL     1       1.412   4.791  20.435  0.00  0.00    +0.000 C 
ATOM      5  C   UNL     1       1.112   3.292  20.659  0.00  0.00    +0.000 C 
ATOM      6  C   UNL     1       0.597   2.649  19.361  0.00  0.00    +0.000 C 
ATOM      7  C   UNL     1       1.632   2.833  18.238  0.00  0.00    +0.000 C 
ATOM      8  C   UNL     1       2.944   2.142  18.636  0.00  0.00    +0.000 C 
ATOM      9  C   UNL     1       3.467   2.724  19.951  0.00  0.00    +0.000 C 
ATOM     10  C   UNL     1       2.409   2.575  21.065  0.00  0.00    +0.000 C 
ATOM     11  C   UNL     1       3.764   4.215  19.741  0.00  0.00    +0.000 C 
ATOM     12  C   UNL     1       1.883   4.335  18.034  0.00  0.00    +0.000 C 
ENDBRANCH   1   3
BRANCH   1  13
ATOM     13  O   UNL     1       4.327   6.506  18.460  0.00  0.00    +0.000 OA
BRANCH  13  14
ATOM     14  C   UNL     1       4.544   6.781  17.075  0.00  0.00    +0.000 C 
BRANCH  14  15
ATOM     15  C   UNL     1       6.038   6.610  16.721  0.00  0.00    +0.000 C 
BRANCH  15  17
ATOM     16  C   UNL     1       7.237   4.784  17.997  0.00  0.00    +0.000 C 
ATOM     17  N   UNL     1       6.535   5.129  16.692  0.00  0.00    +0.000 N 
ATOM     18  C   UNL     1       7.608   4.982  15.539  0.00  0.00    +0.000 C 
ATOM     19  C   UNL     1       6.974   4.838  14.145  0.00  0.00    +0.000 C 
ATOM     20  O   UNL     1       5.961   3.821  14.105  0.00  0.00    +0.000 OA
ATOM     21  C   UNL     1       4.902   4.146  15.001  0.00  0.00    +0.000 C 
ATOM     22  C   UNL     1       5.426   4.093  16.432  0.00  0.00    +0.000 C 
ENDBRANCH  15  17
ENDBRANCH  14  15
ENDBRANCH  13  14
ENDBRANCH   1  13
TORSDOF 5
ENDMDL
MODEL 3
REMARK VINA RESULT:      -7.0      0.114      1.598
REMARK  Name = 
REMARK  6 active torsions:
REMARK  status: ('A' for Active; 'I' for Inactive)
REMARK    1  A    between atoms: C_1  and  N_2
REMARK    2  A    between atoms: N_2  and  C_3
REMARK    3  A    between atoms: C_3  and  C_4
REMARK    4  A    between atoms: C_4  and  O_5
REMARK    5  A    between atoms: O_5  and  S_6
REMARK    6  A    between atoms: S_6  and  C_8
REMARK                            x       y       z     vdW  Elec       q    Type
REMARK                         _______ _______ _______ _____ _____    ______ ____
ROOT
ATOM      1  S   UNL     1       2.878   6.682  19.022  0.00  0.00    +0.000 S 
ATOM      2  O   UNL     1       2.048   7.139  17.861  0.00  0.00    +0.000 OA
ENDROOT
BRANCH   1   3
ATOM      3  C   UNL     1       2.521   4.891  19.319  0.00  0.00    +0.000 C 
ATOM      4  C   UNL     1       3.787   4.129  19.776  0.00  0.00    +0.000 C 
ATOM      5  C   UNL     1       3.446   2.649  20.055  0.00  0.00    +0.000 C 
ATOM      6  C   UNL     1       2.367   2.544  21.146  0.00  0.00    +0.000 C 
ATOM      7  C   UNL     1       1.110   3.318  20.716  0.00  0.00    +0.000 C 
ATOM      8  C   UNL     1       0.554   2.708  19.421  0.00  0.00    +0.000 C 
ATOM      9  C   UNL     1       1.616   2.752  18.320  0.00  0.00    +0.000 C 
ATOM     10  C   UNL     1       2.891   2.010  18.773  0.00  0.00    +0.000 C 
ATOM     11  C   UNL     1       1.965   4.219  18.038  0.00  0.00    +0.000 C 
ATOM     12  C   UNL     1       1.489   4.786  20.470  0.00  0.00    +0.000 C 
ENDBRANCH   1   3
BRANCH   1  13
ATOM     13  O   UNL     1       4.372   6.443  18.464  0.00  0.00    +0.000 OA
BRANCH  13  14
ATOM     14  C   UNL     1       4.565   6.732  17.078  0.00  0.00    +0.000 C 
BRANCH  14  15
ATOM     15  C   UNL     1       6.056   6.581  16.700  0.00  0.00    +0.000 C 
BRANCH  15  17
ATOM     16  C   UNL     1       7.293   4.752  17.936  0.00  0.00    +0.000 C 
ATOM     17  N   UNL     1       6.567   5.106  16.646  0.00  0.00    +0.000 N 
ATOM     18  C   UNL     1       7.624   4.984  15.475  0.00  0.00    +0.000 C 
ATOM     19  C   UNL     1       6.971   4.851  14.089  0.00  0.00    +0.000 C 
ATOM     20  O   UNL     1       5.968   3.823  14.052  0.00  0.00    +0.000 OA
ATOM     21  C   UNL     1       4.919   4.127  14.968  0.00  0.00    +0.000 C 
ATOM     22  C   UNL     1       5.466   4.061  16.389  0.00  0.00    +0.000 C 
ENDBRANCH  15  17
ENDBRANCH  14  15
ENDBRANCH  13  14
ENDBRANCH   1  13
TORSDOF 5
ENDMDL
MODEL 4
REMARK VINA RESULT:      -7.0      1.397      2.248
REMARK  Name = 
REMARK  6 active torsions:
REMARK  status: ('A' for Active; 'I' for Inactive)
REMARK    1  A    between atoms: C_1  and  N_2
REMARK    2  A    between atoms: N_2  and  C_3
REMARK    3  A    between atoms: C_3  and  C_4
REMARK    4  A    between atoms: C_4  and  O_5
REMARK    5  A    between atoms: O_5  and  S_6
REMARK    6  A    between atoms: S_6  and  C_8
REMARK                            x       y       z     vdW  Elec       q    Type
REMARK                         _______ _______ _______ _____ _____    ______ ____
ROOT
ATOM      1  S   UNL     1       2.697   6.673  19.081  0.00  0.00    +0.000 S 
ATOM      2  O   UNL     1       2.002   7.101  17.825  0.00  0.00    +0.000 OA
ENDROOT
BRANCH   1   3
ATOM      3  C   UNL     1       2.351   4.875  19.350  0.00  0.00    +0.000 C 
ATOM      4  C   UNL     1       1.905   4.182  18.041  0.00  0.00    +0.000 C 
ATOM      5  C   UNL     1       1.666   2.677  18.291  0.00  0.00    +0.000 C 
ATOM      6  C   UNL     1       2.951   2.009  18.809  0.00  0.00    +0.000 C 
ATOM      7  C   UNL     1       3.420   2.704  20.098  0.00  0.00    +0.000 C 
ATOM      8  C   UNL     1       2.333   2.569  21.174  0.00  0.00    +0.000 C 
ATOM      9  C   UNL     1       1.023   3.184  20.678  0.00  0.00    +0.000 C 
ATOM     10  C   UNL     1       0.577   2.511  19.363  0.00  0.00    +0.000 C 
ATOM     11  C   UNL     1       1.251   4.679  20.423  0.00  0.00    +0.000 C 
ATOM     12  C   UNL     1       3.667   4.190  19.799  0.00  0.00    +0.000 C 
ENDBRANCH   1   3
BRANCH   1  13
ATOM     13  O   UNL     1       4.253   6.469  18.709  0.00  0.00    +0.000 OA
BRANCH  13  14
ATOM     14  C   UNL     1       4.590   6.677  17.337  0.00  0.00    +0.000 C 
BRANCH  14  15
ATOM     15  C   UNL     1       5.190   5.388  16.729  0.00  0.00    +0.000 C 
BRANCH  15  17
ATOM     16  C   UNL     1       7.069   4.750  15.159  0.00  0.00    +0.000 C 
ATOM     17  N   UNL     1       6.729   5.448  16.468  0.00  0.00    +0.000 N 
ATOM     18  C   UNL     1       7.464   4.649  17.620  0.00  0.00    +0.000 C 
ATOM     19  C   UNL     1       7.611   5.466  18.916  0.00  0.00    +0.000 C 
ATOM     20  O   UNL     1       8.175   6.766  18.684  0.00  0.00    +0.000 OA
ATOM     21  C   UNL     1       7.328   7.522  17.821  0.00  0.00    +0.000 C 
ATOM     22  C   UNL     1       7.314   6.872  16.442  0.00  0.00    +0.000 C 
ENDBRANCH  15  17
ENDBRANCH  14  15
ENDBRANCH  13  14
ENDBRANCH   1  13
TORSDOF 5
ENDMDL
MODEL 5
REMARK VINA RESULT:      -6.9      1.377      2.748
REMARK  Name = 
REMARK  6 active torsions:
REMARK  status: ('A' for Active; 'I' for Inactive)
REMARK    1  A    between atoms: C_1  and  N_2
REMARK    2  A    between atoms: N_2  and  C_3
REMARK    3  A    between atoms: C_3  and  C_4
REMARK    4  A    between atoms: C_4  and  O_5
REMARK    5  A    between atoms: O_5  and  S_6
REMARK    6  A    between atoms: S_6  and  C_8
REMARK                            x       y       z     vdW  Elec       q    Type
REMARK                         _______ _______ _______ _____ _____    ______ ____
ROOT
ATOM      1  S   UNL     1       2.681   6.706  18.951  0.00  0.00    +0.000 S 
ATOM      2  O   UNL     1       1.963   7.055  17.684  0.00  0.00    +0.000 OA
ENDROOT
BRANCH   1   3
ATOM      3  C   UNL     1       2.407   4.908  19.294  0.00  0.00    +0.000 C 
ATOM      4  C   UNL     1       3.708   4.218  19.769  0.00  0.00    +0.000 C 
ATOM      5  C   UNL     1       3.436   2.731  20.086  0.00  0.00    +0.000 C 
ATOM      6  C   UNL     1       2.364   2.604  21.181  0.00  0.00    +0.000 C 
ATOM      7  C   UNL     1       1.072   3.308  20.733  0.00  0.00    +0.000 C 
ATOM      8  C   UNL     1       0.544   2.640  19.456  0.00  0.00    +0.000 C 
ATOM      9  C   UNL     1       1.603   2.704  18.352  0.00  0.00    +0.000 C 
ATOM     10  C   UNL     1       2.911   2.034  18.821  0.00  0.00    +0.000 C 
ATOM     11  C   UNL     1       1.883   4.179  18.032  0.00  0.00    +0.000 C 
ATOM     12  C   UNL     1       1.383   4.785  20.450  0.00  0.00    +0.000 C 
ENDBRANCH   1   3
BRANCH   1  13
ATOM     13  O   UNL     1       4.241   6.548  18.577  0.00  0.00    +0.000 OA
BRANCH  13  14
ATOM     14  C   UNL     1       4.554   6.652  17.187  0.00  0.00    +0.000 C 
BRANCH  14  15
ATOM     15  C   UNL     1       5.195   5.339  16.681  0.00  0.00    +0.000 C 
BRANCH  15  17
ATOM     16  C   UNL     1       7.082   4.753  15.100  0.00  0.00    +0.000 C 
ATOM     17  N   UNL     1       6.733   5.424  16.421  0.00  0.00    +0.000 N 
ATOM     18  C   UNL     1       7.480   4.617  17.559  0.00  0.00    +0.000 C 
ATOM     19  C   UNL     1       7.617   5.414  18.867  0.00  0.00    +0.000 C 
ATOM     20  O   UNL     1       8.162   6.726  18.657  0.00  0.00    +0.000 OA
ATOM     21  C   UNL     1       7.304   7.484  17.808  0.00  0.00    +0.000 C 
ATOM     22  C   UNL     1       7.298   6.856  16.418  0.00  0.00    +0.000 C 
ENDBRANCH  15  17
ENDBRANCH  14  15
ENDBRANCH  13  14
ENDBRANCH   1  13
TORSDOF 5
ENDMDL
MODEL 6
REMARK VINA RESULT:      -6.9      3.863      6.119
REMARK  Name = 
REMARK  6 active torsions:
REMARK  status: ('A' for Active; 'I' for Inactive)
REMARK    1  A    between atoms: C_1  and  N_2
REMARK    2  A    between atoms: N_2  and  C_3
REMARK    3  A    between atoms: C_3  and  C_4
REMARK    4  A    between atoms: C_4  and  O_5
REMARK    5  A    between atoms: O_5  and  S_6
REMARK    6  A    between atoms: S_6  and  C_8
REMARK                            x       y       z     vdW  Elec       q    Type
REMARK                         _______ _______ _______ _____ _____    ______ ____
ROOT
ATOM      1  S   UNL     1       3.527   6.299  17.734  0.00  0.00    +0.000 S 
ATOM      2  O   UNL     1       4.976   6.457  18.078  0.00  0.00    +0.000 OA
ENDROOT
BRANCH   1   3
ATOM      3  C   UNL     1       2.865   4.845  18.669  0.00  0.00    +0.000 C 
ATOM      4  C   UNL     1       2.205   5.280  19.999  0.00  0.00    +0.000 C 
ATOM      5  C   UNL     1       1.627   4.050  20.733  0.00  0.00    +0.000 C 
ATOM      6  C   UNL     1       0.582   3.344  19.853  0.00  0.00    +0.000 C 
ATOM      7  C   UNL     1       1.218   2.927  18.517  0.00  0.00    +0.000 C 
ATOM      8  C   UNL     1       2.372   1.950  18.784  0.00  0.00    +0.000 C 
ATOM      9  C   UNL     1       3.413   2.601  19.695  0.00  0.00    +0.000 C 
ATOM     10  C   UNL     1       2.762   3.055  21.019  0.00  0.00    +0.000 C 
ATOM     11  C   UNL     1       3.992   3.828  18.977  0.00  0.00    +0.000 C 
ATOM     12  C   UNL     1       1.759   4.180  17.812  0.00  0.00    +0.000 C 
ENDBRANCH   1   3
BRANCH   1  13
ATOM     13  O   UNL     1       2.720   7.403  18.589  0.00  0.00    +0.000 OA
BRANCH  13  14
ATOM     14  C   UNL     1       1.874   8.270  17.831  0.00  0.00    +0.000 C 
BRANCH  14  15
ATOM     15  C   UNL     1       1.907   9.700  18.417  0.00  0.00    +0.000 C 
BRANCH  15  17
ATOM     16  C   UNL     1      -0.553   9.973  17.892  0.00  0.00    +0.000 C 
ATOM     17  N   UNL     1       0.529  10.223  18.934  0.00  0.00    +0.000 N 
ATOM     18  C   UNL     1       0.628  11.790  19.128  0.00  0.00    +0.000 C 
ATOM     19  C   UNL     1       1.317  12.189  20.444  0.00  0.00    +0.000 C 
ATOM     20  O   UNL     1       0.758  11.514  21.582  0.00  0.00    +0.000 OA
ATOM     21  C   UNL     1       0.923  10.105  21.448  0.00  0.00    +0.000 C 
ATOM     22  C   UNL     1       0.081   9.615  20.275  0.00  0.00    +0.000 C 
ENDBRANCH  15  17
ENDBRANCH  14  15
ENDBRANCH  13  14
ENDBRANCH   1  13
TORSDOF 5
ENDMDL
MODEL 7
REMARK VINA RESULT:      -6.9      3.872      6.043
REMARK  Name = 
REMARK  6 active torsions:
REMARK  status: ('A' for Active; 'I' for Inactive)
REMARK    1  A    between atoms: C_1  and  N_2
REMARK    2  A    between atoms: N_2  and  C_3
REMARK    3  A    between atoms: C_3  and  C_4
REMARK    4  A    between atoms: C_4  and  O_5
REMARK    5  A    between atoms: O_5  and  S_6
REMARK    6  A    between atoms: S_6  and  C_8
REMARK                            x       y       z     vdW  Elec       q    Type
REMARK                         _______ _______ _______ _____ _____    ______ ____
ROOT
ATOM      1  S   UNL     1       3.497   6.312  17.719  0.00  0.00    +0.000 S 
ATOM      2  O   UNL     1       4.948   6.470  18.053  0.00  0.00    +0.000 OA
ENDROOT
BRANCH   1   3
ATOM      3  C   UNL     1       2.843   4.853  18.651  0.00  0.00    +0.000 C 
ATOM      4  C   UNL     1       3.934   3.774  18.852  0.00  0.00    +0.000 C 
ATOM      5  C   UNL     1       3.368   2.591  19.667  0.00  0.00    +0.000 C 
ATOM      6  C   UNL     1       2.873   3.076  21.040  0.00  0.00    +0.000 C 
ATOM      7  C   UNL     1       1.805   4.166  20.856  0.00  0.00    +0.000 C 
ATOM      8  C   UNL     1       0.611   3.586  20.084  0.00  0.00    +0.000 C 
ATOM      9  C   UNL     1       1.072   3.051  18.727  0.00  0.00    +0.000 C 
ATOM     10  C   UNL     1       2.174   1.986  18.914  0.00  0.00    +0.000 C 
ATOM     11  C   UNL     1       1.640   4.218  17.909  0.00  0.00    +0.000 C 
ATOM     12  C   UNL     1       2.414   5.331  20.061  0.00  0.00    +0.000 C 
ENDBRANCH   1   3
BRANCH   1  13
ATOM     13  O   UNL     1       2.694   7.410  18.585  0.00  0.00    +0.000 OA
BRANCH  13  14
ATOM     14  C   UNL     1       1.854   8.290  17.836  0.00  0.00    +0.000 C 
BRANCH  14  15
ATOM     15  C   UNL     1       1.884   9.710  18.445  0.00  0.00    +0.000 C 
BRANCH  15  17
ATOM     16  C   UNL     1      -0.581   9.997  17.948  0.00  0.00    +0.000 C 
ATOM     17  N   UNL     1       0.508  10.213  18.989  0.00  0.00    +0.000 N 
ATOM     18  C   UNL     1       0.606  11.774  19.234  0.00  0.00    +0.000 C 
ATOM     19  C   UNL     1       1.304  12.130  20.558  0.00  0.00    +0.000 C 
ATOM     20  O   UNL     1       0.755  11.417  21.677  0.00  0.00    +0.000 OA
ATOM     21  C   UNL     1       0.921  10.013  21.495  0.00  0.00    +0.000 C 
ATOM     22  C   UNL     1       0.071   9.561  20.313  0.00  0.00    +0.000 C 
ENDBRANCH  15  17
ENDBRANCH  14  15
ENDBRANCH  13  14
ENDBRANCH   1  13
TORSDOF 5
ENDMDL
MODEL 8
REMARK VINA RESULT:      -6.9      2.136      5.474
REMARK  Name = 
REMARK  6 active torsions:
REMARK  status: ('A' for Active; 'I' for Inactive)
REMARK    1  A    between atoms: C_1  and  N_2
REMARK    2  A    between atoms: N_2  and  C_3
REMARK    3  A    between atoms: C_3  and  C_4
REMARK    4  A    between atoms: C_4  and  O_5
REMARK    5  A    between atoms: O_5  and  S_6
REMARK    6  A    between atoms: S_6  and  C_8
REMARK                            x       y       z     vdW  Elec       q    Type
REMARK                         _______ _______ _______ _____ _____    ______ ____
ROOT
ATOM      1  S   UNL     1       3.298   5.957  18.230  0.00  0.00    +0.000 S 
ATOM      2  O   UNL     1       2.795   7.265  17.700  0.00  0.00    +0.000 OA
ENDROOT
BRANCH   1   3
ATOM      3  C   UNL     1       5.105   5.836  17.852  0.00  0.00    +0.000 C 
ATOM      4  C   UNL     1       5.397   4.708  16.835  0.00  0.00    +0.000 C 
ATOM      5  C   UNL     1       6.906   4.661  16.511  0.00  0.00    +0.000 C 
ATOM      6  C   UNL     1       7.370   6.006  15.926  0.00  0.00    +0.000 C 
ATOM      7  C   UNL     1       7.064   7.141  16.918  0.00  0.00    +0.000 C 
ATOM      8  C   UNL     1       7.823   6.891  18.229  0.00  0.00    +0.000 C 
ATOM      9  C   UNL     1       7.422   5.538  18.820  0.00  0.00    +0.000 C 
ATOM     10  C   UNL     1       7.692   4.406  17.806  0.00  0.00    +0.000 C 
ATOM     11  C   UNL     1       5.922   5.572  19.142  0.00  0.00    +0.000 C 
ATOM     12  C   UNL     1       5.553   7.165  17.195  0.00  0.00    +0.000 C 
ENDBRANCH   1   3
BRANCH   1  13
ATOM     13  O   UNL     1       3.492   6.140  19.820  0.00  0.00    +0.000 OA
BRANCH  13  14
ATOM     14  C   UNL     1       2.554   5.440  20.639  0.00  0.00    +0.000 C 
BRANCH  14  15
ATOM     15  C   UNL     1       1.747   4.431  19.790  0.00  0.00    +0.000 C 
BRANCH  15  17
ATOM     16  C   UNL     1       1.165   2.684  21.526  0.00  0.00    +0.000 C 
ATOM     17  N   UNL     1       1.911   2.939  20.224  0.00  0.00    +0.000 N 
ATOM     18  C   UNL     1       3.443   2.666  20.511  0.00  0.00    +0.000 C 
ATOM     19  C   UNL     1       4.259   2.424  19.230  0.00  0.00    +0.000 C 
ATOM     20  O   UNL     1       3.661   1.436  18.376  0.00  0.00    +0.000 OA
ATOM     21  C   UNL     1       2.367   1.865  17.959  0.00  0.00    +0.000 C 
ATOM     22  C   UNL     1       1.445   1.917  19.172  0.00  0.00    +0.000 C 
ENDBRANCH  15  17
ENDBRANCH  14  15
ENDBRANCH  13  14
ENDBRANCH   1  13
TORSDOF 5
ENDMDL
MODEL 9
REMARK VINA RESULT:      -6.8      3.887      5.913
REMARK  Name = 
REMARK  6 active torsions:
REMARK  status: ('A' for Active; 'I' for Inactive)
REMARK    1  A    between atoms: C_1  and  N_2
REMARK    2  A    between atoms: N_2  and  C_3
REMARK    3  A    between atoms: C_3  and  C_4
REMARK    4  A    between atoms: C_4  and  O_5
REMARK    5  A    between atoms: O_5  and  S_6
REMARK    6  A    between atoms: S_6  and  C_8
REMARK                            x       y       z     vdW  Elec       q    Type
REMARK                         _______ _______ _______ _____ _____    ______ ____
ROOT
ATOM      1  S   UNL     1       3.375   6.301  17.750  0.00  0.00    +0.000 S 
ATOM      2  O   UNL     1       4.800   6.503  18.165  0.00  0.00    +0.000 OA
ENDROOT
BRANCH   1   3
ATOM      3  C   UNL     1       2.708   4.835  18.662  0.00  0.00    +0.000 C 
ATOM      4  C   UNL     1       1.587   4.132  17.862  0.00  0.00    +0.000 C 
ATOM      5  C   UNL     1       1.083   2.891  18.631  0.00  0.00    +0.000 C 
ATOM      6  C   UNL     1       2.236   1.902  18.867  0.00  0.00    +0.000 C 
ATOM      7  C   UNL     1       3.370   2.595  19.641  0.00  0.00    +0.000 C 
ATOM      8  C   UNL     1       2.843   3.065  21.005  0.00  0.00    +0.000 C 
ATOM      9  C   UNL     1       1.662   4.018  20.813  0.00  0.00    +0.000 C 
ATOM     10  C   UNL     1       0.544   3.332  20.000  0.00  0.00    +0.000 C 
ATOM     11  C   UNL     1       2.152   5.254  20.046  0.00  0.00    +0.000 C 
ATOM     12  C   UNL     1       3.855   3.808  18.833  0.00  0.00    +0.000 C 
ENDBRANCH   1   3
BRANCH   1  13
ATOM     13  O   UNL     1       2.495   7.387  18.554  0.00  0.00    +0.000 OA
BRANCH  13  14
ATOM     14  C   UNL     1       1.828   8.358  17.746  0.00  0.00    +0.000 C 
BRANCH  14  15
ATOM     15  C   UNL     1       1.870   9.745  18.429  0.00  0.00    +0.000 C 
BRANCH  15  17
ATOM     16  C   UNL     1      -0.601  10.000  17.942  0.00  0.00    +0.000 C 
ATOM     17  N   UNL     1       0.492  10.243  18.973  0.00  0.00    +0.000 N 
ATOM     18  C   UNL     1       0.576  11.808  19.194  0.00  0.00    +0.000 C 
ATOM     19  C   UNL     1       1.279  12.190  20.508  0.00  0.00    +0.000 C 
ATOM     20  O   UNL     1       0.743  11.489  21.641  0.00  0.00    +0.000 OA
ATOM     21  C   UNL     1       0.921  10.084  21.479  0.00  0.00    +0.000 C 
ATOM     22  C   UNL     1       0.069   9.606  20.309  0.00  0.00    +0.000 C 
ENDBRANCH  15  17
ENDBRANCH  14  15
ENDBRANCH  13  14
ENDBRANCH   1  13
TORSDOF 5
ENDMDL
