MODEL 1
REMARK VINA RESULT:      -8.4      0.000      0.000
REMARK  Name = 
REMARK  7 active torsions:
REMARK  status: ('A' for Active; 'I' for Inactive)
REMARK    1  A    between atoms: C_1  and  C_2
REMARK    2  A    between atoms: N_4  and  C_5
REMARK    3  A    between atoms: C_7  and  C_8
REMARK    4  A    between atoms: C_12  and  C_13
REMARK    5  A    between atoms: N_15  and  C_16
REMARK    6  A    between atoms: N_15  and  C_17
REMARK    7  A    between atoms: C_21  and  C_22
REMARK                            x       y       z     vdW  Elec       q    Type
REMARK                         _______ _______ _______ _____ _____    ______ ____
ROOT
ATOM      1  C   UNL     1       2.594   4.655  20.486  0.00  0.00    +0.000 A 
ATOM      2  C   UNL     1       2.156   5.901  20.214  0.00  0.00    +0.000 A 
ATOM      3  C   UNL     1       2.570   6.665  19.039  0.00  0.00    +0.000 A 
ATOM      4  C   UNL     1       3.443   6.068  18.203  0.00  0.00    +0.000 A 
ATOM      5  N   UNL     1       3.980   4.811  18.513  0.00  0.00    +0.000 N 
ATOM      6  C   UNL     1       4.936   4.039  17.851  0.00  0.00    +0.000 A 
ATOM      7  C   UNL     1       5.029   2.891  18.627  0.00  0.00    +0.000 A 
ATOM      8  N   UNL     1       4.218   2.929  19.726  0.00  0.00    +0.000 NA
ATOM      9  C   UNL     1       3.594   4.085  19.643  0.00  0.00    +0.000 A 
ENDROOT
BRANCH   6  10
ATOM     10  C   UNL     1       5.661   4.374  16.616  0.00  0.00    +0.000 A 
ATOM     11  C   UNL     1       6.750   5.263  16.669  0.00  0.00    +0.000 A 
ATOM     12  C   UNL     1       7.436   5.636  15.507  0.00  0.00    +0.000 A 
ATOM     13  C   UNL     1       7.052   5.107  14.282  0.00  0.00    +0.000 A 
ATOM     14  F   UNL     1       7.722   5.473  13.180  0.00  0.00    +0.000 F 
ATOM     15  C   UNL     1       5.982   4.224  14.205  0.00  0.00    +0.000 A 
ATOM     16 CL   UNL     1       5.503   3.548  12.695  0.00  0.00    +0.000 Cl
ATOM     17  C   UNL     1       5.274   3.880  15.361  0.00  0.00    +0.000 A 
ENDBRANCH   6  10
BRANCH   3  18
ATOM     18  C   UNL     1       2.073   8.048  18.814  0.00  0.00    +0.000 A 
ATOM     19  C   UNL     1       2.493   8.810  17.714  0.00  0.00    +0.000 A 
ATOM     20  C   UNL     1       2.152  10.161  17.627  0.00  0.00    +0.000 A 
ATOM     21  C   UNL     1       1.446  10.766  18.669  0.00  0.00    +0.000 A 
ATOM     22  C   UNL     1       1.035  10.027  19.785  0.00  0.00    +0.000 A 
ATOM     23  C   UNL     1       1.274   8.653  19.798  0.00  0.00    +0.000 A 
BRANCH  22  24
ATOM     24  C   UNL     1       0.312  10.750  20.871  0.00  0.00    +0.000 C 
ATOM     25  O   UNL     1       0.854  10.736  21.975  0.00  0.00    +0.000 OA
ATOM     26  N   UNL     1      -0.932  11.374  20.676  0.00  0.00    +0.000 N 
ATOM     27  C   UNL     1      -1.705  11.470  19.441  0.00  0.00    +0.000 C 
ATOM     28  C   UNL     1      -1.509  12.091  21.806  0.00  0.00    +0.000 C 
ENDBRANCH  22  24
ENDBRANCH   3  18
BRANCH   1  32
ATOM     29  C   UNL     1       0.902   2.179  22.721  0.00  0.00    +0.000 C 
ATOM     30  C   UNL     1       1.293   2.789  21.404  0.00  0.00    +0.000 C 
ATOM     31  O   UNL     1       0.879   2.313  20.348  0.00  0.00    +0.000 OA
ATOM     32  N   UNL     1       2.123   3.890  21.528  0.00  0.00    +0.000 N 
ATOM     33  H   UNL     1       2.599   4.038  22.413  0.00  0.00    +0.000 HD
ENDBRANCH   1  32
TORSDOF 4
ENDMDL
MODEL 2
REMARK VINA RESULT:      -8.3      0.773      1.047
REMARK  Name = 
REMARK  7 active torsions:
REMARK  status: ('A' for Active; 'I' for Inactive)
REMARK    1  A    between atoms: C_1  and  C_2
REMARK    2  A    between atoms: N_4  and  C_5
REMARK    3  A    between atoms: C_7  and  C_8
REMARK    4  A    between atoms: C_12  and  C_13
REMARK    5  A    between atoms: N_15  and  C_16
REMARK    6  A    between atoms: N_15  and  C_17
REMARK    7  A    between atoms: C_21  and  C_22
REMARK                            x       y       z     vdW  Elec       q    Type
REMARK                         _______ _______ _______ _____ _____    ______ ____
ROOT
ATOM      1  C   UNL     1       2.588   4.673  20.467  0.00  0.00    +0.000 A 
ATOM      2  C   UNL     1       2.143   5.915  20.187  0.00  0.00    +0.000 A 
ATOM      3  C   UNL     1       2.553   6.675  19.008  0.00  0.00    +0.000 A 
ATOM      4  C   UNL     1       3.430   6.078  18.176  0.00  0.00    +0.000 A 
ATOM      5  N   UNL     1       3.973   4.826  18.493  0.00  0.00    +0.000 N 
ATOM      6  C   UNL     1       4.935   4.056  17.836  0.00  0.00    +0.000 A 
ATOM      7  C   UNL     1       5.035   2.912  18.618  0.00  0.00    +0.000 A 
ATOM      8  N   UNL     1       4.222   2.952  19.717  0.00  0.00    +0.000 NA
ATOM      9  C   UNL     1       3.592   4.104  19.627  0.00  0.00    +0.000 A 
ENDROOT
BRANCH   6  10
ATOM     10  C   UNL     1       5.659   4.388  16.599  0.00  0.00    +0.000 A 
ATOM     11  C   UNL     1       6.742   5.283  16.647  0.00  0.00    +0.000 A 
ATOM     12  C   UNL     1       7.426   5.653  15.484  0.00  0.00    +0.000 A 
ATOM     13  C   UNL     1       7.046   5.116  14.261  0.00  0.00    +0.000 A 
ATOM     14  F   UNL     1       7.714   5.480  13.157  0.00  0.00    +0.000 F 
ATOM     15  C   UNL     1       5.980   4.226  14.189  0.00  0.00    +0.000 A 
ATOM     16 CL   UNL     1       5.505   3.540  12.682  0.00  0.00    +0.000 Cl
ATOM     17  C   UNL     1       5.274   3.885  15.347  0.00  0.00    +0.000 A 
ENDBRANCH   6  10
BRANCH   3  18
ATOM     18  C   UNL     1       2.048   8.054  18.775  0.00  0.00    +0.000 A 
ATOM     19  C   UNL     1       2.604   8.884  17.791  0.00  0.00    +0.000 A 
ATOM     20  C   UNL     1       2.233  10.227  17.717  0.00  0.00    +0.000 A 
ATOM     21  C   UNL     1       1.355  10.757  18.664  0.00  0.00    +0.000 A 
ATOM     22  C   UNL     1       0.804   9.949  19.667  0.00  0.00    +0.000 A 
ATOM     23  C   UNL     1       1.086   8.584  19.651  0.00  0.00    +0.000 A 
BRANCH  22  24
ATOM     24  C   UNL     1      -0.102  10.594  20.661  0.00  0.00    +0.000 C 
ATOM     25  O   UNL     1      -0.879  11.433  20.208  0.00  0.00    +0.000 OA
ATOM     26  N   UNL     1      -0.054  10.309  22.037  0.00  0.00    +0.000 N 
ATOM     27  C   UNL     1       0.811   9.356  22.727  0.00  0.00    +0.000 C 
ATOM     28  C   UNL     1      -1.029  10.970  22.895  0.00  0.00    +0.000 C 
ENDBRANCH  22  24
ENDBRANCH   3  18
BRANCH   1  32
ATOM     29  C   UNL     1       0.913   2.197  22.714  0.00  0.00    +0.000 C 
ATOM     30  C   UNL     1       1.302   2.801  21.394  0.00  0.00    +0.000 C 
ATOM     31  O   UNL     1       0.896   2.314  20.340  0.00  0.00    +0.000 OA
ATOM     32  N   UNL     1       2.122   3.911  21.512  0.00  0.00    +0.000 N 
ATOM     33  H   UNL     1       2.593   4.070  22.398  0.00  0.00    +0.000 HD
ENDBRANCH   1  32
TORSDOF 4
ENDMDL
MODEL 3
REMARK VINA RESULT:      -7.9      4.484      7.332
REMARK  Name = 
REMARK  7 active torsions:
REMARK  status: ('A' for Active; 'I' for Inactive)
REMARK    1  A    between atoms: C_1  and  C_2
REMARK    2  A    between atoms: N_4  and  C_5
REMARK    3  A    between atoms: C_7  and  C_8
REMARK    4  A    between atoms: C_12  and  C_13
REMARK    5  A    between atoms: N_15  and  C_16
REMARK    6  A    between atoms: N_15  and  C_17
REMARK    7  A    between atoms: C_21  and  C_22
REMARK                            x       y       z     vdW  Elec       q    Type
REMARK                         _______ _______ _______ _____ _____    ______ ____
ROOT
ATOM      1  C   UNL     1      -0.538  11.634  21.213  0.00  0.00    +0.000 A 
ATOM      2  C   UNL     1      -1.387  11.594  20.165  0.00  0.00    +0.000 A 
ATOM      3  C   UNL     1      -1.461  10.476  19.227  0.00  0.00    +0.000 A 
ATOM      4  C   UNL     1      -0.618   9.445  19.443  0.00  0.00    +0.000 A 
ATOM      5  N   UNL     1       0.332   9.506  20.470  0.00  0.00    +0.000 N 
ATOM      6  C   UNL     1       1.340   8.611  20.834  0.00  0.00    +0.000 A 
ATOM      7  C   UNL     1       1.932   9.211  21.939  0.00  0.00    +0.000 A 
ATOM      8  N   UNL     1       1.371  10.418  22.248  0.00  0.00    +0.000 NA
ATOM      9  C   UNL     1       0.412  10.580  21.360  0.00  0.00    +0.000 A 
ENDROOT
BRANCH   6  10
ATOM     10  C   UNL     1       1.679   7.331  20.193  0.00  0.00    +0.000 A 
ATOM     11  C   UNL     1       2.292   7.328  18.928  0.00  0.00    +0.000 A 
ATOM     12  C   UNL     1       2.590   6.129  18.271  0.00  0.00    +0.000 A 
ATOM     13  C   UNL     1       2.294   4.918  18.883  0.00  0.00    +0.000 A 
ATOM     14  F   UNL     1       2.589   3.779  18.240  0.00  0.00    +0.000 F 
ATOM     15  C   UNL     1       1.691   4.895  20.135  0.00  0.00    +0.000 A 
ATOM     16 CL   UNL     1       1.331   3.401  20.913  0.00  0.00    +0.000 Cl
ATOM     17  C   UNL     1       1.361   6.094  20.774  0.00  0.00    +0.000 A 
ENDBRANCH   6  10
BRANCH   3  18
ATOM     18  C   UNL     1      -2.399  10.508  18.073  0.00  0.00    +0.000 A 
ATOM     19  C   UNL     1      -2.028  10.022  16.811  0.00  0.00    +0.000 A 
ATOM     20  C   UNL     1      -2.860  10.229  15.710  0.00  0.00    +0.000 A 
ATOM     21  C   UNL     1      -4.030  10.976  15.856  0.00  0.00    +0.000 A 
ATOM     22  C   UNL     1      -4.408  11.486  17.105  0.00  0.00    +0.000 A 
ATOM     23  C   UNL     1      -3.633  11.164  18.217  0.00  0.00    +0.000 A 
BRANCH  22  24
ATOM     24  C   UNL     1      -5.656  12.299  17.175  0.00  0.00    +0.000 C 
ATOM     25  O   UNL     1      -5.773  13.174  16.319  0.00  0.00    +0.000 OA
ATOM     26  N   UNL     1      -6.628  12.124  18.176  0.00  0.00    +0.000 N 
ATOM     27  C   UNL     1      -6.632  11.146  19.261  0.00  0.00    +0.000 C 
ATOM     28  C   UNL     1      -7.827  12.948  18.103  0.00  0.00    +0.000 C 
ENDBRANCH  22  24
ENDBRANCH   3  18
BRANCH   1  32
ATOM     29  C   UNL     1      -1.312  14.068  23.944  0.00  0.00    +0.000 C 
ATOM     30  C   UNL     1      -1.567  12.883  23.056  0.00  0.00    +0.000 C 
ATOM     31  O   UNL     1      -2.610  12.239  23.158  0.00  0.00    +0.000 OA
ATOM     32  N   UNL     1      -0.541  12.630  22.161  0.00  0.00    +0.000 N 
ATOM     33  H   UNL     1       0.364  13.057  22.332  0.00  0.00    +0.000 HD
ENDBRANCH   1  32
TORSDOF 4
ENDMDL
MODEL 4
REMARK VINA RESULT:      -7.9      4.565      8.922
REMARK  Name = 
REMARK  7 active torsions:
REMARK  status: ('A' for Active; 'I' for Inactive)
REMARK    1  A    between atoms: C_1  and  C_2
REMARK    2  A    between atoms: N_4  and  C_5
REMARK    3  A    between atoms: C_7  and  C_8
REMARK    4  A    between atoms: C_12  and  C_13
REMARK    5  A    between atoms: N_15  and  C_16
REMARK    6  A    between atoms: N_15  and  C_17
REMARK    7  A    between atoms: C_21  and  C_22
REMARK                            x       y       z     vdW  Elec       q    Type
REMARK                         _______ _______ _______ _____ _____    ______ ____
ROOT
ATOM      1  C   UNL     1      -0.932  10.858  18.351  0.00  0.00    +0.000 A 
ATOM      2  C   UNL     1      -0.129   9.775  18.343  0.00  0.00    +0.000 A 
ATOM      3  C   UNL     1       1.307   9.831  18.606  0.00  0.00    +0.000 A 
ATOM      4  C   UNL     1       1.830  11.048  18.862  0.00  0.00    +0.000 A 
ATOM      5  N   UNL     1       1.032  12.196  18.787  0.00  0.00    +0.000 N 
ATOM      6  C   UNL     1       1.358  13.545  18.936  0.00  0.00    +0.000 A 
ATOM      7  C   UNL     1       0.143  14.199  18.775  0.00  0.00    +0.000 A 
ATOM      8  N   UNL     1      -0.887  13.341  18.510  0.00  0.00    +0.000 NA
ATOM      9  C   UNL     1      -0.339  12.144  18.522  0.00  0.00    +0.000 A 
ENDROOT
BRANCH   6  10
ATOM     10  C   UNL     1       2.683  14.123  19.208  0.00  0.00    +0.000 A 
ATOM     11  C   UNL     1       3.474  14.582  18.140  0.00  0.00    +0.000 A 
ATOM     12  C   UNL     1       4.756  15.099  18.359  0.00  0.00    +0.000 A 
ATOM     13  C   UNL     1       5.253  15.181  19.653  0.00  0.00    +0.000 A 
ATOM     14  F   UNL     1       6.482  15.682  19.844  0.00  0.00    +0.000 F 
ATOM     15  C   UNL     1       4.488  14.737  20.725  0.00  0.00    +0.000 A 
ATOM     16 CL   UNL     1       5.085  14.845  22.338  0.00  0.00    +0.000 Cl
ATOM     17  C   UNL     1       3.222  14.188  20.502  0.00  0.00    +0.000 A 
ENDBRANCH   6  10
BRANCH   3  18
ATOM     18  C   UNL     1       2.142   8.602  18.552  0.00  0.00    +0.000 A 
ATOM     19  C   UNL     1       3.091   8.402  17.539  0.00  0.00    +0.000 A 
ATOM     20  C   UNL     1       3.728   7.167  17.410  0.00  0.00    +0.000 A 
ATOM     21  C   UNL     1       3.373   6.113  18.253  0.00  0.00    +0.000 A 
ATOM     22  C   UNL     1       2.413   6.287  19.259  0.00  0.00    +0.000 A 
ATOM     23  C   UNL     1       1.879   7.559  19.455  0.00  0.00    +0.000 A 
BRANCH  22  24
ATOM     24  C   UNL     1       2.065   5.106  20.100  0.00  0.00    +0.000 C 
ATOM     25  O   UNL     1       2.256   5.236  21.308  0.00  0.00    +0.000 OA
ATOM     26  N   UNL     1       1.592   3.896  19.562  0.00  0.00    +0.000 N 
ATOM     27  C   UNL     1       1.324   3.581  18.161  0.00  0.00    +0.000 C 
ATOM     28  C   UNL     1       1.239   2.836  20.496  0.00  0.00    +0.000 C 
ENDBRANCH  22  24
ENDBRANCH   3  18
BRANCH   1  32
ATOM     29  C   UNL     1      -4.486  10.852  17.186  0.00  0.00    +0.000 C 
ATOM     30  C   UNL     1      -2.993  10.908  17.022  0.00  0.00    +0.000 C 
ATOM     31  O   UNL     1      -2.492  11.046  15.907  0.00  0.00    +0.000 OA
ATOM     32  N   UNL     1      -2.299  10.797  18.214  0.00  0.00    +0.000 N 
ATOM     33  H   UNL     1      -2.792  10.438  19.027  0.00  0.00    +0.000 HD
ENDBRANCH   1  32
TORSDOF 4
ENDMDL
MODEL 5
REMARK VINA RESULT:      -7.9      4.325      8.816
REMARK  Name = 
REMARK  7 active torsions:
REMARK  status: ('A' for Active; 'I' for Inactive)
REMARK    1  A    between atoms: C_1  and  C_2
REMARK    2  A    between atoms: N_4  and  C_5
REMARK    3  A    between atoms: C_7  and  C_8
REMARK    4  A    between atoms: C_12  and  C_13
REMARK    5  A    between atoms: N_15  and  C_16
REMARK    6  A    between atoms: N_15  and  C_17
REMARK    7  A    between atoms: C_21  and  C_22
REMARK                            x       y       z     vdW  Elec       q    Type
REMARK                         _______ _______ _______ _____ _____    ______ ____
ROOT
ATOM      1  C   UNL     1      -0.955  10.512  18.128  0.00  0.00    +0.000 A 
ATOM      2  C   UNL     1      -0.125   9.453  18.035  0.00  0.00    +0.000 A 
ATOM      3  C   UNL     1       1.301   9.514  18.345  0.00  0.00    +0.000 A 
ATOM      4  C   UNL     1       1.787  10.708  18.739  0.00  0.00    +0.000 A 
ATOM      5  N   UNL     1       0.963  11.841  18.756  0.00  0.00    +0.000 N 
ATOM      6  C   UNL     1       1.251  13.175  19.051  0.00  0.00    +0.000 A 
ATOM      7  C   UNL     1       0.025  13.815  18.921  0.00  0.00    +0.000 A 
ATOM      8  N   UNL     1      -0.976  12.966  18.540  0.00  0.00    +0.000 NA
ATOM      9  C   UNL     1      -0.399  11.786  18.446  0.00  0.00    +0.000 A 
ENDROOT
BRANCH   6  10
ATOM     10  C   UNL     1       2.553  13.751  19.420  0.00  0.00    +0.000 A 
ATOM     11  C   UNL     1       2.842  14.004  20.773  0.00  0.00    +0.000 A 
ATOM     12  C   UNL     1       4.054  14.590  21.156  0.00  0.00    +0.000 A 
ATOM     13  C   UNL     1       4.998  14.911  20.190  0.00  0.00    +0.000 A 
ATOM     14  F   UNL     1       6.155  15.470  20.575  0.00  0.00    +0.000 F 
ATOM     15  C   UNL     1       4.736  14.668  18.847  0.00  0.00    +0.000 A 
ATOM     16 CL   UNL     1       5.904  15.047  17.638  0.00  0.00    +0.000 Cl
ATOM     17  C   UNL     1       3.511  14.115  18.462  0.00  0.00    +0.000 A 
ENDBRANCH   6  10
BRANCH   3  18
ATOM     18  C   UNL     1       2.168   8.315  18.191  0.00  0.00    +0.000 A 
ATOM     19  C   UNL     1       3.407   8.382  17.537  0.00  0.00    +0.000 A 
ATOM     20  C   UNL     1       4.111   7.212  17.251  0.00  0.00    +0.000 A 
ATOM     21  C   UNL     1       3.551   5.972  17.561  0.00  0.00    +0.000 A 
ATOM     22  C   UNL     1       2.306   5.883  18.197  0.00  0.00    +0.000 A 
ATOM     23  C   UNL     1       1.673   7.062  18.589  0.00  0.00    +0.000 A 
BRANCH  22  24
ATOM     24  C   UNL     1       1.759   4.522  18.468  0.00  0.00    +0.000 C 
ATOM     25  O   UNL     1       1.292   3.931  17.496  0.00  0.00    +0.000 OA
ATOM     26  N   UNL     1       1.728   3.953  19.753  0.00  0.00    +0.000 N 
ATOM     27  C   UNL     1       2.228   4.524  21.000  0.00  0.00    +0.000 C 
ATOM     28  C   UNL     1       1.214   2.595  19.875  0.00  0.00    +0.000 C 
ENDBRANCH  22  24
ENDBRANCH   3  18
BRANCH   1  32
ATOM     29  C   UNL     1      -4.479  10.600  16.880  0.00  0.00    +0.000 C 
ATOM     30  C   UNL     1      -2.986  10.727  16.769  0.00  0.00    +0.000 C 
ATOM     31  O   UNL     1      -2.465  11.068  15.708  0.00  0.00    +0.000 OA
ATOM     32  N   UNL     1      -2.316  10.435  17.945  0.00  0.00    +0.000 N 
ATOM     33  H   UNL     1      -2.814   9.929  18.671  0.00  0.00    +0.000 HD
ENDBRANCH   1  32
TORSDOF 4
ENDMDL
MODEL 6
REMARK VINA RESULT:      -7.9      4.361      8.841
REMARK  Name = 
REMARK  7 active torsions:
REMARK  status: ('A' for Active; 'I' for Inactive)
REMARK    1  A    between atoms: C_1  and  C_2
REMARK    2  A    between atoms: N_4  and  C_5
REMARK    3  A    between atoms: C_7  and  C_8
REMARK    4  A    between atoms: C_12  and  C_13
REMARK    5  A    between atoms: N_15  and  C_16
REMARK    6  A    between atoms: N_15  and  C_17
REMARK    7  A    between atoms: C_21  and  C_22
REMARK                            x       y       z     vdW  Elec       q    Type
REMARK                         _______ _______ _______ _____ _____    ______ ____
ROOT
ATOM      1  C   UNL     1      -0.959  10.791  18.360  0.00  0.00    +0.000 A 
ATOM      2  C   UNL     1      -0.146   9.714  18.349  0.00  0.00    +0.000 A 
ATOM      3  C   UNL     1       1.280   9.775  18.660  0.00  0.00    +0.000 A 
ATOM      4  C   UNL     1       1.784  10.988  18.964  0.00  0.00    +0.000 A 
ATOM      5  N   UNL     1       0.978  12.132  18.894  0.00  0.00    +0.000 N 
ATOM      6  C   UNL     1       1.288  13.479  19.088  0.00  0.00    +0.000 A 
ATOM      7  C   UNL     1       0.072  14.128  18.907  0.00  0.00    +0.000 A 
ATOM      8  N   UNL     1      -0.941  13.269  18.586  0.00  0.00    +0.000 NA
ATOM      9  C   UNL     1      -0.383  12.076  18.584  0.00  0.00    +0.000 A 
ENDROOT
BRANCH   6  10
ATOM     10  C   UNL     1       2.598  14.061  19.418  0.00  0.00    +0.000 A 
ATOM     11  C   UNL     1       2.835  14.549  20.716  0.00  0.00    +0.000 A 
ATOM     12  C   UNL     1       4.055  15.146  21.052  0.00  0.00    +0.000 A 
ATOM     13  C   UNL     1       5.059  15.244  20.098  0.00  0.00    +0.000 A 
ATOM     14  F   UNL     1       6.223  15.816  20.438  0.00  0.00    +0.000 F 
ATOM     15  C   UNL     1       4.849  14.766  18.810  0.00  0.00    +0.000 A 
ATOM     16 CL   UNL     1       6.090  14.866  17.619  0.00  0.00    +0.000 Cl
ATOM     17  C   UNL     1       3.618  14.201  18.465  0.00  0.00    +0.000 A 
ENDBRANCH   6  10
BRANCH   3  18
ATOM     18  C   UNL     1       2.128   8.555  18.599  0.00  0.00    +0.000 A 
ATOM     19  C   UNL     1       3.070   8.363  17.578  0.00  0.00    +0.000 A 
ATOM     20  C   UNL     1       3.719   7.135  17.446  0.00  0.00    +0.000 A 
ATOM     21  C   UNL     1       3.381   6.079  18.293  0.00  0.00    +0.000 A 
ATOM     22  C   UNL     1       2.429   6.243  19.307  0.00  0.00    +0.000 A 
ATOM     23  C   UNL     1       1.883   7.510  19.506  0.00  0.00    +0.000 A 
BRANCH  22  24
ATOM     24  C   UNL     1       2.100   5.060  20.152  0.00  0.00    +0.000 C 
ATOM     25  O   UNL     1       2.352   5.173  21.351  0.00  0.00    +0.000 OA
ATOM     26  N   UNL     1       1.580   3.865  19.626  0.00  0.00    +0.000 N 
ATOM     27  C   UNL     1       1.238   3.570  18.237  0.00  0.00    +0.000 C 
ATOM     28  C   UNL     1       1.253   2.801  20.566  0.00  0.00    +0.000 C 
ENDBRANCH  22  24
ENDBRANCH   3  18
BRANCH   1  32
ATOM     29  C   UNL     1      -4.475  10.797  17.085  0.00  0.00    +0.000 C 
ATOM     30  C   UNL     1      -2.978  10.875  16.970  0.00  0.00    +0.000 C 
ATOM     31  O   UNL     1      -2.445  11.063  15.878  0.00  0.00    +0.000 OA
ATOM     32  N   UNL     1      -2.321  10.722  18.178  0.00  0.00    +0.000 N 
ATOM     33  H   UNL     1      -2.834  10.326  18.960  0.00  0.00    +0.000 HD
ENDBRANCH   1  32
TORSDOF 4
ENDMDL
MODEL 7
REMARK VINA RESULT:      -7.9      4.522      8.890
REMARK  Name = 
REMARK  7 active torsions:
REMARK  status: ('A' for Active; 'I' for Inactive)
REMARK    1  A    between atoms: C_1  and  C_2
REMARK    2  A    between atoms: N_4  and  C_5
REMARK    3  A    between atoms: C_7  and  C_8
REMARK    4  A    between atoms: C_12  and  C_13
REMARK    5  A    between atoms: N_15  and  C_16
REMARK    6  A    between atoms: N_15  and  C_17
REMARK    7  A    between atoms: C_21  and  C_22
REMARK                            x       y       z     vdW  Elec       q    Type
REMARK                         _______ _______ _______ _____ _____    ______ ____
ROOT
ATOM      1  C   UNL     1      -0.912  10.623  18.187  0.00  0.00    +0.000 A 
ATOM      2  C   UNL     1      -0.091   9.556  18.096  0.00  0.00    +0.000 A 
ATOM      3  C   UNL     1       1.349   9.622  18.331  0.00  0.00    +0.000 A 
ATOM      4  C   UNL     1       1.858  10.829  18.650  0.00  0.00    +0.000 A 
ATOM      5  N   UNL     1       1.040  11.966  18.662  0.00  0.00    +0.000 N 
ATOM      6  C   UNL     1       1.348  13.309  18.886  0.00  0.00    +0.000 A 
ATOM      7  C   UNL     1       0.119  13.950  18.792  0.00  0.00    +0.000 A 
ATOM      8  N   UNL     1      -0.903  13.092  18.497  0.00  0.00    +0.000 NA
ATOM      9  C   UNL     1      -0.336  11.906  18.424  0.00  0.00    +0.000 A 
ENDROOT
BRANCH   6  10
ATOM     10  C   UNL     1       2.668  13.893  19.165  0.00  0.00    +0.000 A 
ATOM     11  C   UNL     1       3.512  14.246  18.097  0.00  0.00    +0.000 A 
ATOM     12  C   UNL     1       4.791  14.765  18.326  0.00  0.00    +0.000 A 
ATOM     13  C   UNL     1       5.233  14.954  19.628  0.00  0.00    +0.000 A 
ATOM     14  F   UNL     1       6.461  15.455  19.830  0.00  0.00    +0.000 F 
ATOM     15  C   UNL     1       4.417  14.615  20.701  0.00  0.00    +0.000 A 
ATOM     16 CL   UNL     1       4.945  14.857  22.322  0.00  0.00    +0.000 Cl
ATOM     17  C   UNL     1       3.153  14.064  20.471  0.00  0.00    +0.000 A 
ENDBRANCH   6  10
BRANCH   3  18
ATOM     18  C   UNL     1       2.203   8.413  18.184  0.00  0.00    +0.000 A 
ATOM     19  C   UNL     1       3.448   8.466  17.541  0.00  0.00    +0.000 A 
ATOM     20  C   UNL     1       4.141   7.288  17.259  0.00  0.00    +0.000 A 
ATOM     21  C   UNL     1       3.563   6.054  17.563  0.00  0.00    +0.000 A 
ATOM     22  C   UNL     1       2.311   5.979  18.188  0.00  0.00    +0.000 A 
ATOM     23  C   UNL     1       1.690   7.165  18.576  0.00  0.00    +0.000 A 
BRANCH  22  24
ATOM     24  C   UNL     1       1.746   4.625  18.454  0.00  0.00    +0.000 C 
ATOM     25  O   UNL     1       1.253   4.053  17.483  0.00  0.00    +0.000 OA
ATOM     26  N   UNL     1       1.725   4.042  19.733  0.00  0.00    +0.000 N 
ATOM     27  C   UNL     1       2.255   4.592  20.978  0.00  0.00    +0.000 C 
ATOM     28  C   UNL     1       1.191   2.692  19.849  0.00  0.00    +0.000 C 
ENDBRANCH  22  24
ENDBRANCH   3  18
BRANCH   1  32
ATOM     29  C   UNL     1      -4.492  10.660  17.109  0.00  0.00    +0.000 C 
ATOM     30  C   UNL     1      -3.006  10.767  16.918  0.00  0.00    +0.000 C 
ATOM     31  O   UNL     1      -2.536  11.032  15.812  0.00  0.00    +0.000 OA
ATOM     32  N   UNL     1      -2.280  10.546  18.076  0.00  0.00    +0.000 N 
ATOM     33  H   UNL     1      -2.745  10.093  18.857  0.00  0.00    +0.000 HD
ENDBRANCH   1  32
TORSDOF 4
ENDMDL
MODEL 8
REMARK VINA RESULT:      -7.8      9.259     12.058
REMARK  Name = 
REMARK  7 active torsions:
REMARK  status: ('A' for Active; 'I' for Inactive)
REMARK    1  A    between atoms: C_1  and  C_2
REMARK    2  A    between atoms: N_4  and  C_5
REMARK    3  A    between atoms: C_7  and  C_8
REMARK    4  A    between atoms: C_12  and  C_13
REMARK    5  A    between atoms: N_15  and  C_16
REMARK    6  A    between atoms: N_15  and  C_17
REMARK    7  A    between atoms: C_21  and  C_22
REMARK                            x       y       z     vdW  Elec       q    Type
REMARK                         _______ _______ _______ _____ _____    ______ ____
ROOT
ATOM      1  C   UNL     1      -4.151  11.470  16.988  0.00  0.00    +0.000 A 
ATOM      2  C   UNL     1      -2.936  11.534  17.571  0.00  0.00    +0.000 A 
ATOM      3  C   UNL     1      -2.735  11.817  18.991  0.00  0.00    +0.000 A 
ATOM      4  C   UNL     1      -3.842  12.027  19.731  0.00  0.00    +0.000 A 
ATOM      5  N   UNL     1      -5.107  12.055  19.129  0.00  0.00    +0.000 N 
ATOM      6  C   UNL     1      -6.367  12.320  19.666  0.00  0.00    +0.000 A 
ATOM      7  C   UNL     1      -7.226  12.172  18.585  0.00  0.00    +0.000 A 
ATOM      8  N   UNL     1      -6.568  11.865  17.426  0.00  0.00    +0.000 NA
ATOM      9  C   UNL     1      -5.299  11.797  17.769  0.00  0.00    +0.000 A 
ENDROOT
BRANCH   6  10
ATOM     10  C   UNL     1      -6.695  12.665  21.058  0.00  0.00    +0.000 A 
ATOM     11  C   UNL     1      -7.541  11.823  21.802  0.00  0.00    +0.000 A 
ATOM     12  C   UNL     1      -7.907  12.143  23.114  0.00  0.00    +0.000 A 
ATOM     13  C   UNL     1      -7.414  13.300  23.704  0.00  0.00    +0.000 A 
ATOM     14  F   UNL     1      -7.773  13.589  24.963  0.00  0.00    +0.000 F 
ATOM     15  C   UNL     1      -6.574  14.146  22.989  0.00  0.00    +0.000 A 
ATOM     16 CL   UNL     1      -5.943  15.577  23.711  0.00  0.00    +0.000 Cl
ATOM     17  C   UNL     1      -6.238  13.844  21.667  0.00  0.00    +0.000 A 
ENDBRANCH   6  10
BRANCH   3  18
ATOM     18  C   UNL     1      -1.366  11.905  19.565  0.00  0.00    +0.000 A 
ATOM     19  C   UNL     1      -1.111  11.594  20.909  0.00  0.00    +0.000 A 
ATOM     20  C   UNL     1       0.143  11.857  21.462  0.00  0.00    +0.000 A 
ATOM     21  C   UNL     1       1.121  12.488  20.693  0.00  0.00    +0.000 A 
ATOM     22  C   UNL     1       0.880  12.825  19.355  0.00  0.00    +0.000 A 
ATOM     23  C   UNL     1      -0.331  12.442  18.781  0.00  0.00    +0.000 A 
BRANCH  22  24
ATOM     24  C   UNL     1       1.964  13.524  18.606  0.00  0.00    +0.000 C 
ATOM     25  O   UNL     1       2.803  12.796  18.078  0.00  0.00    +0.000 OA
ATOM     26  N   UNL     1       2.065  14.924  18.537  0.00  0.00    +0.000 N 
ATOM     27  C   UNL     1       1.165  15.918  19.114  0.00  0.00    +0.000 C 
ATOM     28  C   UNL     1       3.142  15.482  17.730  0.00  0.00    +0.000 C 
ENDBRANCH  22  24
ENDBRANCH   3  18
BRANCH   1  32
ATOM     29  C   UNL     1      -4.019   9.993  13.555  0.00  0.00    +0.000 C 
ATOM     30  C   UNL     1      -3.597  10.165  14.987  0.00  0.00    +0.000 C 
ATOM     31  O   UNL     1      -2.658   9.514  15.444  0.00  0.00    +0.000 OA
ATOM     32  N   UNL     1      -4.352  11.095  15.680  0.00  0.00    +0.000 N 
ATOM     33  H   UNL     1      -5.244  11.381  15.289  0.00  0.00    +0.000 HD
ENDBRANCH   1  32
TORSDOF 4
ENDMDL
MODEL 9
REMARK VINA RESULT:      -7.8      4.694      7.773
REMARK  Name = 
REMARK  7 active torsions:
REMARK  status: ('A' for Active; 'I' for Inactive)
REMARK    1  A    between atoms: C_1  and  C_2
REMARK    2  A    between atoms: N_4  and  C_5
REMARK    3  A    between atoms: C_7  and  C_8
REMARK    4  A    between atoms: C_12  and  C_13
REMARK    5  A    between atoms: N_15  and  C_16
REMARK    6  A    between atoms: N_15  and  C_17
REMARK    7  A    between atoms: C_21  and  C_22
REMARK                            x       y       z     vdW  Elec       q    Type
REMARK                         _______ _______ _______ _____ _____    ______ ____
ROOT
ATOM      1  C   UNL     1      -0.877  12.220  22.518  0.00  0.00    +0.000 A 
ATOM      2  C   UNL     1      -0.285  13.234  21.853  0.00  0.00    +0.000 A 
ATOM      3  C   UNL     1       0.639  13.039  20.739  0.00  0.00    +0.000 A 
ATOM      4  C   UNL     1       0.900  11.766  20.380  0.00  0.00    +0.000 A 
ATOM      5  N   UNL     1       0.367  10.697  21.113  0.00  0.00    +0.000 N 
ATOM      6  C   UNL     1       0.549   9.320  20.980  0.00  0.00    +0.000 A 
ATOM      7  C   UNL     1      -0.257   8.781  21.975  0.00  0.00    +0.000 A 
ATOM      8  N   UNL     1      -0.890   9.739  22.717  0.00  0.00    +0.000 NA
ATOM      9  C   UNL     1      -0.507  10.882  22.187  0.00  0.00    +0.000 A 
ENDROOT
BRANCH   6  10
ATOM     10  C   UNL     1       1.394   8.616  20.004  0.00  0.00    +0.000 A 
ATOM     11  C   UNL     1       1.551   9.146  18.710  0.00  0.00    +0.000 A 
ATOM     12  C   UNL     1       2.313   8.481  17.744  0.00  0.00    +0.000 A 
ATOM     13  C   UNL     1       2.945   7.288  18.067  0.00  0.00    +0.000 A 
ATOM     14  F   UNL     1       3.674   6.666  17.129  0.00  0.00    +0.000 F 
ATOM     15  C   UNL     1       2.808   6.746  19.339  0.00  0.00    +0.000 A 
ATOM     16 CL   UNL     1       3.598   5.274  19.760  0.00  0.00    +0.000 Cl
ATOM     17  C   UNL     1       2.017   7.392  20.294  0.00  0.00    +0.000 A 
ENDBRANCH   6  10
BRANCH   3  18
ATOM     18  C   UNL     1       1.283  14.201  20.069  0.00  0.00    +0.000 A 
ATOM     19  C   UNL     1       0.525  15.204  19.449  0.00  0.00    +0.000 A 
ATOM     20  C   UNL     1       1.155  16.181  18.677  0.00  0.00    +0.000 A 
ATOM     21  C   UNL     1       2.534  16.120  18.473  0.00  0.00    +0.000 A 
ATOM     22  C   UNL     1       3.307  15.114  19.068  0.00  0.00    +0.000 A 
ATOM     23  C   UNL     1       2.681  14.221  19.936  0.00  0.00    +0.000 A 
BRANCH  22  24
ATOM     24  C   UNL     1       4.770  15.097  18.778  0.00  0.00    +0.000 C 
ATOM     25  O   UNL     1       5.117  14.404  17.824  0.00  0.00    +0.000 OA
ATOM     26  N   UNL     1       5.712  15.784  19.563  0.00  0.00    +0.000 N 
ATOM     27  C   UNL     1       5.465  16.634  20.725  0.00  0.00    +0.000 C 
ATOM     28  C   UNL     1       7.106  15.729  19.143  0.00  0.00    +0.000 C 
ENDBRANCH  22  24
ENDBRANCH   3  18
BRANCH   1  32
ATOM     29  C   UNL     1      -3.996  12.680  24.528  0.00  0.00    +0.000 C 
ATOM     30  C   UNL     1      -3.199  12.418  23.282  0.00  0.00    +0.000 C 
ATOM     31  O   UNL     1      -3.765  12.248  22.203  0.00  0.00    +0.000 OA
ATOM     32  N   UNL     1      -1.831  12.398  23.492  0.00  0.00    +0.000 N 
ATOM     33  H   UNL     1      -1.491  12.297  24.443  0.00  0.00    +0.000 HD
ENDBRANCH   1  32
TORSDOF 4
ENDMDL
