MODEL 1
REMARK VINA RESULT:      -7.2      0.000      0.000
REMARK  Name = 
REMARK  3 active torsions:
REMARK  status: ('A' for Active; 'I' for Inactive)
REMARK    1  A    between atoms: C_1  and  C_2
REMARK    2  A    between atoms: C_4  and  C_5
REMARK    3  A    between atoms: N_14  and  C_15
REMARK                            x       y       z     vdW  Elec       q    Type
REMARK                         _______ _______ _______ _____ _____    ______ ____
ROOT
ATOM      1  C   UNL     1       6.212   4.209  14.079  0.00  0.00    +0.000 C 
ATOM      2  C   UNL     1       6.298   4.989  15.379  0.00  0.00    +0.000 C 
ATOM      3  C   UNL     1       6.271   4.130  16.652  0.00  0.00    +0.000 C 
ATOM      4  C   UNL     1       5.445   4.909  17.735  0.00  0.00    +0.000 C 
ATOM      5  C   UNL     1       6.215   4.980  19.069  0.00  0.00    +0.000 C 
ATOM      6  C   UNL     1       4.060   4.274  18.003  0.00  0.00    +0.000 C 
ATOM      7  C   UNL     1       2.904   4.970  17.992  0.00  0.00    +0.000 C 
ATOM      8  C   UNL     1       1.548   4.356  18.298  0.00  0.00    +0.000 C 
ATOM      9  C   UNL     1       1.539   2.836  18.297  0.00  0.00    +0.000 C 
ATOM     10  C   UNL     1       2.762   2.307  19.025  0.00  0.00    +0.000 C 
ATOM     11  C   UNL     1       4.037   2.782  18.326  0.00  0.00    +0.000 C 
ATOM     12  C   UNL     1       2.825   6.432  17.678  0.00  0.00    +0.000 C 
ATOM     13  C   UNL     1       4.150   7.169  17.592  0.00  0.00    +0.000 C 
ATOM     14  N   UNL     1       5.327   6.343  17.084  0.00  0.00    +0.000 N 
ATOM     15  C   UNL     1       6.573   7.218  17.297  0.00  0.00    +0.000 C 
ATOM     16  C   UNL     1       5.178   5.991  15.593  0.00  0.00    +0.000 C 
ENDROOT
TORSDOF 0
ENDMDL
MODEL 2
REMARK VINA RESULT:      -6.6      1.855      3.785
REMARK  Name = 
REMARK  3 active torsions:
REMARK  status: ('A' for Active; 'I' for Inactive)
REMARK    1  A    between atoms: C_1  and  C_2
REMARK    2  A    between atoms: C_4  and  C_5
REMARK    3  A    between atoms: N_14  and  C_15
REMARK                            x       y       z     vdW  Elec       q    Type
REMARK                         _______ _______ _______ _____ _____    ______ ____
ROOT
ATOM      1  C   UNL     1       8.398   8.269  18.579  0.00  0.00    +0.000 C 
ATOM      2  C   UNL     1       7.775   7.099  17.838  0.00  0.00    +0.000 C 
ATOM      3  C   UNL     1       6.563   7.458  16.965  0.00  0.00    +0.000 C 
ATOM      4  C   UNL     1       5.536   6.276  17.069  0.00  0.00    +0.000 C 
ATOM      5  C   UNL     1       5.076   5.822  15.668  0.00  0.00    +0.000 C 
ATOM      6  C   UNL     1       4.284   6.643  17.899  0.00  0.00    +0.000 C 
ATOM      7  C   UNL     1       3.811   5.886  18.911  0.00  0.00    +0.000 C 
ATOM      8  C   UNL     1       2.556   6.223  19.700  0.00  0.00    +0.000 C 
ATOM      9  C   UNL     1       2.051   7.641  19.489  0.00  0.00    +0.000 C 
ATOM     10  C   UNL     1       2.106   8.000  18.014  0.00  0.00    +0.000 C 
ATOM     11  C   UNL     1       3.547   7.921  17.507  0.00  0.00    +0.000 C 
ATOM     12  C   UNL     1       4.468   4.623  19.373  0.00  0.00    +0.000 C 
ATOM     13  C   UNL     1       5.586   4.092  18.494  0.00  0.00    +0.000 C 
ATOM     14  N   UNL     1       6.402   5.152  17.761  0.00  0.00    +0.000 N 
ATOM     15  C   UNL     1       7.304   4.382  16.783  0.00  0.00    +0.000 C 
ATOM     16  C   UNL     1       7.264   5.982  18.729  0.00  0.00    +0.000 C 
ENDROOT
TORSDOF 0
ENDMDL
MODEL 3
REMARK VINA RESULT:      -6.5      1.378      3.450
REMARK  Name = 
REMARK  3 active torsions:
REMARK  status: ('A' for Active; 'I' for Inactive)
REMARK    1  A    between atoms: C_1  and  C_2
REMARK    2  A    between atoms: C_4  and  C_5
REMARK    3  A    between atoms: N_14  and  C_15
REMARK                            x       y       z     vdW  Elec       q    Type
REMARK                         _______ _______ _______ _____ _____    ______ ____
ROOT
ATOM      1  C   UNL     1       8.188   6.207  19.206  0.00  0.00    +0.000 C 
ATOM      2  C   UNL     1       7.566   5.889  17.858  0.00  0.00    +0.000 C 
ATOM      3  C   UNL     1       6.558   6.931  17.349  0.00  0.00    +0.000 C 
ATOM      4  C   UNL     1       5.402   6.159  16.621  0.00  0.00    +0.000 C 
ATOM      5  C   UNL     1       5.126   6.765  15.230  0.00  0.00    +0.000 C 
ATOM      6  C   UNL     1       4.081   6.162  17.427  0.00  0.00    +0.000 C 
ATOM      7  C   UNL     1       3.370   5.048  17.698  0.00  0.00    +0.000 C 
ATOM      8  C   UNL     1       2.050   5.055  18.452  0.00  0.00    +0.000 C 
ATOM      9  C   UNL     1       1.747   6.363  19.165  0.00  0.00    +0.000 C 
ATOM     10  C   UNL     1       2.080   7.538  18.261  0.00  0.00    +0.000 C 
ATOM     11  C   UNL     1       3.565   7.519  17.899  0.00  0.00    +0.000 C 
ATOM     12  C   UNL     1       3.798   3.675  17.286  0.00  0.00    +0.000 C 
ATOM     13  C   UNL     1       4.977   3.602  16.332  0.00  0.00    +0.000 C 
ATOM     14  N   UNL     1       6.014   4.710  16.486  0.00  0.00    +0.000 N 
ATOM     15  C   UNL     1       6.970   4.556  15.291  0.00  0.00    +0.000 C 
ATOM     16  C   UNL     1       6.796   4.582  17.805  0.00  0.00    +0.000 C 
ENDROOT
TORSDOF 0
ENDMDL
MODEL 4
REMARK VINA RESULT:      -6.4      1.849      4.888
REMARK  Name = 
REMARK  3 active torsions:
REMARK  status: ('A' for Active; 'I' for Inactive)
REMARK    1  A    between atoms: C_1  and  C_2
REMARK    2  A    between atoms: C_4  and  C_5
REMARK    3  A    between atoms: N_14  and  C_15
REMARK                            x       y       z     vdW  Elec       q    Type
REMARK                         _______ _______ _______ _____ _____    ______ ____
ROOT
ATOM      1  C   UNL     1       1.508   6.498  20.540  0.00  0.00    +0.000 C 
ATOM      2  C   UNL     1       1.922   5.105  20.097  0.00  0.00    +0.000 C 
ATOM      3  C   UNL     1       3.336   4.684  20.525  0.00  0.00    +0.000 C 
ATOM      4  C   UNL     1       3.957   3.845  19.354  0.00  0.00    +0.000 C 
ATOM      5  C   UNL     1       4.547   2.520  19.879  0.00  0.00    +0.000 C 
ATOM      6  C   UNL     1       5.068   4.607  18.594  0.00  0.00    +0.000 C 
ATOM      7  C   UNL     1       5.101   4.735  17.251  0.00  0.00    +0.000 C 
ATOM      8  C   UNL     1       6.215   5.448  16.500  0.00  0.00    +0.000 C 
ATOM      9  C   UNL     1       7.121   6.290  17.384  0.00  0.00    +0.000 C 
ATOM     10  C   UNL     1       7.464   5.529  18.652  0.00  0.00    +0.000 C 
ATOM     11  C   UNL     1       6.191   5.209  19.436  0.00  0.00    +0.000 C 
ATOM     12  C   UNL     1       4.043   4.188  16.344  0.00  0.00    +0.000 C 
ATOM     13  C   UNL     1       3.023   3.266  16.988  0.00  0.00    +0.000 C 
ATOM     14  N   UNL     1       2.695   3.570  18.446  0.00  0.00    +0.000 N 
ATOM     15  C   UNL     1       1.833   2.393  18.933  0.00  0.00    +0.000 C 
ATOM     16  C   UNL     1       1.917   4.889  18.594  0.00  0.00    +0.000 C 
ENDROOT
TORSDOF 0
ENDMDL
MODEL 5
REMARK VINA RESULT:      -6.3      2.123      4.280
REMARK  Name = 
REMARK  3 active torsions:
REMARK  status: ('A' for Active; 'I' for Inactive)
REMARK    1  A    between atoms: C_1  and  C_2
REMARK    2  A    between atoms: C_4  and  C_5
REMARK    3  A    between atoms: N_14  and  C_15
REMARK                            x       y       z     vdW  Elec       q    Type
REMARK                         _______ _______ _______ _____ _____    ______ ____
ROOT
ATOM      1  C   UNL     1       6.787   4.795  18.127  0.00  0.00    +0.000 C 
ATOM      2  C   UNL     1       5.447   4.081  18.110  0.00  0.00    +0.000 C 
ATOM      3  C   UNL     1       4.338   4.807  17.332  0.00  0.00    +0.000 C 
ATOM      4  C   UNL     1       2.992   4.589  18.109  0.00  0.00    +0.000 C 
ATOM      5  C   UNL     1       1.881   4.101  17.158  0.00  0.00    +0.000 C 
ATOM      6  C   UNL     1       2.498   5.871  18.821  0.00  0.00    +0.000 C 
ATOM      7  C   UNL     1       2.138   5.911  20.121  0.00  0.00    +0.000 C 
ATOM      8  C   UNL     1       1.612   7.159  20.811  0.00  0.00    +0.000 C 
ATOM      9  C   UNL     1       1.826   8.441  20.025  0.00  0.00    +0.000 C 
ATOM     10  C   UNL     1       1.489   8.217  18.561  0.00  0.00    +0.000 C 
ATOM     11  C   UNL     1       2.393   7.135  17.972  0.00  0.00    +0.000 C 
ATOM     12  C   UNL     1       2.214   4.727  21.035  0.00  0.00    +0.000 C 
ATOM     13  C   UNL     1       2.505   3.391  20.375  0.00  0.00    +0.000 C 
ATOM     14  N   UNL     1       3.387   3.453  19.132  0.00  0.00    +0.000 N 
ATOM     15  C   UNL     1       3.353   2.041  18.525  0.00  0.00    +0.000 C 
ATOM     16  C   UNL     1       4.835   3.843  19.478  0.00  0.00    +0.000 C 
ENDROOT
TORSDOF 0
ENDMDL
MODEL 6
REMARK VINA RESULT:      -6.2      1.848      4.699
REMARK  Name = 
REMARK  3 active torsions:
REMARK  status: ('A' for Active; 'I' for Inactive)
REMARK    1  A    between atoms: C_1  and  C_2
REMARK    2  A    between atoms: C_4  and  C_5
REMARK    3  A    between atoms: N_14  and  C_15
REMARK                            x       y       z     vdW  Elec       q    Type
REMARK                         _______ _______ _______ _____ _____    ______ ____
ROOT
ATOM      1  C   UNL     1       2.208   7.326  19.653  0.00  0.00    +0.000 C 
ATOM      2  C   UNL     1       2.315   5.812  19.696  0.00  0.00    +0.000 C 
ATOM      3  C   UNL     1       3.712   5.271  20.036  0.00  0.00    +0.000 C 
ATOM      4  C   UNL     1       3.944   3.978  19.177  0.00  0.00    +0.000 C 
ATOM      5  C   UNL     1       4.436   2.813  20.060  0.00  0.00    +0.000 C 
ATOM      6  C   UNL     1       4.966   4.193  18.036  0.00  0.00    +0.000 C 
ATOM      7  C   UNL     1       4.731   3.855  16.751  0.00  0.00    +0.000 C 
ATOM      8  C   UNL     1       5.750   4.025  15.636  0.00  0.00    +0.000 C 
ATOM      9  C   UNL     1       6.934   4.904  16.004  0.00  0.00    +0.000 C 
ATOM     10  C   UNL     1       7.426   4.557  17.398  0.00  0.00    +0.000 C 
ATOM     11  C   UNL     1       6.316   4.792  18.423  0.00  0.00    +0.000 C 
ATOM     12  C   UNL     1       3.438   3.271  16.274  0.00  0.00    +0.000 C 
ATOM     13  C   UNL     1       2.456   2.852  17.354  0.00  0.00    +0.000 C 
ATOM     14  N   UNL     1       2.492   3.687  18.630  0.00  0.00    +0.000 N 
ATOM     15  C   UNL     1       1.593   2.949  19.637  0.00  0.00    +0.000 C 
ATOM     16  C   UNL     1       1.960   5.112  18.397  0.00  0.00    +0.000 C 
ENDROOT
TORSDOF 0
ENDMDL
MODEL 7
REMARK VINA RESULT:      -6.1      1.498      3.140
REMARK  Name = 
REMARK  3 active torsions:
REMARK  status: ('A' for Active; 'I' for Inactive)
REMARK    1  A    between atoms: C_1  and  C_2
REMARK    2  A    between atoms: C_4  and  C_5
REMARK    3  A    between atoms: N_14  and  C_15
REMARK                            x       y       z     vdW  Elec       q    Type
REMARK                         _______ _______ _______ _____ _____    ______ ____
ROOT
ATOM      1  C   UNL     1       7.590   5.493  19.677  0.00  0.00    +0.000 C 
ATOM      2  C   UNL     1       6.537   5.692  18.601  0.00  0.00    +0.000 C 
ATOM      3  C   UNL     1       5.191   6.235  19.106  0.00  0.00    +0.000 C 
ATOM      4  C   UNL     1       4.056   5.535  18.280  0.00  0.00    +0.000 C 
ATOM      5  C   UNL     1       3.063   6.574  17.720  0.00  0.00    +0.000 C 
ATOM      6  C   UNL     1       3.263   4.499  19.112  0.00  0.00    +0.000 C 
ATOM      7  C   UNL     1       3.031   3.234  18.704  0.00  0.00    +0.000 C 
ATOM      8  C   UNL     1       2.216   2.228  19.501  0.00  0.00    +0.000 C 
ATOM      9  C   UNL     1       1.953   2.641  20.940  0.00  0.00    +0.000 C 
ATOM     10  C   UNL     1       1.564   4.108  20.998  0.00  0.00    +0.000 C 
ATOM     11  C   UNL     1       2.697   4.975  20.448  0.00  0.00    +0.000 C 
ATOM     12  C   UNL     1       3.551   2.674  17.417  0.00  0.00    +0.000 C 
ATOM     13  C   UNL     1       4.173   3.673  16.457  0.00  0.00    +0.000 C 
ATOM     14  N   UNL     1       4.873   4.860  17.111  0.00  0.00    +0.000 N 
ATOM     15  C   UNL     1       5.215   5.826  15.964  0.00  0.00    +0.000 C 
ATOM     16  C   UNL     1       6.159   4.434  17.841  0.00  0.00    +0.000 C 
ENDROOT
TORSDOF 0
ENDMDL
MODEL 8
REMARK VINA RESULT:      -6.0      1.856      4.641
REMARK  Name = 
REMARK  3 active torsions:
REMARK  status: ('A' for Active; 'I' for Inactive)
REMARK    1  A    between atoms: C_1  and  C_2
REMARK    2  A    between atoms: C_4  and  C_5
REMARK    3  A    between atoms: N_14  and  C_15
REMARK                            x       y       z     vdW  Elec       q    Type
REMARK                         _______ _______ _______ _____ _____    ______ ____
ROOT
ATOM      1  C   UNL     1       4.757   1.712  20.753  0.00  0.00    +0.000 C 
ATOM      2  C   UNL     1       3.533   2.425  20.206  0.00  0.00    +0.000 C 
ATOM      3  C   UNL     1       3.409   2.413  18.674  0.00  0.00    +0.000 C 
ATOM      4  C   UNL     1       2.826   3.802  18.233  0.00  0.00    +0.000 C 
ATOM      5  C   UNL     1       1.631   3.617  17.276  0.00  0.00    +0.000 C 
ATOM      6  C   UNL     1       3.877   4.698  17.537  0.00  0.00    +0.000 C 
ATOM      7  C   UNL     1       4.114   5.980  17.887  0.00  0.00    +0.000 C 
ATOM      8  C   UNL     1       5.116   6.875  17.176  0.00  0.00    +0.000 C 
ATOM      9  C   UNL     1       6.068   6.133  16.253  0.00  0.00    +0.000 C 
ATOM     10  C   UNL     1       5.307   5.099  15.442  0.00  0.00    +0.000 C 
ATOM     11  C   UNL     1       4.647   4.080  16.373  0.00  0.00    +0.000 C 
ATOM     12  C   UNL     1       3.416   6.668  19.019  0.00  0.00    +0.000 C 
ATOM     13  C   UNL     1       2.240   5.926  19.628  0.00  0.00    +0.000 C 
ATOM     14  N   UNL     1       2.346   4.405  19.611  0.00  0.00    +0.000 N 
ATOM     15  C   UNL     1       0.971   3.886  20.063  0.00  0.00    +0.000 C 
ATOM     16  C   UNL     1       3.440   3.897  20.566  0.00  0.00    +0.000 C 
ENDROOT
TORSDOF 0
ENDMDL
MODEL 9
REMARK VINA RESULT:      -5.8      1.462      4.371
REMARK  Name = 
REMARK  3 active torsions:
REMARK  status: ('A' for Active; 'I' for Inactive)
REMARK    1  A    between atoms: C_1  and  C_2
REMARK    2  A    between atoms: C_4  and  C_5
REMARK    3  A    between atoms: N_14  and  C_15
REMARK                            x       y       z     vdW  Elec       q    Type
REMARK                         _______ _______ _______ _____ _____    ______ ____
ROOT
ATOM      1  C   UNL     1       2.082   8.220  17.647  0.00  0.00    +0.000 C 
ATOM      2  C   UNL     1       2.701   7.092  18.452  0.00  0.00    +0.000 C 
ATOM      3  C   UNL     1       4.236   7.030  18.406  0.00  0.00    +0.000 C 
ATOM      4  C   UNL     1       4.651   5.517  18.382  0.00  0.00    +0.000 C 
ATOM      5  C   UNL     1       5.725   5.224  19.449  0.00  0.00    +0.000 C 
ATOM      6  C   UNL     1       5.194   5.068  17.004  0.00  0.00    +0.000 C 
ATOM      7  C   UNL     1       4.751   3.975  16.348  0.00  0.00    +0.000 C 
ATOM      8  C   UNL     1       5.313   3.508  15.015  0.00  0.00    +0.000 C 
ATOM      9  C   UNL     1       6.184   4.537  14.313  0.00  0.00    +0.000 C 
ATOM     10  C   UNL     1       7.119   5.196  15.310  0.00  0.00    +0.000 C 
ATOM     11  C   UNL     1       6.313   5.909  16.397  0.00  0.00    +0.000 C 
ATOM     12  C   UNL     1       3.653   3.094  16.859  0.00  0.00    +0.000 C 
ATOM     13  C   UNL     1       3.200   3.352  18.285  0.00  0.00    +0.000 C 
ATOM     14  N   UNL     1       3.293   4.801  18.749  0.00  0.00    +0.000 N 
ATOM     15  C   UNL     1       3.002   4.775  20.259  0.00  0.00    +0.000 C 
ATOM     16  C   UNL     1       2.269   5.699  18.032  0.00  0.00    +0.000 C 
ENDROOT
TORSDOF 0
ENDMDL
