MODEL 1
REMARK VINA RESULT:      -5.1      0.000      0.000
REMARK  Name = 
REMARK  2 active torsions:
REMARK  status: ('A' for Active; 'I' for Inactive)
REMARK    1  A    between atoms: C_2  and  C_3
REMARK    2  A    between atoms: C_9  and  O_10
REMARK                            x       y       z     vdW  Elec       q    Type
REMARK                         _______ _______ _______ _____ _____    ______ ____
ROOT
ATOM      1  C   UNL     1       6.168   5.135  16.297  0.00  0.00    +0.000 A 
ATOM      2  C   UNL     1       4.926   5.756  16.462  0.00  0.00    +0.000 A 
ATOM      3  C   UNL     1       4.420   5.947  17.745  0.00  0.00    +0.000 A 
ATOM      4 CL   UNL     1       2.897   6.718  17.958  0.00  0.00    +0.000 Cl
ATOM      5  C   UNL     1       5.140   5.520  18.861  0.00  0.00    +0.000 A 
ATOM      6  C   UNL     1       6.383   4.903  18.699  0.00  0.00    +0.000 A 
ATOM      7  C   UNL     1       6.896   4.714  17.415  0.00  0.00    +0.000 A 
ENDROOT
BRANCH   1   9
ATOM      8  O   UNL     1       7.743   5.429  14.561  0.00  0.00    +0.000 OA
ATOM      9  C   UNL     1       6.691   4.921  14.934  0.00  0.00    +0.000 C 
ENDBRANCH   1   9
BRANCH   7  10
ATOM     10  O   UNL     1       8.114   4.117  17.252  0.00  0.00    +0.000 OA
ATOM     11  H   UNL     1       8.819   4.771  17.396  0.00  0.00    +0.000 HD
ENDBRANCH   7  10
TORSDOF 2
ENDMDL
MODEL 2
REMARK VINA RESULT:      -5.0      4.880      6.001
REMARK  Name = 
REMARK  2 active torsions:
REMARK  status: ('A' for Active; 'I' for Inactive)
REMARK    1  A    between atoms: C_2  and  C_3
REMARK    2  A    between atoms: C_9  and  O_10
REMARK                            x       y       z     vdW  Elec       q    Type
REMARK                         _______ _______ _______ _____ _____    ______ ____
ROOT
ATOM      1  C   UNL     1       1.625   3.659  20.204  0.00  0.00    +0.000 A 
ATOM      2  C   UNL     1       1.843   5.039  20.262  0.00  0.00    +0.000 A 
ATOM      3  C   UNL     1       2.149   5.734  19.096  0.00  0.00    +0.000 A 
ATOM      4 CL   UNL     1       2.411   7.433  19.156  0.00  0.00    +0.000 Cl
ATOM      5  C   UNL     1       2.242   5.065  17.875  0.00  0.00    +0.000 A 
ATOM      6  C   UNL     1       2.020   3.686  17.814  0.00  0.00    +0.000 A 
ATOM      7  C   UNL     1       1.708   2.986  18.980  0.00  0.00    +0.000 A 
ENDROOT
BRANCH   1   9
ATOM      8  O   UNL     1       2.157   2.233  22.011  0.00  0.00    +0.000 OA
ATOM      9  C   UNL     1       1.317   2.925  21.447  0.00  0.00    +0.000 C 
ENDBRANCH   1   9
BRANCH   7  10
ATOM     10  O   UNL     1       1.484   1.639  18.924  0.00  0.00    +0.000 OA
ATOM     11  H   UNL     1       1.646   1.320  18.020  0.00  0.00    +0.000 HD
ENDBRANCH   7  10
TORSDOF 2
ENDMDL
MODEL 3
REMARK VINA RESULT:      -4.9      4.843      6.051
REMARK  Name = 
REMARK  2 active torsions:
REMARK  status: ('A' for Active; 'I' for Inactive)
REMARK    1  A    between atoms: C_2  and  C_3
REMARK    2  A    between atoms: C_9  and  O_10
REMARK                            x       y       z     vdW  Elec       q    Type
REMARK                         _______ _______ _______ _____ _____    ______ ____
ROOT
ATOM      1  C   UNL     1       2.691   3.104  20.003  0.00  0.00    +0.000 A 
ATOM      2  C   UNL     1       3.861   3.309  19.264  0.00  0.00    +0.000 A 
ATOM      3  C   UNL     1       3.771   3.752  17.948  0.00  0.00    +0.000 A 
ATOM      4 CL   UNL     1       5.205   4.015  17.034  0.00  0.00    +0.000 Cl
ATOM      5  C   UNL     1       2.527   3.985  17.362  0.00  0.00    +0.000 A 
ATOM      6  C   UNL     1       1.357   3.785  18.100  0.00  0.00    +0.000 A 
ATOM      7  C   UNL     1       1.442   3.346  19.422  0.00  0.00    +0.000 A 
ENDROOT
BRANCH   1   9
ATOM      8  O   UNL     1       2.194   3.169  22.312  0.00  0.00    +0.000 OA
ATOM      9  C   UNL     1       2.793   2.620  21.393  0.00  0.00    +0.000 C 
ENDBRANCH   1   9
BRANCH   7  10
ATOM     10  O   UNL     1       0.301   3.155  20.149  0.00  0.00    +0.000 OA
ATOM     11  H   UNL     1      -0.155   2.356  19.833  0.00  0.00    +0.000 HD
ENDBRANCH   7  10
TORSDOF 2
ENDMDL
MODEL 4
REMARK VINA RESULT:      -4.9      1.329      1.331
REMARK  Name = 
REMARK  2 active torsions:
REMARK  status: ('A' for Active; 'I' for Inactive)
REMARK    1  A    between atoms: C_2  and  C_3
REMARK    2  A    between atoms: C_9  and  O_10
REMARK                            x       y       z     vdW  Elec       q    Type
REMARK                         _______ _______ _______ _____ _____    ______ ____
ROOT
ATOM      1  C   UNL     1       5.846   4.524  16.743  0.00  0.00    +0.000 A 
ATOM      2  C   UNL     1       4.457   4.446  16.596  0.00  0.00    +0.000 A 
ATOM      3  C   UNL     1       3.646   4.467  17.726  0.00  0.00    +0.000 A 
ATOM      4 CL   UNL     1       1.936   4.379  17.554  0.00  0.00    +0.000 Cl
ATOM      5  C   UNL     1       4.207   4.560  19.000  0.00  0.00    +0.000 A 
ATOM      6  C   UNL     1       5.594   4.643  19.150  0.00  0.00    +0.000 A 
ATOM      7  C   UNL     1       6.412   4.628  18.019  0.00  0.00    +0.000 A 
ENDROOT
BRANCH   1   9
ATOM      8  O   UNL     1       7.459   5.408  15.260  0.00  0.00    +0.000 OA
ATOM      9  C   UNL     1       6.701   4.486  15.541  0.00  0.00    +0.000 C 
ENDBRANCH   1   9
BRANCH   7  10
ATOM     10  O   UNL     1       7.767   4.715  18.160  0.00  0.00    +0.000 OA
ATOM     11  H   UNL     1       7.979   5.189  18.983  0.00  0.00    +0.000 HD
ENDBRANCH   7  10
TORSDOF 2
ENDMDL
MODEL 5
REMARK VINA RESULT:      -4.9      5.052      5.596
REMARK  Name = 
REMARK  2 active torsions:
REMARK  status: ('A' for Active; 'I' for Inactive)
REMARK    1  A    between atoms: C_2  and  C_3
REMARK    2  A    between atoms: C_9  and  O_10
REMARK                            x       y       z     vdW  Elec       q    Type
REMARK                         _______ _______ _______ _____ _____    ______ ____
ROOT
ATOM      1  C   UNL     1       1.696   3.985  18.877  0.00  0.00    +0.000 A 
ATOM      2  C   UNL     1       2.304   4.967  18.087  0.00  0.00    +0.000 A 
ATOM      3  C   UNL     1       2.587   6.212  18.640  0.00  0.00    +0.000 A 
ATOM      4 CL   UNL     1       3.343   7.423  17.679  0.00  0.00    +0.000 Cl
ATOM      5  C   UNL     1       2.264   6.488  19.969  0.00  0.00    +0.000 A 
ATOM      6  C   UNL     1       1.659   5.508  20.760  0.00  0.00    +0.000 A 
ATOM      7  C   UNL     1       1.379   4.255  20.212  0.00  0.00    +0.000 A 
ENDROOT
BRANCH   1   9
ATOM      8  O   UNL     1       0.313   2.111  18.480  0.00  0.00    +0.000 OA
ATOM      9  C   UNL     1       1.385   2.672  18.280  0.00  0.00    +0.000 C 
ENDBRANCH   1   9
BRANCH   7  10
ATOM     10  O   UNL     1       0.794   3.292  20.984  0.00  0.00    +0.000 OA
ATOM     11  H   UNL     1       0.401   2.611  20.412  0.00  0.00    +0.000 HD
ENDBRANCH   7  10
TORSDOF 2
ENDMDL
MODEL 6
REMARK VINA RESULT:      -4.9      1.359      2.708
REMARK  Name = 
REMARK  2 active torsions:
REMARK  status: ('A' for Active; 'I' for Inactive)
REMARK    1  A    between atoms: C_2  and  C_3
REMARK    2  A    between atoms: C_9  and  O_10
REMARK                            x       y       z     vdW  Elec       q    Type
REMARK                         _______ _______ _______ _____ _____    ______ ____
ROOT
ATOM      1  C   UNL     1       6.331   5.251  18.276  0.00  0.00    +0.000 A 
ATOM      2  C   UNL     1       4.972   5.439  18.551  0.00  0.00    +0.000 A 
ATOM      3  C   UNL     1       4.020   4.933  17.670  0.00  0.00    +0.000 A 
ATOM      4 CL   UNL     1       2.346   5.152  18.004  0.00  0.00    +0.000 Cl
ATOM      5  C   UNL     1       4.410   4.249  16.520  0.00  0.00    +0.000 A 
ATOM      6  C   UNL     1       5.767   4.056  16.246  0.00  0.00    +0.000 A 
ATOM      7  C   UNL     1       6.726   4.556  17.128  0.00  0.00    +0.000 A 
ENDROOT
BRANCH   1   9
ATOM      8  O   UNL     1       8.233   5.108  19.670  0.00  0.00    +0.000 OA
ATOM      9  C   UNL     1       7.336   5.803  19.205  0.00  0.00    +0.000 C 
ENDBRANCH   1   9
BRANCH   7  10
ATOM     10  O   UNL     1       8.053   4.365  16.868  0.00  0.00    +0.000 OA
ATOM     11  H   UNL     1       8.542   5.188  17.046  0.00  0.00    +0.000 HD
ENDBRANCH   7  10
TORSDOF 2
ENDMDL
MODEL 7
REMARK VINA RESULT:      -4.9      1.824      2.365
REMARK  Name = 
REMARK  2 active torsions:
REMARK  status: ('A' for Active; 'I' for Inactive)
REMARK    1  A    between atoms: C_2  and  C_3
REMARK    2  A    between atoms: C_9  and  O_10
REMARK                            x       y       z     vdW  Elec       q    Type
REMARK                         _______ _______ _______ _____ _____    ______ ____
ROOT
ATOM      1  C   UNL     1       5.508   4.866  16.532  0.00  0.00    +0.000 A 
ATOM      2  C   UNL     1       4.467   3.974  16.814  0.00  0.00    +0.000 A 
ATOM      3  C   UNL     1       3.323   4.438  17.456  0.00  0.00    +0.000 A 
ATOM      4 CL   UNL     1       2.035   3.350  17.799  0.00  0.00    +0.000 Cl
ATOM      5  C   UNL     1       3.209   5.779  17.822  0.00  0.00    +0.000 A 
ATOM      6  C   UNL     1       4.245   6.673  17.537  0.00  0.00    +0.000 A 
ATOM      7  C   UNL     1       5.393   6.214  16.890  0.00  0.00    +0.000 A 
ENDROOT
BRANCH   1   9
ATOM      8  O   UNL     1       7.836   4.500  16.367  0.00  0.00    +0.000 OA
ATOM      9  C   UNL     1       6.725   4.365  15.866  0.00  0.00    +0.000 C 
ENDBRANCH   1   9
BRANCH   7  10
ATOM     10  O   UNL     1       6.405   7.085  16.604  0.00  0.00    +0.000 OA
ATOM     11  H   UNL     1       6.987   7.173  17.378  0.00  0.00    +0.000 HD
ENDBRANCH   7  10
TORSDOF 2
ENDMDL
MODEL 8
REMARK VINA RESULT:      -4.8      2.922      3.706
REMARK  Name = 
REMARK  2 active torsions:
REMARK  status: ('A' for Active; 'I' for Inactive)
REMARK    1  A    between atoms: C_2  and  C_3
REMARK    2  A    between atoms: C_9  and  O_10
REMARK                            x       y       z     vdW  Elec       q    Type
REMARK                         _______ _______ _______ _____ _____    ______ ____
ROOT
ATOM      1  C   UNL     1       6.644   5.167  18.094  0.00  0.00    +0.000 A 
ATOM      2  C   UNL     1       7.016   4.830  16.788  0.00  0.00    +0.000 A 
ATOM      3  C   UNL     1       6.062   4.315  15.916  0.00  0.00    +0.000 A 
ATOM      4 CL   UNL     1       6.508   3.905  14.305  0.00  0.00    +0.000 Cl
ATOM      5  C   UNL     1       4.745   4.129  16.335  0.00  0.00    +0.000 A 
ATOM      6  C   UNL     1       4.370   4.469  17.638  0.00  0.00    +0.000 A 
ATOM      7  C   UNL     1       5.322   4.990  18.515  0.00  0.00    +0.000 A 
ENDROOT
BRANCH   1   9
ATOM      8  O   UNL     1       7.689   5.378  20.202  0.00  0.00    +0.000 OA
ATOM      9  C   UNL     1       7.664   5.698  19.019  0.00  0.00    +0.000 C 
ENDBRANCH   1   9
BRANCH   7  10
ATOM     10  O   UNL     1       4.958   5.330  19.787  0.00  0.00    +0.000 OA
ATOM     11  H   UNL     1       5.458   6.115  20.069  0.00  0.00    +0.000 HD
ENDBRANCH   7  10
TORSDOF 2
ENDMDL
MODEL 9
REMARK VINA RESULT:      -4.8      4.020      4.875
REMARK  Name = 
REMARK  2 active torsions:
REMARK  status: ('A' for Active; 'I' for Inactive)
REMARK    1  A    between atoms: C_2  and  C_3
REMARK    2  A    between atoms: C_9  and  O_10
REMARK                            x       y       z     vdW  Elec       q    Type
REMARK                         _______ _______ _______ _____ _____    ______ ____
ROOT
ATOM      1  C   UNL     1       2.096   3.618  18.443  0.00  0.00    +0.000 A 
ATOM      2  C   UNL     1       2.148   5.016  18.425  0.00  0.00    +0.000 A 
ATOM      3  C   UNL     1       3.226   5.653  17.816  0.00  0.00    +0.000 A 
ATOM      4 CL   UNL     1       3.294   7.372  17.782  0.00  0.00    +0.000 Cl
ATOM      5  C   UNL     1       4.251   4.910  17.231  0.00  0.00    +0.000 A 
ATOM      6  C   UNL     1       4.198   3.513  17.244  0.00  0.00    +0.000 A 
ATOM      7  C   UNL     1       3.118   2.870  17.849  0.00  0.00    +0.000 A 
ENDROOT
BRANCH   1   9
ATOM      8  O   UNL     1       0.239   2.160  18.503  0.00  0.00    +0.000 OA
ATOM      9  C   UNL     1       0.959   2.949  19.104  0.00  0.00    +0.000 C 
ENDBRANCH   1   9
BRANCH   7  10
ATOM     10  O   UNL     1       3.059   1.505  17.859  0.00  0.00    +0.000 OA
ATOM     11  H   UNL     1       3.943   1.140  17.677  0.00  0.00    +0.000 HD
ENDBRANCH   7  10
TORSDOF 2
ENDMDL
