MODEL 1
REMARK VINA RESULT:      -7.0      0.000      0.000
REMARK  Name = 
REMARK  14 active torsions:
REMARK  status: ('A' for Active; 'I' for Inactive)
REMARK    1  A    between atoms: C_1  and  O_2
REMARK    2  A    between atoms: O_2  and  C_3
REMARK    3  A    between atoms: C_5  and  C_6
REMARK    4  A    between atoms: C_6  and  C_7
REMARK    5  A    between atoms: C_7  and  N_8
REMARK    6  A    between atoms: N_8  and  C_9
REMARK    7  A    between atoms: C_9  and  C_10
REMARK    8  A    between atoms: C_9  and  C_11
REMARK    9  A    between atoms: C_11  and  O_12
REMARK   10  A    between atoms: O_12  and  C_13
REMARK   11  A    between atoms: C_14  and  C_15
REMARK   12  A    between atoms: C_17  and  C_18
REMARK   13  A    between atoms: C_20  and  C_21
REMARK   14  A    between atoms: C_24  and  O_25
REMARK                            x       y       z     vdW  Elec       q    Type
REMARK                         _______ _______ _______ _____ _____    ______ ____
ROOT
ATOM      1  N   UNL     1       2.404   4.874  18.634  0.00  0.00    +0.000 NA
ATOM      2  H   UNL     1       1.917   4.462  17.836  0.00  0.00    +0.000 HD
ENDROOT
BRANCH   1   3
ATOM      3  C   UNL     1       1.500   4.854  19.812  0.00  0.00    +0.000 C 
ATOM      4  C   UNL     1       1.550   3.502  20.540  0.00  0.00    +0.000 C 
BRANCH   3   5
ATOM      5  C   UNL     1       1.627   6.057  20.812  0.00  0.00    +0.000 C 
BRANCH   5   6
ATOM      6  O   UNL     1       2.321   7.140  20.166  0.00  0.00    +0.000 OA
BRANCH   6   7
ATOM      7  C   UNL     1       1.647   8.303  19.874  0.00  0.00    +0.000 A 
ATOM      8  C   UNL     1       1.752   8.743  18.532  0.00  0.00    +0.000 A 
ATOM      9  C   UNL     1       2.610   8.040  17.514  0.00  0.00    +0.000 C 
ATOM     10  C   UNL     1       0.986   9.836  18.073  0.00  0.00    +0.000 A 
ATOM     11  C   UNL     1       0.119  10.515  18.923  0.00  0.00    +0.000 A 
ATOM     12  C   UNL     1      -0.724  11.661  18.444  0.00  0.00    +0.000 C 
ATOM     13  C   UNL     1       0.025  10.086  20.246  0.00  0.00    +0.000 A 
ATOM     14  C   UNL     1       0.739   8.961  20.727  0.00  0.00    +0.000 A 
ATOM     15  C   UNL     1       0.401   8.541  22.129  0.00  0.00    +0.000 C 
ENDBRANCH   6   7
ENDBRANCH   5   6
ENDBRANCH   3   5
ENDBRANCH   1   3
BRANCH   1  16
ATOM     16  C   UNL     1       3.699   4.199  18.796  0.00  0.00    +0.000 C 
BRANCH  16  17
ATOM     17  C   UNL     1       4.138   3.366  17.563  0.00  0.00    +0.000 C 
BRANCH  17  20
ATOM     18  C   UNL     1       6.905   5.601  16.145  0.00  0.00    +0.000 A 
ATOM     19  C   UNL     1       5.939   5.028  16.991  0.00  0.00    +0.000 A 
ATOM     20  C   UNL     1       5.134   3.948  16.583  0.00  0.00    +0.000 A 
ATOM     21  C   UNL     1       5.313   3.456  15.284  0.00  0.00    +0.000 A 
ATOM     22  C   UNL     1       6.271   4.007  14.441  0.00  0.00    +0.000 A 
ATOM     23  C   UNL     1       7.065   5.073  14.863  0.00  0.00    +0.000 A 
BRANCH  18  25
ATOM     24  C   UNL     1       7.631   6.692  18.146  0.00  0.00    +0.000 C 
ATOM     25  O   UNL     1       7.580   6.642  16.727  0.00  0.00    +0.000 OA
ENDBRANCH  18  25
BRANCH  23  26
ATOM     26  O   UNL     1       7.991   5.567  13.987  0.00  0.00    +0.000 OA
ATOM     27  H   UNL     1       8.406   4.824  13.519  0.00  0.00    +0.000 HD
ENDBRANCH  23  26
ENDBRANCH  17  20
ENDBRANCH  16  17
ENDBRANCH   1  16
TORSDOF 9
ENDMDL
MODEL 2
REMARK VINA RESULT:      -7.0      3.784      6.266
REMARK  Name = 
REMARK  14 active torsions:
REMARK  status: ('A' for Active; 'I' for Inactive)
REMARK    1  A    between atoms: C_1  and  O_2
REMARK    2  A    between atoms: O_2  and  C_3
REMARK    3  A    between atoms: C_5  and  C_6
REMARK    4  A    between atoms: C_6  and  C_7
REMARK    5  A    between atoms: C_7  and  N_8
REMARK    6  A    between atoms: N_8  and  C_9
REMARK    7  A    between atoms: C_9  and  C_10
REMARK    8  A    between atoms: C_9  and  C_11
REMARK    9  A    between atoms: C_11  and  O_12
REMARK   10  A    between atoms: O_12  and  C_13
REMARK   11  A    between atoms: C_14  and  C_15
REMARK   12  A    between atoms: C_17  and  C_18
REMARK   13  A    between atoms: C_20  and  C_21
REMARK   14  A    between atoms: C_24  and  O_25
REMARK                            x       y       z     vdW  Elec       q    Type
REMARK                         _______ _______ _______ _____ _____    ______ ____
ROOT
ATOM      1  N   UNL     1       2.053  10.022  17.867  0.00  0.00    +0.000 NA
ATOM      2  H   UNL     1       2.196  10.577  17.022  0.00  0.00    +0.000 HD
ENDROOT
BRANCH   1   3
ATOM      3  C   UNL     1       1.026  10.685  18.710  0.00  0.00    +0.000 C 
ATOM      4  C   UNL     1       1.232  12.206  18.761  0.00  0.00    +0.000 C 
BRANCH   3   5
ATOM      5  C   UNL     1      -0.469  10.311  18.416  0.00  0.00    +0.000 C 
BRANCH   5   6
ATOM      6  O   UNL     1      -1.120  11.424  17.776  0.00  0.00    +0.000 OA
BRANCH   6   7
ATOM      7  C   UNL     1      -2.478  11.593  17.917  0.00  0.00    +0.000 A 
ATOM      8  C   UNL     1      -3.265  11.081  16.857  0.00  0.00    +0.000 A 
ATOM      9  C   UNL     1      -2.660  10.472  15.620  0.00  0.00    +0.000 C 
ATOM     10  C   UNL     1      -4.673  11.058  16.954  0.00  0.00    +0.000 A 
ATOM     11  C   UNL     1      -5.324  11.544  18.084  0.00  0.00    +0.000 A 
ATOM     12  C   UNL     1      -6.819  11.500  18.216  0.00  0.00    +0.000 C 
ATOM     13  C   UNL     1      -4.547  12.056  19.122  0.00  0.00    +0.000 A 
ATOM     14  C   UNL     1      -3.131  12.047  19.080  0.00  0.00    +0.000 A 
ATOM     15  C   UNL     1      -2.451  12.489  20.344  0.00  0.00    +0.000 C 
ENDBRANCH   6   7
ENDBRANCH   5   6
ENDBRANCH   3   5
ENDBRANCH   1   3
BRANCH   1  16
ATOM     16  C   UNL     1       1.778   8.632  17.478  0.00  0.00    +0.000 C 
BRANCH  16  17
ATOM     17  C   UNL     1       2.783   7.601  18.057  0.00  0.00    +0.000 C 
BRANCH  17  20
ATOM     18  C   UNL     1       1.588   4.030  18.748  0.00  0.00    +0.000 A 
ATOM     19  C   UNL     1       2.041   5.197  18.109  0.00  0.00    +0.000 A 
ATOM     20  C   UNL     1       2.266   6.396  18.811  0.00  0.00    +0.000 A 
ATOM     21  C   UNL     1       2.012   6.401  20.189  0.00  0.00    +0.000 A 
ATOM     22  C   UNL     1       1.574   5.251  20.835  0.00  0.00    +0.000 A 
ATOM     23  C   UNL     1       1.362   4.070  20.125  0.00  0.00    +0.000 A 
BRANCH  18  25
ATOM     24  C   UNL     1       2.567   2.181  17.589  0.00  0.00    +0.000 C 
ATOM     25  O   UNL     1       1.427   2.974  17.890  0.00  0.00    +0.000 OA
ENDBRANCH  18  25
BRANCH  23  26
ATOM     26  O   UNL     1       0.934   2.974  20.821  0.00  0.00    +0.000 OA
ATOM     27  H   UNL     1       1.672   2.349  20.905  0.00  0.00    +0.000 HD
ENDBRANCH  23  26
ENDBRANCH  17  20
ENDBRANCH  16  17
ENDBRANCH   1  16
TORSDOF 9
ENDMDL
MODEL 3
REMARK VINA RESULT:      -7.0      4.690      7.683
REMARK  Name = 
REMARK  14 active torsions:
REMARK  status: ('A' for Active; 'I' for Inactive)
REMARK    1  A    between atoms: C_1  and  O_2
REMARK    2  A    between atoms: O_2  and  C_3
REMARK    3  A    between atoms: C_5  and  C_6
REMARK    4  A    between atoms: C_6  and  C_7
REMARK    5  A    between atoms: C_7  and  N_8
REMARK    6  A    between atoms: N_8  and  C_9
REMARK    7  A    between atoms: C_9  and  C_10
REMARK    8  A    between atoms: C_9  and  C_11
REMARK    9  A    between atoms: C_11  and  O_12
REMARK   10  A    between atoms: O_12  and  C_13
REMARK   11  A    between atoms: C_14  and  C_15
REMARK   12  A    between atoms: C_17  and  C_18
REMARK   13  A    between atoms: C_20  and  C_21
REMARK   14  A    between atoms: C_24  and  O_25
REMARK                            x       y       z     vdW  Elec       q    Type
REMARK                         _______ _______ _______ _____ _____    ______ ____
ROOT
ATOM      1  N   UNL     1       8.113   7.532  17.174  0.00  0.00    +0.000 NA
ATOM      2  H   UNL     1       8.991   7.010  17.154  0.00  0.00    +0.000 HD
ENDROOT
BRANCH   1   3
ATOM      3  C   UNL     1       6.990   6.576  17.338  0.00  0.00    +0.000 C 
ATOM      4  C   UNL     1       7.298   5.518  18.409  0.00  0.00    +0.000 C 
BRANCH   3   5
ATOM      5  C   UNL     1       5.562   7.199  17.531  0.00  0.00    +0.000 C 
BRANCH   5   6
ATOM      6  O   UNL     1       4.619   6.491  16.706  0.00  0.00    +0.000 OA
BRANCH   6   7
ATOM      7  C   UNL     1       3.917   5.430  17.231  0.00  0.00    +0.000 A 
ATOM      8  C   UNL     1       2.775   5.777  17.991  0.00  0.00    +0.000 A 
ATOM      9  C   UNL     1       2.398   7.205  18.282  0.00  0.00    +0.000 C 
ATOM     10  C   UNL     1       1.890   4.779  18.455  0.00  0.00    +0.000 A 
ATOM     11  C   UNL     1       2.120   3.433  18.187  0.00  0.00    +0.000 A 
ATOM     12  C   UNL     1       1.174   2.362  18.646  0.00  0.00    +0.000 C 
ATOM     13  C   UNL     1       3.251   3.094  17.445  0.00  0.00    +0.000 A 
ATOM     14  C   UNL     1       4.131   4.072  16.921  0.00  0.00    +0.000 A 
ATOM     15  C   UNL     1       5.207   3.545  16.016  0.00  0.00    +0.000 C 
ENDBRANCH   6   7
ENDBRANCH   5   6
ENDBRANCH   3   5
ENDBRANCH   1   3
BRANCH   1  16
ATOM     16  C   UNL     1       8.218   8.593  18.186  0.00  0.00    +0.000 C 
BRANCH  16  17
ATOM     17  C   UNL     1       8.533   9.996  17.603  0.00  0.00    +0.000 C 
BRANCH  17  20
ATOM     18  C   UNL     1       9.800  13.406  18.796  0.00  0.00    +0.000 A 
ATOM     19  C   UNL     1       9.250  12.372  18.019  0.00  0.00    +0.000 A 
ATOM     20  C   UNL     1       9.168  11.047  18.487  0.00  0.00    +0.000 A 
ATOM     21  C   UNL     1       9.668  10.776  19.767  0.00  0.00    +0.000 A 
ATOM     22  C   UNL     1      10.206  11.791  20.549  0.00  0.00    +0.000 A 
ATOM     23  C   UNL     1      10.274  13.100  20.072  0.00  0.00    +0.000 A 
BRANCH  18  25
ATOM     24  C   UNL     1      10.938  14.984  17.403  0.00  0.00    +0.000 C 
ATOM     25  O   UNL     1       9.792  14.620  18.159  0.00  0.00    +0.000 OA
ENDBRANCH  18  25
BRANCH  23  26
ATOM     26  O   UNL     1      10.811  14.052  20.894  0.00  0.00    +0.000 OA
ATOM     27  H   UNL     1      10.399  13.979  21.769  0.00  0.00    +0.000 HD
ENDBRANCH  23  26
ENDBRANCH  17  20
ENDBRANCH  16  17
ENDBRANCH   1  16
TORSDOF 9
ENDMDL
MODEL 4
REMARK VINA RESULT:      -6.9      5.153      8.050
REMARK  Name = 
REMARK  14 active torsions:
REMARK  status: ('A' for Active; 'I' for Inactive)
REMARK    1  A    between atoms: C_1  and  O_2
REMARK    2  A    between atoms: O_2  and  C_3
REMARK    3  A    between atoms: C_5  and  C_6
REMARK    4  A    between atoms: C_6  and  C_7
REMARK    5  A    between atoms: C_7  and  N_8
REMARK    6  A    between atoms: N_8  and  C_9
REMARK    7  A    between atoms: C_9  and  C_10
REMARK    8  A    between atoms: C_9  and  C_11
REMARK    9  A    between atoms: C_11  and  O_12
REMARK   10  A    between atoms: O_12  and  C_13
REMARK   11  A    between atoms: C_14  and  C_15
REMARK   12  A    between atoms: C_17  and  C_18
REMARK   13  A    between atoms: C_20  and  C_21
REMARK   14  A    between atoms: C_24  and  O_25
REMARK                            x       y       z     vdW  Elec       q    Type
REMARK                         _______ _______ _______ _____ _____    ______ ____
ROOT
ATOM      1  N   UNL     1       8.612   8.009  18.855  0.00  0.00    +0.000 NA
ATOM      2  H   UNL     1       8.264   7.990  19.815  0.00  0.00    +0.000 HD
ENDROOT
BRANCH   1   3
ATOM      3  C   UNL     1       7.818   7.059  18.036  0.00  0.00    +0.000 C 
ATOM      4  C   UNL     1       7.624   5.716  18.756  0.00  0.00    +0.000 C 
BRANCH   3   5
ATOM      5  C   UNL     1       6.468   7.602  17.447  0.00  0.00    +0.000 C 
BRANCH   5   6
ATOM      6  O   UNL     1       6.006   6.708  16.417  0.00  0.00    +0.000 OA
BRANCH   6   7
ATOM      7  C   UNL     1       4.996   5.816  16.692  0.00  0.00    +0.000 A 
ATOM      8  C   UNL     1       5.278   4.465  16.378  0.00  0.00    +0.000 A 
ATOM      9  C   UNL     1       6.558   4.040  15.710  0.00  0.00    +0.000 C 
ATOM     10  C   UNL     1       4.383   3.439  16.750  0.00  0.00    +0.000 A 
ATOM     11  C   UNL     1       3.200   3.725  17.425  0.00  0.00    +0.000 A 
ATOM     12  C   UNL     1       2.252   2.644  17.854  0.00  0.00    +0.000 C 
ATOM     13  C   UNL     1       2.920   5.058  17.724  0.00  0.00    +0.000 A 
ATOM     14  C   UNL     1       3.819   6.107  17.412  0.00  0.00    +0.000 A 
ATOM     15  C   UNL     1       3.436   7.457  17.945  0.00  0.00    +0.000 C 
ENDBRANCH   6   7
ENDBRANCH   5   6
ENDBRANCH   3   5
ENDBRANCH   1   3
BRANCH   1  16
ATOM     16  C   UNL     1       8.641   9.403  18.391  0.00  0.00    +0.000 C 
BRANCH  16  17
ATOM     17  C   UNL     1       9.258  10.397  19.410  0.00  0.00    +0.000 C 
BRANCH  17  20
ATOM     18  C   UNL     1      11.096  13.756  19.413  0.00  0.00    +0.000 A 
ATOM     19  C   UNL     1      10.341  12.635  19.800  0.00  0.00    +0.000 A 
ATOM     20  C   UNL     1      10.051  11.585  18.909  0.00  0.00    +0.000 A 
ATOM     21  C   UNL     1      10.533  11.690  17.598  0.00  0.00    +0.000 A 
ATOM     22  C   UNL     1      11.290  12.788  17.205  0.00  0.00    +0.000 A 
ATOM     23  C   UNL     1      11.573  13.817  18.103  0.00  0.00    +0.000 A 
BRANCH  18  25
ATOM     24  C   UNL     1      10.154  15.481  20.776  0.00  0.00    +0.000 C 
ATOM     25  O   UNL     1      11.263  14.667  20.423  0.00  0.00    +0.000 OA
ENDBRANCH  18  25
BRANCH  23  26
ATOM     26  O   UNL     1      12.326  14.867  17.654  0.00  0.00    +0.000 OA
ATOM     27  H   UNL     1      12.846  15.218  18.394  0.00  0.00    +0.000 HD
ENDBRANCH  23  26
ENDBRANCH  17  20
ENDBRANCH  16  17
ENDBRANCH   1  16
TORSDOF 9
ENDMDL
MODEL 5
REMARK VINA RESULT:      -6.9      3.242      5.504
REMARK  Name = 
REMARK  14 active torsions:
REMARK  status: ('A' for Active; 'I' for Inactive)
REMARK    1  A    between atoms: C_1  and  O_2
REMARK    2  A    between atoms: O_2  and  C_3
REMARK    3  A    between atoms: C_5  and  C_6
REMARK    4  A    between atoms: C_6  and  C_7
REMARK    5  A    between atoms: C_7  and  N_8
REMARK    6  A    between atoms: N_8  and  C_9
REMARK    7  A    between atoms: C_9  and  C_10
REMARK    8  A    between atoms: C_9  and  C_11
REMARK    9  A    between atoms: C_11  and  O_12
REMARK   10  A    between atoms: O_12  and  C_13
REMARK   11  A    between atoms: C_14  and  C_15
REMARK   12  A    between atoms: C_17  and  C_18
REMARK   13  A    between atoms: C_20  and  C_21
REMARK   14  A    between atoms: C_24  and  O_25
REMARK                            x       y       z     vdW  Elec       q    Type
REMARK                         _______ _______ _______ _____ _____    ______ ____
ROOT
ATOM      1  N   UNL     1       1.726  10.047  17.668  0.00  0.00    +0.000 NA
ATOM      2  H   UNL     1       1.289  10.254  16.768  0.00  0.00    +0.000 HD
ENDROOT
BRANCH   1   3
ATOM      3  C   UNL     1       1.030  10.817  18.729  0.00  0.00    +0.000 C 
ATOM      4  C   UNL     1       1.312  12.323  18.613  0.00  0.00    +0.000 C 
BRANCH   3   5
ATOM      5  C   UNL     1      -0.501  10.526  18.916  0.00  0.00    +0.000 C 
BRANCH   5   6
ATOM      6  O   UNL     1      -1.254  11.700  18.558  0.00  0.00    +0.000 OA
BRANCH   6   7
ATOM      7  C   UNL     1      -2.614  11.606  18.373  0.00  0.00    +0.000 A 
ATOM      8  C   UNL     1      -3.405  12.195  19.388  0.00  0.00    +0.000 A 
ATOM      9  C   UNL     1      -2.809  12.804  20.629  0.00  0.00    +0.000 C 
ATOM     10  C   UNL     1      -4.806  12.297  19.240  0.00  0.00    +0.000 A 
ATOM     11  C   UNL     1      -5.445  11.815  18.101  0.00  0.00    +0.000 A 
ATOM     12  C   UNL     1      -6.929  11.942  17.914  0.00  0.00    +0.000 C 
ATOM     13  C   UNL     1      -4.664  11.228  17.107  0.00  0.00    +0.000 A 
ATOM     14  C   UNL     1      -3.253  11.155  17.200  0.00  0.00    +0.000 A 
ATOM     15  C   UNL     1      -2.556  10.637  15.975  0.00  0.00    +0.000 C 
ENDBRANCH   6   7
ENDBRANCH   5   6
ENDBRANCH   3   5
ENDBRANCH   1   3
BRANCH   1  16
ATOM     16  C   UNL     1       1.773   8.590  17.845  0.00  0.00    +0.000 C 
BRANCH  16  17
ATOM     17  C   UNL     1       3.207   7.998  17.861  0.00  0.00    +0.000 C 
BRANCH  17  20
ATOM     18  C   UNL     1       4.912   4.612  17.324  0.00  0.00    +0.000 A 
ATOM     19  C   UNL     1       4.652   5.992  17.392  0.00  0.00    +0.000 A 
ATOM     20  C   UNL     1       3.399   6.499  17.783  0.00  0.00    +0.000 A 
ATOM     21  C   UNL     1       2.393   5.577  18.098  0.00  0.00    +0.000 A 
ATOM     22  C   UNL     1       2.639   4.210  18.045  0.00  0.00    +0.000 A 
ATOM     23  C   UNL     1       3.888   3.725  17.661  0.00  0.00    +0.000 A 
BRANCH  18  25
ATOM     24  C   UNL     1       7.263   4.759  17.742  0.00  0.00    +0.000 C 
ATOM     25  O   UNL     1       6.189   4.324  16.919  0.00  0.00    +0.000 OA
ENDBRANCH  18  25
BRANCH  23  26
ATOM     26  O   UNL     1       4.066   2.369  17.633  0.00  0.00    +0.000 OA
ATOM     27  H   UNL     1       3.421   1.982  17.021  0.00  0.00    +0.000 HD
ENDBRANCH  23  26
ENDBRANCH  17  20
ENDBRANCH  16  17
ENDBRANCH   1  16
TORSDOF 9
ENDMDL
MODEL 6
REMARK VINA RESULT:      -6.9      3.077      5.178
REMARK  Name = 
REMARK  14 active torsions:
REMARK  status: ('A' for Active; 'I' for Inactive)
REMARK    1  A    between atoms: C_1  and  O_2
REMARK    2  A    between atoms: O_2  and  C_3
REMARK    3  A    between atoms: C_5  and  C_6
REMARK    4  A    between atoms: C_6  and  C_7
REMARK    5  A    between atoms: C_7  and  N_8
REMARK    6  A    between atoms: N_8  and  C_9
REMARK    7  A    between atoms: C_9  and  C_10
REMARK    8  A    between atoms: C_9  and  C_11
REMARK    9  A    between atoms: C_11  and  O_12
REMARK   10  A    between atoms: O_12  and  C_13
REMARK   11  A    between atoms: C_14  and  C_15
REMARK   12  A    between atoms: C_17  and  C_18
REMARK   13  A    between atoms: C_20  and  C_21
REMARK   14  A    between atoms: C_24  and  O_25
REMARK                            x       y       z     vdW  Elec       q    Type
REMARK                         _______ _______ _______ _____ _____    ______ ____
ROOT
ATOM      1  N   UNL     1       1.961   9.818  18.217  0.00  0.00    +0.000 NA
ATOM      2  H   UNL     1       2.230  10.418  17.435  0.00  0.00    +0.000 HD
ENDROOT
BRANCH   1   3
ATOM      3  C   UNL     1       0.745  10.380  18.857  0.00  0.00    +0.000 C 
ATOM      4  C   UNL     1       0.950  11.845  19.274  0.00  0.00    +0.000 C 
BRANCH   3   5
ATOM      5  C   UNL     1      -0.608  10.180  18.087  0.00  0.00    +0.000 C 
BRANCH   5   6
ATOM      6  O   UNL     1      -1.305  11.437  18.019  0.00  0.00    +0.000 OA
BRANCH   6   7
ATOM      7  C   UNL     1      -2.679  11.452  17.947  0.00  0.00    +0.000 A 
ATOM      8  C   UNL     1      -3.338  11.992  19.078  0.00  0.00    +0.000 A 
ATOM      9  C   UNL     1      -2.598  12.440  20.310  0.00  0.00    +0.000 C 
ATOM     10  C   UNL     1      -4.735  12.199  19.064  0.00  0.00    +0.000 A 
ATOM     11  C   UNL     1      -5.500  11.871  17.949  0.00  0.00    +0.000 A 
ATOM     12  C   UNL     1      -6.980  12.113  17.906  0.00  0.00    +0.000 C 
ATOM     13  C   UNL     1      -4.849  11.331  16.840  0.00  0.00    +0.000 A 
ATOM     14  C   UNL     1      -3.444  11.158  16.800  0.00  0.00    +0.000 A 
ATOM     15  C   UNL     1      -2.891  10.714  15.477  0.00  0.00    +0.000 C 
ENDBRANCH   6   7
ENDBRANCH   5   6
ENDBRANCH   3   5
ENDBRANCH   1   3
BRANCH   1  16
ATOM     16  C   UNL     1       1.864   8.433  17.738  0.00  0.00    +0.000 C 
BRANCH  16  17
ATOM     17  C   UNL     1       2.651   7.408  18.597  0.00  0.00    +0.000 C 
BRANCH  17  20
ATOM     18  C   UNL     1       5.690   5.801  16.910  0.00  0.00    +0.000 A 
ATOM     19  C   UNL     1       4.821   6.721  17.523  0.00  0.00    +0.000 A 
ATOM     20  C   UNL     1       3.516   6.370  17.915  0.00  0.00    +0.000 A 
ATOM     21  C   UNL     1       3.092   5.058  17.666  0.00  0.00    +0.000 A 
ATOM     22  C   UNL     1       3.944   4.136  17.071  0.00  0.00    +0.000 A 
ATOM     23  C   UNL     1       5.236   4.500  16.694  0.00  0.00    +0.000 A 
BRANCH  18  25
ATOM     24  C   UNL     1       7.501   7.233  17.536  0.00  0.00    +0.000 C 
ATOM     25  O   UNL     1       6.912   6.339  16.602  0.00  0.00    +0.000 OA
ENDBRANCH  18  25
BRANCH  23  26
ATOM     26  O   UNL     1       6.026   3.544  16.116  0.00  0.00    +0.000 OA
ATOM     27  H   UNL     1       5.873   3.549  15.158  0.00  0.00    +0.000 HD
ENDBRANCH  23  26
ENDBRANCH  17  20
ENDBRANCH  16  17
ENDBRANCH   1  16
TORSDOF 9
ENDMDL
MODEL 7
REMARK VINA RESULT:      -6.9      1.153      2.245
REMARK  Name = 
REMARK  14 active torsions:
REMARK  status: ('A' for Active; 'I' for Inactive)
REMARK    1  A    between atoms: C_1  and  O_2
REMARK    2  A    between atoms: O_2  and  C_3
REMARK    3  A    between atoms: C_5  and  C_6
REMARK    4  A    between atoms: C_6  and  C_7
REMARK    5  A    between atoms: C_7  and  N_8
REMARK    6  A    between atoms: N_8  and  C_9
REMARK    7  A    between atoms: C_9  and  C_10
REMARK    8  A    between atoms: C_9  and  C_11
REMARK    9  A    between atoms: C_11  and  O_12
REMARK   10  A    between atoms: O_12  and  C_13
REMARK   11  A    between atoms: C_14  and  C_15
REMARK   12  A    between atoms: C_17  and  C_18
REMARK   13  A    between atoms: C_20  and  C_21
REMARK   14  A    between atoms: C_24  and  O_25
REMARK                            x       y       z     vdW  Elec       q    Type
REMARK                         _______ _______ _______ _____ _____    ______ ____
ROOT
ATOM      1  N   UNL     1       2.738   4.699  20.156  0.00  0.00    +0.000 NA
ATOM      2  H   UNL     1       2.553   4.573  21.153  0.00  0.00    +0.000 HD
ENDROOT
BRANCH   1   3
ATOM      3  C   UNL     1       2.541   6.127  19.806  0.00  0.00    +0.000 C 
ATOM      4  C   UNL     1       2.378   6.321  18.291  0.00  0.00    +0.000 C 
BRANCH   3   5
ATOM      5  C   UNL     1       1.438   6.900  20.612  0.00  0.00    +0.000 C 
BRANCH   5   6
ATOM      6  O   UNL     1       1.794   8.293  20.688  0.00  0.00    +0.000 OA
BRANCH   6   7
ATOM      7  C   UNL     1       0.872   9.252  20.341  0.00  0.00    +0.000 A 
ATOM      8  C   UNL     1       0.135   9.801  21.418  0.00  0.00    +0.000 A 
ATOM      9  C   UNL     1       0.284   9.312  22.834  0.00  0.00    +0.000 C 
ATOM     10  C   UNL     1      -0.732  10.896  21.212  0.00  0.00    +0.000 A 
ATOM     11  C   UNL     1      -0.893  11.458  19.949  0.00  0.00    +0.000 A 
ATOM     12  C   UNL     1      -1.787  12.640  19.716  0.00  0.00    +0.000 C 
ATOM     13  C   UNL     1      -0.174  10.909  18.888  0.00  0.00    +0.000 A 
ATOM     14  C   UNL     1       0.743   9.844  19.069  0.00  0.00    +0.000 A 
ATOM     15  C   UNL     1       1.549   9.481  17.855  0.00  0.00    +0.000 C 
ENDBRANCH   6   7
ENDBRANCH   5   6
ENDBRANCH   3   5
ENDBRANCH   1   3
BRANCH   1  16
ATOM     16  C   UNL     1       4.056   4.128  19.846  0.00  0.00    +0.000 C 
BRANCH  16  17
ATOM     17  C   UNL     1       4.135   3.428  18.464  0.00  0.00    +0.000 C 
BRANCH  17  20
ATOM     18  C   UNL     1       6.993   5.402  16.851  0.00  0.00    +0.000 A 
ATOM     19  C   UNL     1       6.078   4.874  17.779  0.00  0.00    +0.000 A 
ATOM     20  C   UNL     1       5.062   3.977  17.401  0.00  0.00    +0.000 A 
ATOM     21  C   UNL     1       4.976   3.624  16.048  0.00  0.00    +0.000 A 
ATOM     22  C   UNL     1       5.880   4.130  15.122  0.00  0.00    +0.000 A 
ATOM     23  C   UNL     1       6.884   5.014  15.515  0.00  0.00    +0.000 A 
BRANCH  18  25
ATOM     24  C   UNL     1       7.552   7.635  17.504  0.00  0.00    +0.000 C 
ATOM     25  O   UNL     1       7.899   6.260  17.417  0.00  0.00    +0.000 OA
ENDBRANCH  18  25
BRANCH  23  26
ATOM     26  O   UNL     1       7.743   5.473  14.555  0.00  0.00    +0.000 OA
ATOM     27  H   UNL     1       7.677   4.899  13.775  0.00  0.00    +0.000 HD
ENDBRANCH  23  26
ENDBRANCH  17  20
ENDBRANCH  16  17
ENDBRANCH   1  16
TORSDOF 9
ENDMDL
MODEL 8
REMARK VINA RESULT:      -6.8      4.238      7.120
REMARK  Name = 
REMARK  14 active torsions:
REMARK  status: ('A' for Active; 'I' for Inactive)
REMARK    1  A    between atoms: C_1  and  O_2
REMARK    2  A    between atoms: O_2  and  C_3
REMARK    3  A    between atoms: C_5  and  C_6
REMARK    4  A    between atoms: C_6  and  C_7
REMARK    5  A    between atoms: C_7  and  N_8
REMARK    6  A    between atoms: N_8  and  C_9
REMARK    7  A    between atoms: C_9  and  C_10
REMARK    8  A    between atoms: C_9  and  C_11
REMARK    9  A    between atoms: C_11  and  O_12
REMARK   10  A    between atoms: O_12  and  C_13
REMARK   11  A    between atoms: C_14  and  C_15
REMARK   12  A    between atoms: C_17  and  C_18
REMARK   13  A    between atoms: C_20  and  C_21
REMARK   14  A    between atoms: C_24  and  O_25
REMARK                            x       y       z     vdW  Elec       q    Type
REMARK                         _______ _______ _______ _____ _____    ______ ____
ROOT
ATOM      1  N   UNL     1       7.753   7.213  16.863  0.00  0.00    +0.000 NA
ATOM      2  H   UNL     1       8.624   6.772  17.164  0.00  0.00    +0.000 HD
ENDROOT
BRANCH   1   3
ATOM      3  C   UNL     1       6.631   6.270  17.096  0.00  0.00    +0.000 C 
ATOM      4  C   UNL     1       7.075   5.057  17.929  0.00  0.00    +0.000 C 
BRANCH   3   5
ATOM      5  C   UNL     1       5.296   6.890  17.639  0.00  0.00    +0.000 C 
BRANCH   5   6
ATOM      6  O   UNL     1       4.186   6.081  17.208  0.00  0.00    +0.000 OA
BRANCH   6   7
ATOM      7  C   UNL     1       3.536   5.277  18.115  0.00  0.00    +0.000 A 
ATOM      8  C   UNL     1       2.647   5.947  18.990  0.00  0.00    +0.000 A 
ATOM      9  C   UNL     1       2.486   7.444  18.990  0.00  0.00    +0.000 C 
ATOM     10  C   UNL     1       1.811   5.217  19.862  0.00  0.00    +0.000 A 
ATOM     11  C   UNL     1       1.843   3.826  19.893  0.00  0.00    +0.000 A 
ATOM     12  C   UNL     1       0.940   3.034  20.792  0.00  0.00    +0.000 C 
ATOM     13  C   UNL     1       2.726   3.170  19.037  0.00  0.00    +0.000 A 
ATOM     14  C   UNL     1       3.542   3.868  18.113  0.00  0.00    +0.000 A 
ATOM     15  C   UNL     1       4.314   3.002  17.160  0.00  0.00    +0.000 C 
ENDBRANCH   6   7
ENDBRANCH   5   6
ENDBRANCH   3   5
ENDBRANCH   1   3
BRANCH   1  16
ATOM     16  C   UNL     1       7.643   8.529  17.508  0.00  0.00    +0.000 C 
BRANCH  16  17
ATOM     17  C   UNL     1       8.701   8.784  18.613  0.00  0.00    +0.000 C 
BRANCH  17  20
ATOM     18  C   UNL     1       9.784  11.950  20.476  0.00  0.00    +0.000 A 
ATOM     19  C   UNL     1       9.297  10.665  20.175  0.00  0.00    +0.000 A 
ATOM     20  C   UNL     1       9.207  10.190  18.853  0.00  0.00    +0.000 A 
ATOM     21  C   UNL     1       9.612  11.048  17.824  0.00  0.00    +0.000 A 
ATOM     22  C   UNL     1      10.105  12.316  18.108  0.00  0.00    +0.000 A 
ATOM     23  C   UNL     1      10.193  12.769  19.423  0.00  0.00    +0.000 A 
BRANCH  18  25
ATOM     24  C   UNL     1       8.571  12.655  22.414  0.00  0.00    +0.000 C 
ATOM     25  O   UNL     1       9.787  12.223  21.819  0.00  0.00    +0.000 OA
ENDBRANCH  18  25
BRANCH  23  26
ATOM     26  O   UNL     1      10.690  14.026  19.635  0.00  0.00    +0.000 OA
ATOM     27  H   UNL     1      10.023  14.551  20.105  0.00  0.00    +0.000 HD
ENDBRANCH  23  26
ENDBRANCH  17  20
ENDBRANCH  16  17
ENDBRANCH   1  16
TORSDOF 9
ENDMDL
MODEL 9
REMARK VINA RESULT:      -6.8      1.995      3.352
REMARK  Name = 
REMARK  14 active torsions:
REMARK  status: ('A' for Active; 'I' for Inactive)
REMARK    1  A    between atoms: C_1  and  O_2
REMARK    2  A    between atoms: O_2  and  C_3
REMARK    3  A    between atoms: C_5  and  C_6
REMARK    4  A    between atoms: C_6  and  C_7
REMARK    5  A    between atoms: C_7  and  N_8
REMARK    6  A    between atoms: N_8  and  C_9
REMARK    7  A    between atoms: C_9  and  C_10
REMARK    8  A    between atoms: C_9  and  C_11
REMARK    9  A    between atoms: C_11  and  O_12
REMARK   10  A    between atoms: O_12  and  C_13
REMARK   11  A    between atoms: C_14  and  C_15
REMARK   12  A    between atoms: C_17  and  C_18
REMARK   13  A    between atoms: C_20  and  C_21
REMARK   14  A    between atoms: C_24  and  O_25
REMARK                            x       y       z     vdW  Elec       q    Type
REMARK                         _______ _______ _______ _____ _____    ______ ____
ROOT
ATOM      1  N   UNL     1       2.598   6.657  19.897  0.00  0.00    +0.000 NA
ATOM      2  H   UNL     1       3.609   6.673  20.037  0.00  0.00    +0.000 HD
ENDROOT
BRANCH   1   3
ATOM      3  C   UNL     1       2.131   8.033  19.595  0.00  0.00    +0.000 C 
ATOM      4  C   UNL     1       2.118   8.307  18.083  0.00  0.00    +0.000 C 
BRANCH   3   5
ATOM      5  C   UNL     1       0.793   8.485  20.278  0.00  0.00    +0.000 C 
BRANCH   5   6
ATOM      6  O   UNL     1       0.989   9.765  20.907  0.00  0.00    +0.000 OA
BRANCH   6   7
ATOM      7  C   UNL     1      -0.101  10.539  21.230  0.00  0.00    +0.000 A 
ATOM      8  C   UNL     1      -0.540  10.436  22.573  0.00  0.00    +0.000 A 
ATOM      9  C   UNL     1       0.083   9.483  23.557  0.00  0.00    +0.000 C 
ATOM     10  C   UNL     1      -1.551  11.289  23.066  0.00  0.00    +0.000 A 
ATOM     11  C   UNL     1      -2.148  12.244  22.248  0.00  0.00    +0.000 A 
ATOM     12  C   UNL     1      -3.202  13.180  22.764  0.00  0.00    +0.000 C 
ATOM     13  C   UNL     1      -1.720  12.337  20.924  0.00  0.00    +0.000 A 
ATOM     14  C   UNL     1      -0.674  11.533  20.411  0.00  0.00    +0.000 A 
ATOM     15  C   UNL     1      -0.232  11.871  19.016  0.00  0.00    +0.000 C 
ENDBRANCH   6   7
ENDBRANCH   5   6
ENDBRANCH   3   5
ENDBRANCH   1   3
BRANCH   1  16
ATOM     16  C   UNL     1       2.276   5.627  18.900  0.00  0.00    +0.000 C 
BRANCH  16  17
ATOM     17  C   UNL     1       3.386   4.559  18.710  0.00  0.00    +0.000 C 
BRANCH  17  20
ATOM     18  C   UNL     1       6.158   6.256  16.684  0.00  0.00    +0.000 A 
ATOM     19  C   UNL     1       5.136   5.999  17.615  0.00  0.00    +0.000 A 
ATOM     20  C   UNL     1       4.453   4.769  17.657  0.00  0.00    +0.000 A 
ATOM     21  C   UNL     1       4.816   3.791  16.723  0.00  0.00    +0.000 A 
ATOM     22  C   UNL     1       5.831   4.027  15.804  0.00  0.00    +0.000 A 
ATOM     23  C   UNL     1       6.501   5.250  15.780  0.00  0.00    +0.000 A 
BRANCH  18  25
ATOM     24  C   UNL     1       7.807   7.681  17.669  0.00  0.00    +0.000 C 
ATOM     25  O   UNL     1       6.692   7.512  16.804  0.00  0.00    +0.000 OA
ENDBRANCH  18  25
BRANCH  23  26
ATOM     26  O   UNL     1       7.493   5.417  14.853  0.00  0.00    +0.000 OA
ATOM     27  H   UNL     1       7.381   4.755  14.152  0.00  0.00    +0.000 HD
ENDBRANCH  23  26
ENDBRANCH  17  20
ENDBRANCH  16  17
ENDBRANCH   1  16
TORSDOF 9
ENDMDL
