MODEL 1
REMARK VINA RESULT:      -6.6      0.000      0.000
REMARK  Name = 
REMARK  7 active torsions:
REMARK  status: ('A' for Active; 'I' for Inactive)
REMARK    1  A    between atoms: C_1  and  C_2
REMARK    2  A    between atoms: C_2  and  C_3
REMARK    3  A    between atoms: C_2  and  C_4
REMARK    4  A    between atoms: C_4  and  C_5
REMARK    5  A    between atoms: C_5  and  N_6
REMARK    6  A    between atoms: C_12  and  C_14
REMARK    7  A    between atoms: C_14  and  C_15
REMARK                            x       y       z     vdW  Elec       q    Type
REMARK                         _______ _______ _______ _____ _____    ______ ____
ROOT
ATOM      1  N   UNL     1       4.143   5.032  18.422  0.00  0.00    +0.000 N 
ATOM      2  C   UNL     1       3.904   6.435  18.564  0.00  0.00    +0.000 C 
ATOM      3  C   UNL     1       2.383   6.514  18.463  0.00  0.00    +0.000 C 
ATOM      4  C   UNL     1       1.898   7.690  17.607  0.00  0.00    +0.000 C 
ATOM      5  C   UNL     1       2.116   9.012  18.329  0.00  0.00    +0.000 C 
ATOM      6  N   UNL     1       1.430   8.970  19.615  0.00  0.00    +0.000 N 
ATOM      7  C   UNL     1       0.228   9.619  19.900  0.00  0.00    +0.000 C 
ATOM      8  O   UNL     1      -0.372   9.478  20.960  0.00  0.00    +0.000 OA
ATOM      9  C   UNL     1       1.885   7.920  20.522  0.00  0.00    +0.000 C 
ATOM     10  C   UNL     1       1.716   6.550  19.857  0.00  0.00    +0.000 C 
ATOM     11  O   UNL     1       2.018   5.289  17.787  0.00  0.00    +0.000 OA
ATOM     12  C   UNL     1       3.055   4.402  17.885  0.00  0.00    +0.000 C 
ATOM     13  O   UNL     1       2.981   3.231  17.541  0.00  0.00    +0.000 OA
ENDROOT
BRANCH   7  14
ATOM     14  C   UNL     1      -0.353  10.551  18.862  0.00  0.00    +0.000 C 
ATOM     15  C   UNL     1       0.235  11.940  18.799  0.00  0.00    +0.000 C 
ATOM     16  C   UNL     1      -1.002   9.955  17.615  0.00  0.00    +0.000 C 
ATOM     17  C   UNL     1      -1.872  10.512  18.692  0.00  0.00    +0.000 C 
ENDBRANCH   7  14
BRANCH   1  18
ATOM     18  C   UNL     1       5.356   4.379  18.870  0.00  0.00    +0.000 C 
BRANCH  18  19
ATOM     19  C   UNL     1       6.470   5.322  19.325  0.00  0.00    +0.000 C 
BRANCH  19  21
ATOM     20  C   UNL     1       7.496   4.591  17.112  0.00  0.00    +0.000 C 
ATOM     21  C   UNL     1       7.609   5.532  18.312  0.00  0.00    +0.000 C 
ATOM     22  C   UNL     1       7.610   6.985  17.829  0.00  0.00    +0.000 C 
ENDBRANCH  19  21
ENDBRANCH  18  19
ENDBRANCH   1  18
TORSDOF 4
ENDMDL
MODEL 2
REMARK VINA RESULT:      -6.5      4.490      6.077
REMARK  Name = 
REMARK  7 active torsions:
REMARK  status: ('A' for Active; 'I' for Inactive)
REMARK    1  A    between atoms: C_1  and  C_2
REMARK    2  A    between atoms: C_2  and  C_3
REMARK    3  A    between atoms: C_2  and  C_4
REMARK    4  A    between atoms: C_4  and  C_5
REMARK    5  A    between atoms: C_5  and  N_6
REMARK    6  A    between atoms: C_12  and  C_14
REMARK    7  A    between atoms: C_14  and  C_15
REMARK                            x       y       z     vdW  Elec       q    Type
REMARK                         _______ _______ _______ _____ _____    ______ ____
ROOT
ATOM      1  N   UNL     1       5.889   5.024  15.516  0.00  0.00    +0.000 N 
ATOM      2  C   UNL     1       5.606   4.191  16.643  0.00  0.00    +0.000 C 
ATOM      3  C   UNL     1       4.333   4.824  17.199  0.00  0.00    +0.000 C 
ATOM      4  C   UNL     1       4.330   4.923  18.729  0.00  0.00    +0.000 C 
ATOM      5  C   UNL     1       4.159   3.549  19.361  0.00  0.00    +0.000 C 
ATOM      6  N   UNL     1       2.927   2.947  18.863  0.00  0.00    +0.000 N 
ATOM      7  C   UNL     1       1.738   2.846  19.588  0.00  0.00    +0.000 C 
ATOM      8  O   UNL     1       0.694   2.427  19.102  0.00  0.00    +0.000 OA
ATOM      9  C   UNL     1       2.878   2.751  17.417  0.00  0.00    +0.000 C 
ATOM     10  C   UNL     1       3.065   4.093  16.703  0.00  0.00    +0.000 C 
ATOM     11  O   UNL     1       4.355   6.167  16.665  0.00  0.00    +0.000 OA
ATOM     12  C   UNL     1       5.211   6.207  15.599  0.00  0.00    +0.000 C 
ATOM     13  O   UNL     1       5.321   7.170  14.853  0.00  0.00    +0.000 OA
ENDROOT
BRANCH   7  14
ATOM     14  C   UNL     1       1.743   3.256  21.042  0.00  0.00    +0.000 C 
ATOM     15  C   UNL     1       1.863   4.734  21.326  0.00  0.00    +0.000 C 
ATOM     16  C   UNL     1       1.064   2.350  22.068  0.00  0.00    +0.000 C 
ATOM     17  C   UNL     1       2.555   2.375  21.991  0.00  0.00    +0.000 C 
ENDBRANCH   7  14
BRANCH   1  18
ATOM     18  C   UNL     1       6.724   4.609  14.407  0.00  0.00    +0.000 C 
BRANCH  18  19
ATOM     19  C   UNL     1       6.309   3.301  13.733  0.00  0.00    +0.000 C 
BRANCH  19  21
ATOM     20  C   UNL     1       4.852   3.446  11.650  0.00  0.00    +0.000 C 
ATOM     21  C   UNL     1       6.276   3.335  12.195  0.00  0.00    +0.000 C 
ATOM     22  C   UNL     1       7.115   4.510  11.686  0.00  0.00    +0.000 C 
ENDBRANCH  19  21
ENDBRANCH  18  19
ENDBRANCH   1  18
TORSDOF 4
ENDMDL
MODEL 3
REMARK VINA RESULT:      -6.5      3.834      6.062
REMARK  Name = 
REMARK  7 active torsions:
REMARK  status: ('A' for Active; 'I' for Inactive)
REMARK    1  A    between atoms: C_1  and  C_2
REMARK    2  A    between atoms: C_2  and  C_3
REMARK    3  A    between atoms: C_2  and  C_4
REMARK    4  A    between atoms: C_4  and  C_5
REMARK    5  A    between atoms: C_5  and  N_6
REMARK    6  A    between atoms: C_12  and  C_14
REMARK    7  A    between atoms: C_14  and  C_15
REMARK                            x       y       z     vdW  Elec       q    Type
REMARK                         _______ _______ _______ _____ _____    ______ ____
ROOT
ATOM      1  N   UNL     1       5.995   4.578  14.942  0.00  0.00    +0.000 N 
ATOM      2  C   UNL     1       4.726   4.199  15.481  0.00  0.00    +0.000 C 
ATOM      3  C   UNL     1       4.975   4.290  16.984  0.00  0.00    +0.000 C 
ATOM      4  C   UNL     1       4.361   3.123  17.767  0.00  0.00    +0.000 C 
ATOM      5  C   UNL     1       2.844   3.239  17.811  0.00  0.00    +0.000 C 
ATOM      6  N   UNL     1       2.483   4.524  18.399  0.00  0.00    +0.000 N 
ATOM      7  C   UNL     1       2.006   4.702  19.699  0.00  0.00    +0.000 C 
ATOM      8  O   UNL     1       1.811   5.807  20.193  0.00  0.00    +0.000 OA
ATOM      9  C   UNL     1       2.969   5.693  17.671  0.00  0.00    +0.000 C 
ATOM     10  C   UNL     1       4.496   5.640  17.565  0.00  0.00    +0.000 C 
ATOM     11  O   UNL     1       6.413   4.198  17.101  0.00  0.00    +0.000 OA
ATOM     12  C   UNL     1       6.977   4.485  15.889  0.00  0.00    +0.000 C 
ATOM     13  O   UNL     1       8.178   4.634  15.717  0.00  0.00    +0.000 OA
ENDROOT
BRANCH   7  14
ATOM     14  C   UNL     1       1.703   3.477  20.530  0.00  0.00    +0.000 C 
ATOM     15  C   UNL     1       0.380   2.797  20.269  0.00  0.00    +0.000 C 
ATOM     16  C   UNL     1       2.863   2.664  21.100  0.00  0.00    +0.000 C 
ATOM     17  C   UNL     1       2.080   3.552  22.009  0.00  0.00    +0.000 C 
ENDBRANCH   7  14
BRANCH   1  18
ATOM     18  C   UNL     1       6.174   5.069  13.591  0.00  0.00    +0.000 C 
BRANCH  18  19
ATOM     19  C   UNL     1       6.660   4.029  12.581  0.00  0.00    +0.000 C 
BRANCH  19  21
ATOM     20  C   UNL     1       4.366   3.472  11.624  0.00  0.00    +0.000 C 
ATOM     21  C   UNL     1       5.651   2.918  12.243  0.00  0.00    +0.000 C 
ATOM     22  C   UNL     1       6.291   1.912  11.282  0.00  0.00    +0.000 C 
ENDBRANCH  19  21
ENDBRANCH  18  19
ENDBRANCH   1  18
TORSDOF 4
ENDMDL
MODEL 4
REMARK VINA RESULT:      -6.4      4.906      6.531
REMARK  Name = 
REMARK  7 active torsions:
REMARK  status: ('A' for Active; 'I' for Inactive)
REMARK    1  A    between atoms: C_1  and  C_2
REMARK    2  A    between atoms: C_2  and  C_3
REMARK    3  A    between atoms: C_2  and  C_4
REMARK    4  A    between atoms: C_4  and  C_5
REMARK    5  A    between atoms: C_5  and  N_6
REMARK    6  A    between atoms: C_12  and  C_14
REMARK    7  A    between atoms: C_14  and  C_15
REMARK                            x       y       z     vdW  Elec       q    Type
REMARK                         _______ _______ _______ _____ _____    ______ ____
ROOT
ATOM      1  N   UNL     1       5.698   4.962  15.176  0.00  0.00    +0.000 N 
ATOM      2  C   UNL     1       5.576   3.986  16.214  0.00  0.00    +0.000 C 
ATOM      3  C   UNL     1       4.448   4.562  17.066  0.00  0.00    +0.000 C 
ATOM      4  C   UNL     1       4.712   4.447  18.572  0.00  0.00    +0.000 C 
ATOM      5  C   UNL     1       4.592   3.002  19.034  0.00  0.00    +0.000 C 
ATOM      6  N   UNL     1       3.267   2.501  18.687  0.00  0.00    +0.000 N 
ATOM      7  C   UNL     1       2.217   2.324  19.589  0.00  0.00    +0.000 C 
ATOM      8  O   UNL     1       1.087   1.999  19.244  0.00  0.00    +0.000 OA
ATOM      9  C   UNL     1       2.961   2.508  17.259  0.00  0.00    +0.000 C 
ATOM     10  C   UNL     1       3.082   3.933  16.709  0.00  0.00    +0.000 C 
ATOM     11  O   UNL     1       4.437   5.966  16.721  0.00  0.00    +0.000 OA
ATOM     12  C   UNL     1       5.098   6.136  15.535  0.00  0.00    +0.000 C 
ATOM     13  O   UNL     1       5.120   7.191  14.917  0.00  0.00    +0.000 OA
ENDROOT
BRANCH   7  14
ATOM     14  C   UNL     1       2.491   2.526  21.062  0.00  0.00    +0.000 C 
ATOM     15  C   UNL     1       3.525   1.621  21.687  0.00  0.00    +0.000 C 
ATOM     16  C   UNL     1       2.223   3.896  21.682  0.00  0.00    +0.000 C 
ATOM     17  C   UNL     1       1.271   2.778  21.949  0.00  0.00    +0.000 C 
ENDBRANCH   7  14
BRANCH   1  18
ATOM     18  C   UNL     1       6.310   4.689  13.892  0.00  0.00    +0.000 C 
BRANCH  18  19
ATOM     19  C   UNL     1       6.130   3.261  13.376  0.00  0.00    +0.000 C 
BRANCH  19  21
ATOM     20  C   UNL     1       6.084   1.738  11.335  0.00  0.00    +0.000 C 
ATOM     21  C   UNL     1       5.801   3.140  11.878  0.00  0.00    +0.000 C 
ATOM     22  C   UNL     1       4.331   3.496  11.640  0.00  0.00    +0.000 C 
ENDBRANCH  19  21
ENDBRANCH  18  19
ENDBRANCH   1  18
TORSDOF 4
ENDMDL
MODEL 5
REMARK VINA RESULT:      -6.0      3.131      4.508
REMARK  Name = 
REMARK  7 active torsions:
REMARK  status: ('A' for Active; 'I' for Inactive)
REMARK    1  A    between atoms: C_1  and  C_2
REMARK    2  A    between atoms: C_2  and  C_3
REMARK    3  A    between atoms: C_2  and  C_4
REMARK    4  A    between atoms: C_4  and  C_5
REMARK    5  A    between atoms: C_5  and  N_6
REMARK    6  A    between atoms: C_12  and  C_14
REMARK    7  A    between atoms: C_14  and  C_15
REMARK                            x       y       z     vdW  Elec       q    Type
REMARK                         _______ _______ _______ _____ _____    ______ ____
ROOT
ATOM      1  N   UNL     1       6.071   4.347  16.161  0.00  0.00    +0.000 N 
ATOM      2  C   UNL     1       4.733   4.603  16.598  0.00  0.00    +0.000 C 
ATOM      3  C   UNL     1       4.957   5.511  17.804  0.00  0.00    +0.000 C 
ATOM      4  C   UNL     1       4.050   5.168  18.991  0.00  0.00    +0.000 C 
ATOM      5  C   UNL     1       2.609   5.568  18.707  0.00  0.00    +0.000 C 
ATOM      6  N   UNL     1       2.565   6.993  18.398  0.00  0.00    +0.000 N 
ATOM      7  C   UNL     1       2.114   7.986  19.268  0.00  0.00    +0.000 C 
ATOM      8  O   UNL     1       2.187   9.182  19.012  0.00  0.00    +0.000 OA
ATOM      9  C   UNL     1       3.347   7.394  17.232  0.00  0.00    +0.000 C 
ATOM     10  C   UNL     1       4.815   7.005  17.431  0.00  0.00    +0.000 C 
ATOM     11  O   UNL     1       6.322   5.238  18.192  0.00  0.00    +0.000 OA
ATOM     12  C   UNL     1       6.972   4.646  17.144  0.00  0.00    +0.000 C 
ATOM     13  O   UNL     1       8.176   4.438  17.122  0.00  0.00    +0.000 OA
ENDROOT
BRANCH   7  14
ATOM     14  C   UNL     1       1.491   7.567  20.580  0.00  0.00    +0.000 C 
ATOM     15  C   UNL     1       1.463   6.085  20.870  0.00  0.00    +0.000 C 
ATOM     16  C   UNL     1       1.480   8.557  21.743  0.00  0.00    +0.000 C 
ATOM     17  C   UNL     1       0.216   8.303  20.990  0.00  0.00    +0.000 C 
ENDBRANCH   7  14
BRANCH   1  18
ATOM     18  C   UNL     1       6.402   3.906  14.822  0.00  0.00    +0.000 C 
BRANCH  18  19
ATOM     19  C   UNL     1       5.268   4.013  13.802  0.00  0.00    +0.000 C 
BRANCH  19  21
ATOM     20  C   UNL     1       4.322   3.411  11.516  0.00  0.00    +0.000 C 
ATOM     21  C   UNL     1       5.468   3.206  12.508  0.00  0.00    +0.000 C 
ATOM     22  C   UNL     1       6.793   3.603  11.851  0.00  0.00    +0.000 C 
ENDBRANCH  19  21
ENDBRANCH  18  19
ENDBRANCH   1  18
TORSDOF 4
ENDMDL
MODEL 6
REMARK VINA RESULT:      -6.0      4.404      6.025
REMARK  Name = 
REMARK  7 active torsions:
REMARK  status: ('A' for Active; 'I' for Inactive)
REMARK    1  A    between atoms: C_1  and  C_2
REMARK    2  A    between atoms: C_2  and  C_3
REMARK    3  A    between atoms: C_2  and  C_4
REMARK    4  A    between atoms: C_4  and  C_5
REMARK    5  A    between atoms: C_5  and  N_6
REMARK    6  A    between atoms: C_12  and  C_14
REMARK    7  A    between atoms: C_14  and  C_15
REMARK                            x       y       z     vdW  Elec       q    Type
REMARK                         _______ _______ _______ _____ _____    ______ ____
ROOT
ATOM      1  N   UNL     1       6.284   5.163  15.657  0.00  0.00    +0.000 N 
ATOM      2  C   UNL     1       6.012   4.450  16.866  0.00  0.00    +0.000 C 
ATOM      3  C   UNL     1       4.560   4.829  17.144  0.00  0.00    +0.000 C 
ATOM      4  C   UNL     1       4.290   5.134  18.622  0.00  0.00    +0.000 C 
ATOM      5  C   UNL     1       4.324   3.860  19.453  0.00  0.00    +0.000 C 
ATOM      6  N   UNL     1       3.348   2.917  18.917  0.00  0.00    +0.000 N 
ATOM      7  C   UNL     1       2.110   2.634  19.495  0.00  0.00    +0.000 C 
ATOM      8  O   UNL     1       1.273   1.914  18.962  0.00  0.00    +0.000 OA
ATOM      9  C   UNL     1       3.575   2.518  17.531  0.00  0.00    +0.000 C 
ATOM     10  C   UNL     1       3.577   3.754  16.627  0.00  0.00    +0.000 C 
ATOM     11  O   UNL     1       4.374   6.052  16.395  0.00  0.00    +0.000 OA
ATOM     12  C   UNL     1       5.360   6.149  15.452  0.00  0.00    +0.000 C 
ATOM     13  O   UNL     1       5.376   6.998  14.572  0.00  0.00    +0.000 OA
ENDROOT
BRANCH   7  14
ATOM     14  C   UNL     1       1.792   3.229  20.848  0.00  0.00    +0.000 C 
ATOM     15  C   UNL     1       1.554   2.252  21.975  0.00  0.00    +0.000 C 
ATOM     16  C   UNL     1       2.285   4.638  21.171  0.00  0.00    +0.000 C 
ATOM     17  C   UNL     1       0.842   4.425  20.855  0.00  0.00    +0.000 C 
ENDBRANCH   7  14
BRANCH   1  18
ATOM     18  C   UNL     1       7.355   4.813  14.748  0.00  0.00    +0.000 C 
BRANCH  18  19
ATOM     19  C   UNL     1       6.960   4.743  13.272  0.00  0.00    +0.000 C 
BRANCH  19  21
ATOM     20  C   UNL     1       4.811   3.661  12.437  0.00  0.00    +0.000 C 
ATOM     21  C   UNL     1       6.270   3.439  12.837  0.00  0.00    +0.000 C 
ATOM     22  C   UNL     1       7.035   2.816  11.665  0.00  0.00    +0.000 C 
ENDBRANCH  19  21
ENDBRANCH  18  19
ENDBRANCH   1  18
TORSDOF 4
ENDMDL
MODEL 7
REMARK VINA RESULT:      -5.9      0.700      1.393
REMARK  Name = 
REMARK  7 active torsions:
REMARK  status: ('A' for Active; 'I' for Inactive)
REMARK    1  A    between atoms: C_1  and  C_2
REMARK    2  A    between atoms: C_2  and  C_3
REMARK    3  A    between atoms: C_2  and  C_4
REMARK    4  A    between atoms: C_4  and  C_5
REMARK    5  A    between atoms: C_5  and  N_6
REMARK    6  A    between atoms: C_12  and  C_14
REMARK    7  A    between atoms: C_14  and  C_15
REMARK                            x       y       z     vdW  Elec       q    Type
REMARK                         _______ _______ _______ _____ _____    ______ ____
ROOT
ATOM      1  N   UNL     1       4.213   5.341  18.498  0.00  0.00    +0.000 N 
ATOM      2  C   UNL     1       3.901   6.725  18.677  0.00  0.00    +0.000 C 
ATOM      3  C   UNL     1       2.378   6.728  18.568  0.00  0.00    +0.000 C 
ATOM      4  C   UNL     1       1.837   7.900  17.741  0.00  0.00    +0.000 C 
ATOM      5  C   UNL     1       1.983   9.212  18.499  0.00  0.00    +0.000 C 
ATOM      6  N   UNL     1       1.294   9.099  19.780  0.00  0.00    +0.000 N 
ATOM      7  C   UNL     1       0.058   9.677  20.075  0.00  0.00    +0.000 C 
ATOM      8  O   UNL     1      -0.539   9.476  21.127  0.00  0.00    +0.000 OA
ATOM      9  C   UNL     1       1.798   8.050  20.661  0.00  0.00    +0.000 C 
ATOM     10  C   UNL     1       1.704   6.692  19.959  0.00  0.00    +0.000 C 
ATOM     11  O   UNL     1       2.081   5.505  17.856  0.00  0.00    +0.000 OA
ATOM     12  C   UNL     1       3.162   4.671  17.937  0.00  0.00    +0.000 C 
ATOM     13  O   UNL     1       3.151   3.508  17.561  0.00  0.00    +0.000 OA
ENDROOT
BRANCH   7  14
ATOM     14  C   UNL     1      -0.566  10.605  19.059  0.00  0.00    +0.000 C 
ATOM     15  C   UNL     1      -1.095   9.966  17.798  0.00  0.00    +0.000 C 
ATOM     16  C   UNL     1      -1.161  11.929  19.534  0.00  0.00    +0.000 C 
ATOM     17  C   UNL     1       0.152  11.934  18.825  0.00  0.00    +0.000 C 
ENDBRANCH   7  14
BRANCH   1  18
ATOM     18  C   UNL     1       5.456   4.740  18.936  0.00  0.00    +0.000 C 
BRANCH  18  19
ATOM     19  C   UNL     1       6.485   4.497  17.831  0.00  0.00    +0.000 C 
BRANCH  19  21
ATOM     20  C   UNL     1       7.398   6.783  17.177  0.00  0.00    +0.000 C 
ATOM     21  C   UNL     1       6.553   5.583  16.744  0.00  0.00    +0.000 C 
ATOM     22  C   UNL     1       7.127   4.989  15.454  0.00  0.00    +0.000 C 
ENDBRANCH  19  21
ENDBRANCH  18  19
ENDBRANCH   1  18
TORSDOF 4
ENDMDL
MODEL 8
REMARK VINA RESULT:      -5.8      4.213      5.707
REMARK  Name = 
REMARK  7 active torsions:
REMARK  status: ('A' for Active; 'I' for Inactive)
REMARK    1  A    between atoms: C_1  and  C_2
REMARK    2  A    between atoms: C_2  and  C_3
REMARK    3  A    between atoms: C_2  and  C_4
REMARK    4  A    between atoms: C_4  and  C_5
REMARK    5  A    between atoms: C_5  and  N_6
REMARK    6  A    between atoms: C_12  and  C_14
REMARK    7  A    between atoms: C_14  and  C_15
REMARK                            x       y       z     vdW  Elec       q    Type
REMARK                         _______ _______ _______ _____ _____    ______ ____
ROOT
ATOM      1  N   UNL     1       7.084   6.919  16.924  0.00  0.00    +0.000 N 
ATOM      2  C   UNL     1       5.964   6.805  17.806  0.00  0.00    +0.000 C 
ATOM      3  C   UNL     1       5.472   5.389  17.518  0.00  0.00    +0.000 C 
ATOM      4  C   UNL     1       3.944   5.290  17.429  0.00  0.00    +0.000 C 
ATOM      5  C   UNL     1       3.310   5.444  18.804  0.00  0.00    +0.000 C 
ATOM      6  N   UNL     1       3.859   4.429  19.697  0.00  0.00    +0.000 N 
ATOM      7  C   UNL     1       3.189   3.273  20.099  0.00  0.00    +0.000 C 
ATOM      8  O   UNL     1       3.719   2.392  20.767  0.00  0.00    +0.000 OA
ATOM      9  C   UNL     1       5.304   4.499  19.893  0.00  0.00    +0.000 C 
ATOM     10  C   UNL     1       6.019   4.372  18.545  0.00  0.00    +0.000 C 
ATOM     11  O   UNL     1       6.015   5.094  16.211  0.00  0.00    +0.000 OA
ATOM     12  C   UNL     1       7.041   5.960  15.951  0.00  0.00    +0.000 C 
ATOM     13  O   UNL     1       7.789   5.857  14.989  0.00  0.00    +0.000 OA
ENDROOT
BRANCH   7  14
ATOM     14  C   UNL     1       1.738   3.107  19.708  0.00  0.00    +0.000 C 
ATOM     15  C   UNL     1       1.468   2.709  18.276  0.00  0.00    +0.000 C 
ATOM     16  C   UNL     1       0.717   2.757  20.787  0.00  0.00    +0.000 C 
ATOM     17  C   UNL     1       0.765   4.151  20.255  0.00  0.00    +0.000 C 
ENDBRANCH   7  14
BRANCH   1  18
ATOM     18  C   UNL     1       8.150   7.882  17.108  0.00  0.00    +0.000 C 
BRANCH  18  19
ATOM     19  C   UNL     1       7.764   9.136  17.893  0.00  0.00    +0.000 C 
BRANCH  19  21
ATOM     20  C   UNL     1       8.527  11.558  17.688  0.00  0.00    +0.000 C 
ATOM     21  C   UNL     1       8.905  10.143  18.128  0.00  0.00    +0.000 C 
ATOM     22  C   UNL     1       9.290  10.151  19.610  0.00  0.00    +0.000 C 
ENDBRANCH  19  21
ENDBRANCH  18  19
ENDBRANCH   1  18
TORSDOF 4
ENDMDL
MODEL 9
REMARK VINA RESULT:      -5.8      4.129      5.596
REMARK  Name = 
REMARK  7 active torsions:
REMARK  status: ('A' for Active; 'I' for Inactive)
REMARK    1  A    between atoms: C_1  and  C_2
REMARK    2  A    between atoms: C_2  and  C_3
REMARK    3  A    between atoms: C_2  and  C_4
REMARK    4  A    between atoms: C_4  and  C_5
REMARK    5  A    between atoms: C_5  and  N_6
REMARK    6  A    between atoms: C_12  and  C_14
REMARK    7  A    between atoms: C_14  and  C_15
REMARK                            x       y       z     vdW  Elec       q    Type
REMARK                         _______ _______ _______ _____ _____    ______ ____
ROOT
ATOM      1  N   UNL     1       7.093   6.862  16.844  0.00  0.00    +0.000 N 
ATOM      2  C   UNL     1       5.956   6.808  17.709  0.00  0.00    +0.000 C 
ATOM      3  C   UNL     1       5.420   5.403  17.447  0.00  0.00    +0.000 C 
ATOM      4  C   UNL     1       3.891   5.354  17.335  0.00  0.00    +0.000 C 
ATOM      5  C   UNL     1       3.241   5.564  18.695  0.00  0.00    +0.000 C 
ATOM      6  N   UNL     1       3.740   4.553  19.621  0.00  0.00    +0.000 N 
ATOM      7  C   UNL     1       3.023   3.431  20.040  0.00  0.00    +0.000 C 
ATOM      8  O   UNL     1       3.512   2.549  20.737  0.00  0.00    +0.000 OA
ATOM      9  C   UNL     1       5.183   4.578  19.840  0.00  0.00    +0.000 C 
ATOM     10  C   UNL     1       5.915   4.393  18.508  0.00  0.00    +0.000 C 
ATOM     11  O   UNL     1       5.973   5.058  16.157  0.00  0.00    +0.000 OA
ATOM     12  C   UNL     1       7.033   5.881  15.894  0.00  0.00    +0.000 C 
ATOM     13  O   UNL     1       7.791   5.729  14.947  0.00  0.00    +0.000 OA
ENDROOT
BRANCH   7  14
ATOM     14  C   UNL     1       1.575   3.305  19.628  0.00  0.00    +0.000 C 
ATOM     15  C   UNL     1       0.567   4.046  20.473  0.00  0.00    +0.000 C 
ATOM     16  C   UNL     1       1.245   2.994  18.170  0.00  0.00    +0.000 C 
ATOM     17  C   UNL     1       1.114   1.914  19.192  0.00  0.00    +0.000 C 
ENDBRANCH   7  14
BRANCH   1  18
ATOM     18  C   UNL     1       8.189   7.792  17.023  0.00  0.00    +0.000 C 
BRANCH  18  19
ATOM     19  C   UNL     1       8.146   8.605  18.317  0.00  0.00    +0.000 C 
BRANCH  19  21
ATOM     20  C   UNL     1       8.120  11.068  17.670  0.00  0.00    +0.000 C 
ATOM     21  C   UNL     1       8.930   9.929  18.289  0.00  0.00    +0.000 C 
ATOM     22  C   UNL     1       9.352  10.311  19.711  0.00  0.00    +0.000 C 
ENDBRANCH  19  21
ENDBRANCH  18  19
ENDBRANCH   1  18
TORSDOF 4
ENDMDL
