MODEL 1
REMARK VINA RESULT:      -8.1      0.000      0.000
REMARK  Name = 
REMARK  9 active torsions:
REMARK  status: ('A' for Active; 'I' for Inactive)
REMARK    1  A    between atoms: C_1  and  C_2
REMARK    2  A    between atoms: C_2  and  O_3
REMARK    3  A    between atoms: C_2  and  C_4
REMARK    4  A    between atoms: C_2  and  C_13
REMARK    5  A    between atoms: C_4  and  O_5
REMARK    6  A    between atoms: O_5  and  C_6
REMARK    7  A    between atoms: N_15  and  C_16
REMARK    8  A    between atoms: C_19  and  N_20
REMARK    9  A    between atoms: C_23  and  C_24
REMARK                            x       y       z     vdW  Elec       q    Type
REMARK                         _______ _______ _______ _____ _____    ______ ____
ROOT
ATOM      1  C   UNL     1       0.570   8.427  21.357  0.00  0.00    +0.000 C 
ATOM      2  O   UNL     1      -0.472   7.804  21.140  0.00  0.00    +0.000 OA
ATOM      3  N   UNL     1       1.821   7.985  20.949  0.00  0.00    +0.000 N 
ATOM      4  H   UNL     1       2.640   8.476  21.289  0.00  0.00    +0.000 HD
ENDROOT
BRANCH   3   5
ATOM      5  C   UNL     1       2.078   6.875  20.114  0.00  0.00    +0.000 A 
ATOM      6  C   UNL     1       2.660   6.996  18.850  0.00  0.00    +0.000 A 
ATOM      7  C   UNL     1       2.879   5.873  18.053  0.00  0.00    +0.000 A 
ATOM      8  C   UNL     1       2.500   4.613  18.525  0.00  0.00    +0.000 A 
ATOM      9  C   UNL     1       1.907   4.444  19.783  0.00  0.00    +0.000 A 
ATOM     10  C   UNL     1       1.732   5.597  20.583  0.00  0.00    +0.000 A 
BRANCH   9  11
ATOM     11  C   UNL     1       1.396   3.124  20.298  0.00  0.00    +0.000 C 
ATOM     12  F   UNL     1       0.974   3.119  21.586  0.00  0.00    +0.000 F 
ATOM     13  F   UNL     1       0.365   2.647  19.552  0.00  0.00    +0.000 F 
ATOM     14  F   UNL     1       2.366   2.167  20.238  0.00  0.00    +0.000 F 
ENDBRANCH   9  11
BRANCH   8  15
ATOM     15  N   UNL     1       2.786   3.487  17.655  0.00  0.00    +0.000 N 
ATOM     16  O   UNL     1       1.894   3.144  16.871  0.00  0.00    +0.000 OA
ATOM     17  O   UNL     1       3.918   2.995  17.742  0.00  0.00    +0.000 OA
ENDBRANCH   8  15
ENDBRANCH   3   5
BRANCH   1  19
ATOM     18  C   UNL     1      -0.735   9.595  23.139  0.00  0.00    +0.000 C 
ATOM     19  C   UNL     1       0.520   9.700  22.262  0.00  0.00    +0.000 C 
BRANCH  19  20
ATOM     20  O   UNL     1       1.648   9.694  23.154  0.00  0.00    +0.000 OA
ATOM     21  H   UNL     1       1.360  10.061  24.008  0.00  0.00    +0.000 HD
ENDBRANCH  19  20
BRANCH  19  22
ATOM     22  C   UNL     1       0.537  11.038  21.512  0.00  0.00    +0.000 C 
BRANCH  22  23
ATOM     23  O   UNL     1       0.778  10.810  20.124  0.00  0.00    +0.000 OA
BRANCH  23  24
ATOM     24  C   UNL     1      -0.300  10.818  19.284  0.00  0.00    +0.000 A 
ATOM     25  C   UNL     1      -1.326  11.681  19.686  0.00  0.00    +0.000 A 
ATOM     26  C   UNL     1      -2.500  11.783  18.937  0.00  0.00    +0.000 A 
ATOM     27  C   UNL     1      -2.658  11.025  17.778  0.00  0.00    +0.000 A 
ATOM     28  C   UNL     1      -1.641  10.167  17.370  0.00  0.00    +0.000 A 
ATOM     29  C   UNL     1      -0.470  10.070  18.119  0.00  0.00    +0.000 A 
ATOM     30  F   UNL     1       0.475   9.225  17.685  0.00  0.00    +0.000 F 
ENDBRANCH  23  24
ENDBRANCH  22  23
ENDBRANCH  19  22
ENDBRANCH   1  19
TORSDOF 8
ENDMDL
MODEL 2
REMARK VINA RESULT:      -8.1      2.438      7.810
REMARK  Name = 
REMARK  9 active torsions:
REMARK  status: ('A' for Active; 'I' for Inactive)
REMARK    1  A    between atoms: C_1  and  C_2
REMARK    2  A    between atoms: C_2  and  O_3
REMARK    3  A    between atoms: C_2  and  C_4
REMARK    4  A    between atoms: C_2  and  C_13
REMARK    5  A    between atoms: C_4  and  O_5
REMARK    6  A    between atoms: O_5  and  C_6
REMARK    7  A    between atoms: N_15  and  C_16
REMARK    8  A    between atoms: C_19  and  N_20
REMARK    9  A    between atoms: C_23  and  C_24
REMARK                            x       y       z     vdW  Elec       q    Type
REMARK                         _______ _______ _______ _____ _____    ______ ____
ROOT
ATOM      1  C   UNL     1       4.314   5.420  18.352  0.00  0.00    +0.000 C 
ATOM      2  O   UNL     1       4.965   5.595  19.385  0.00  0.00    +0.000 OA
ATOM      3  N   UNL     1       3.061   5.977  18.137  0.00  0.00    +0.000 N 
ATOM      4  H   UNL     1       2.530   5.672  17.330  0.00  0.00    +0.000 HD
ENDROOT
BRANCH   3   5
ATOM      5  C   UNL     1       2.422   6.926  18.966  0.00  0.00    +0.000 A 
ATOM      6  C   UNL     1       1.958   6.623  20.248  0.00  0.00    +0.000 A 
ATOM      7  C   UNL     1       1.316   7.588  21.023  0.00  0.00    +0.000 A 
ATOM      8  C   UNL     1       1.129   8.872  20.502  0.00  0.00    +0.000 A 
ATOM      9  C   UNL     1       1.571   9.221  19.220  0.00  0.00    +0.000 A 
ATOM     10  C   UNL     1       2.251   8.230  18.473  0.00  0.00    +0.000 A 
BRANCH   9  11
ATOM     11  C   UNL     1       1.312  10.557  18.578  0.00  0.00    +0.000 C 
ATOM     12  F   UNL     1       0.038  10.778  18.170  0.00  0.00    +0.000 F 
ATOM     13  F   UNL     1       1.639  11.592  19.398  0.00  0.00    +0.000 F 
ATOM     14  F   UNL     1       2.077  10.721  17.461  0.00  0.00    +0.000 F 
ENDBRANCH   9  11
BRANCH   8  15
ATOM     15  N   UNL     1       0.482   9.833  21.377  0.00  0.00    +0.000 N 
ATOM     16  O   UNL     1       1.183  10.354  22.252  0.00  0.00    +0.000 OA
ATOM     17  O   UNL     1      -0.707  10.083  21.141  0.00  0.00    +0.000 OA
ENDBRANCH   8  15
ENDBRANCH   3   5
BRANCH   1  19
ATOM     18  C   UNL     1       5.234   5.210  16.038  0.00  0.00    +0.000 C 
ATOM     19  C   UNL     1       4.840   4.407  17.285  0.00  0.00    +0.000 C 
BRANCH  19  20
ATOM     20  O   UNL     1       6.042   3.784  17.771  0.00  0.00    +0.000 OA
ATOM     21  H   UNL     1       6.393   3.213  17.066  0.00  0.00    +0.000 HD
ENDBRANCH  19  20
BRANCH  19  22
ATOM     22  C   UNL     1       3.863   3.285  16.911  0.00  0.00    +0.000 C 
BRANCH  22  23
ATOM     23  O   UNL     1       3.864   2.285  17.929  0.00  0.00    +0.000 OA
BRANCH  23  24
ATOM     24  C   UNL     1       3.069   2.491  19.021  0.00  0.00    +0.000 A 
ATOM     25  C   UNL     1       1.735   2.774  18.706  0.00  0.00    +0.000 A 
ATOM     26  C   UNL     1       0.805   3.028  19.717  0.00  0.00    +0.000 A 
ATOM     27  C   UNL     1       1.202   2.998  21.053  0.00  0.00    +0.000 A 
ATOM     28  C   UNL     1       2.526   2.714  21.375  0.00  0.00    +0.000 A 
ATOM     29  C   UNL     1       3.448   2.460  20.363  0.00  0.00    +0.000 A 
ATOM     30  F   UNL     1       4.712   2.198  20.727  0.00  0.00    +0.000 F 
ENDBRANCH  23  24
ENDBRANCH  22  23
ENDBRANCH  19  22
ENDBRANCH   1  19
TORSDOF 8
ENDMDL
MODEL 3
REMARK VINA RESULT:      -8.0      2.639      7.312
REMARK  Name = 
REMARK  9 active torsions:
REMARK  status: ('A' for Active; 'I' for Inactive)
REMARK    1  A    between atoms: C_1  and  C_2
REMARK    2  A    between atoms: C_2  and  O_3
REMARK    3  A    between atoms: C_2  and  C_4
REMARK    4  A    between atoms: C_2  and  C_13
REMARK    5  A    between atoms: C_4  and  O_5
REMARK    6  A    between atoms: O_5  and  C_6
REMARK    7  A    between atoms: N_15  and  C_16
REMARK    8  A    between atoms: C_19  and  N_20
REMARK    9  A    between atoms: C_23  and  C_24
REMARK                            x       y       z     vdW  Elec       q    Type
REMARK                         _______ _______ _______ _____ _____    ______ ____
ROOT
ATOM      1  C   UNL     1       4.730   6.295  17.670  0.00  0.00    +0.000 C 
ATOM      2  O   UNL     1       5.357   7.332  17.435  0.00  0.00    +0.000 OA
ATOM      3  N   UNL     1       3.462   6.282  18.234  0.00  0.00    +0.000 N 
ATOM      4  H   UNL     1       3.075   5.394  18.529  0.00  0.00    +0.000 HD
ENDROOT
BRANCH   3   5
ATOM      5  C   UNL     1       2.649   7.413  18.474  0.00  0.00    +0.000 A 
ATOM      6  C   UNL     1       2.400   8.387  17.505  0.00  0.00    +0.000 A 
ATOM      7  C   UNL     1       1.605   9.495  17.793  0.00  0.00    +0.000 A 
ATOM      8  C   UNL     1       1.060   9.634  19.073  0.00  0.00    +0.000 A 
ATOM      9  C   UNL     1       1.288   8.686  20.079  0.00  0.00    +0.000 A 
ATOM     10  C   UNL     1       2.068   7.555  19.745  0.00  0.00    +0.000 A 
BRANCH   9  11
ATOM     11  C   UNL     1       0.803   8.835  21.496  0.00  0.00    +0.000 C 
ATOM     12  F   UNL     1       0.989  10.055  22.057  0.00  0.00    +0.000 F 
ATOM     13  F   UNL     1      -0.522   8.553  21.618  0.00  0.00    +0.000 F 
ATOM     14  F   UNL     1       1.441   7.962  22.327  0.00  0.00    +0.000 F 
ENDBRANCH   9  11
BRANCH   8  15
ATOM     15  N   UNL     1       0.217  10.796  19.291  0.00  0.00    +0.000 N 
ATOM     16  O   UNL     1       0.789  11.866  19.527  0.00  0.00    +0.000 OA
ATOM     17  O   UNL     1      -1.002  10.623  19.178  0.00  0.00    +0.000 OA
ENDBRANCH   8  15
ENDBRANCH   3   5
BRANCH   1  19
ATOM     18  C   UNL     1       4.977   4.350  16.121  0.00  0.00    +0.000 C 
ATOM     19  C   UNL     1       5.439   4.917  17.470  0.00  0.00    +0.000 C 
BRANCH  19  20
ATOM     20  O   UNL     1       6.859   5.123  17.365  0.00  0.00    +0.000 OA
ATOM     21  H   UNL     1       7.163   4.716  16.535  0.00  0.00    +0.000 HD
ENDBRANCH  19  20
BRANCH  19  22
ATOM     22  C   UNL     1       5.207   3.893  18.588  0.00  0.00    +0.000 C 
BRANCH  22  23
ATOM     23  O   UNL     1       4.049   3.113  18.295  0.00  0.00    +0.000 OA
BRANCH  23  24
ATOM     24  C   UNL     1       3.036   3.112  19.212  0.00  0.00    +0.000 A 
ATOM     25  C   UNL     1       3.430   2.702  20.491  0.00  0.00    +0.000 A 
ATOM     26  C   UNL     1       2.500   2.630  21.531  0.00  0.00    +0.000 A 
ATOM     27  C   UNL     1       1.168   2.971  21.300  0.00  0.00    +0.000 A 
ATOM     28  C   UNL     1       0.769   3.383  20.032  0.00  0.00    +0.000 A 
ATOM     29  C   UNL     1       1.701   3.455  18.999  0.00  0.00    +0.000 A 
ATOM     30  F   UNL     1       1.263   3.852  17.796  0.00  0.00    +0.000 F 
ENDBRANCH  23  24
ENDBRANCH  22  23
ENDBRANCH  19  22
ENDBRANCH   1  19
TORSDOF 8
ENDMDL
MODEL 4
REMARK VINA RESULT:      -8.0      3.214      7.364
REMARK  Name = 
REMARK  9 active torsions:
REMARK  status: ('A' for Active; 'I' for Inactive)
REMARK    1  A    between atoms: C_1  and  C_2
REMARK    2  A    between atoms: C_2  and  O_3
REMARK    3  A    between atoms: C_2  and  C_4
REMARK    4  A    between atoms: C_2  and  C_13
REMARK    5  A    between atoms: C_4  and  O_5
REMARK    6  A    between atoms: O_5  and  C_6
REMARK    7  A    between atoms: N_15  and  C_16
REMARK    8  A    between atoms: C_19  and  N_20
REMARK    9  A    between atoms: C_23  and  C_24
REMARK                            x       y       z     vdW  Elec       q    Type
REMARK                         _______ _______ _______ _____ _____    ______ ____
ROOT
ATOM      1  C   UNL     1       2.416   4.529  19.261  0.00  0.00    +0.000 C 
ATOM      2  O   UNL     1       1.292   4.400  18.770  0.00  0.00    +0.000 OA
ATOM      3  N   UNL     1       3.036   5.759  19.432  0.00  0.00    +0.000 N 
ATOM      4  H   UNL     1       4.011   5.774  19.707  0.00  0.00    +0.000 HD
ENDROOT
BRANCH   3   5
ATOM      5  C   UNL     1       2.441   7.024  19.227  0.00  0.00    +0.000 A 
ATOM      6  C   UNL     1       2.498   7.700  18.006  0.00  0.00    +0.000 A 
ATOM      7  C   UNL     1       1.911   8.955  17.855  0.00  0.00    +0.000 A 
ATOM      8  C   UNL     1       1.266   9.546  18.945  0.00  0.00    +0.000 A 
ATOM      9  C   UNL     1       1.188   8.910  20.191  0.00  0.00    +0.000 A 
ATOM     10  C   UNL     1       1.762   7.621  20.302  0.00  0.00    +0.000 A 
BRANCH   9  11
ATOM     11  C   UNL     1       0.588   9.541  21.419  0.00  0.00    +0.000 C 
ATOM     12  F   UNL     1      -0.745   9.780  21.366  0.00  0.00    +0.000 F 
ATOM     13  F   UNL     1       0.802   8.794  22.535  0.00  0.00    +0.000 F 
ATOM     14  F   UNL     1       1.158  10.753  21.675  0.00  0.00    +0.000 F 
ENDBRANCH   9  11
BRANCH   8  15
ATOM     15  N   UNL     1       0.650  10.839  18.706  0.00  0.00    +0.000 N 
ATOM     16  O   UNL     1       1.375  11.834  18.823  0.00  0.00    +0.000 OA
ATOM     17  O   UNL     1      -0.537  10.830  18.360  0.00  0.00    +0.000 OA
ENDBRANCH   8  15
ENDBRANCH   3   5
BRANCH   1  19
ATOM     18  C   UNL     1       2.954   2.838  21.021  0.00  0.00    +0.000 C 
ATOM     19  C   UNL     1       3.261   3.252  19.575  0.00  0.00    +0.000 C 
BRANCH  19  20
ATOM     20  O   UNL     1       2.819   2.172  18.736  0.00  0.00    +0.000 OA
ATOM     21  H   UNL     1       3.126   1.337  19.130  0.00  0.00    +0.000 HD
ENDBRANCH  19  20
BRANCH  19  22
ATOM     22  C   UNL     1       4.773   3.401  19.371  0.00  0.00    +0.000 C 
BRANCH  22  23
ATOM     23  O   UNL     1       5.035   3.930  18.072  0.00  0.00    +0.000 OA
BRANCH  23  24
ATOM     24  C   UNL     1       5.885   4.997  17.981  0.00  0.00    +0.000 A 
ATOM     25  C   UNL     1       6.873   5.020  18.972  0.00  0.00    +0.000 A 
ATOM     26  C   UNL     1       7.804   6.060  19.021  0.00  0.00    +0.000 A 
ATOM     27  C   UNL     1       7.755   7.085  18.077  0.00  0.00    +0.000 A 
ATOM     28  C   UNL     1       6.777   7.067  17.087  0.00  0.00    +0.000 A 
ATOM     29  C   UNL     1       5.853   6.027  17.041  0.00  0.00    +0.000 A 
ATOM     30  F   UNL     1       4.928   6.061  16.071  0.00  0.00    +0.000 F 
ENDBRANCH  23  24
ENDBRANCH  22  23
ENDBRANCH  19  22
ENDBRANCH   1  19
TORSDOF 8
ENDMDL
MODEL 5
REMARK VINA RESULT:      -8.0      3.267      7.464
REMARK  Name = 
REMARK  9 active torsions:
REMARK  status: ('A' for Active; 'I' for Inactive)
REMARK    1  A    between atoms: C_1  and  C_2
REMARK    2  A    between atoms: C_2  and  O_3
REMARK    3  A    between atoms: C_2  and  C_4
REMARK    4  A    between atoms: C_2  and  C_13
REMARK    5  A    between atoms: C_4  and  O_5
REMARK    6  A    between atoms: O_5  and  C_6
REMARK    7  A    between atoms: N_15  and  C_16
REMARK    8  A    between atoms: C_19  and  N_20
REMARK    9  A    between atoms: C_23  and  C_24
REMARK                            x       y       z     vdW  Elec       q    Type
REMARK                         _______ _______ _______ _____ _____    ______ ____
ROOT
ATOM      1  C   UNL     1       2.175   4.188  19.254  0.00  0.00    +0.000 C 
ATOM      2  O   UNL     1       1.100   4.157  18.650  0.00  0.00    +0.000 OA
ATOM      3  N   UNL     1       2.872   5.360  19.510  0.00  0.00    +0.000 N 
ATOM      4  H   UNL     1       3.812   5.290  19.882  0.00  0.00    +0.000 HD
ENDROOT
BRANCH   3   5
ATOM      5  C   UNL     1       2.406   6.672  19.270  0.00  0.00    +0.000 A 
ATOM      6  C   UNL     1       2.574   7.324  18.046  0.00  0.00    +0.000 A 
ATOM      7  C   UNL     1       2.113   8.626  17.861  0.00  0.00    +0.000 A 
ATOM      8  C   UNL     1       1.484   9.288  18.920  0.00  0.00    +0.000 A 
ATOM      9  C   UNL     1       1.300   8.678  20.167  0.00  0.00    +0.000 A 
ATOM     10  C   UNL     1       1.745   7.343  20.312  0.00  0.00    +0.000 A 
BRANCH   9  11
ATOM     11  C   UNL     1       0.715   9.377  21.364  0.00  0.00    +0.000 C 
ATOM     12  F   UNL     1       0.881   8.748  22.553  0.00  0.00    +0.000 F 
ATOM     13  F   UNL     1       1.214  10.633  21.520  0.00  0.00    +0.000 F 
ATOM     14  F   UNL     1      -0.634   9.534  21.230  0.00  0.00    +0.000 F 
ENDBRANCH   9  11
BRANCH   8  15
ATOM     15  N   UNL     1       1.002  10.630  18.645  0.00  0.00    +0.000 N 
ATOM     16  O   UNL     1       1.837  11.541  18.670  0.00  0.00    +0.000 OA
ATOM     17  O   UNL     1      -0.198  10.740  18.364  0.00  0.00    +0.000 OA
ENDBRANCH   8  15
ENDBRANCH   3   5
BRANCH   1  19
ATOM     18  C   UNL     1       2.958   2.770  21.158  0.00  0.00    +0.000 C 
ATOM     19  C   UNL     1       2.876   2.842  19.627  0.00  0.00    +0.000 C 
BRANCH  19  20
ATOM     20  O   UNL     1       2.049   1.742  19.208  0.00  0.00    +0.000 OA
ATOM     21  H   UNL     1       2.592   0.935  19.213  0.00  0.00    +0.000 HD
ENDBRANCH  19  20
BRANCH  19  22
ATOM     22  C   UNL     1       4.263   2.632  19.007  0.00  0.00    +0.000 C 
BRANCH  22  23
ATOM     23  O   UNL     1       5.151   3.656  19.455  0.00  0.00    +0.000 OA
BRANCH  23  24
ATOM     24  C   UNL     1       5.784   4.406  18.505  0.00  0.00    +0.000 A 
ATOM     25  C   UNL     1       5.341   4.161  17.200  0.00  0.00    +0.000 A 
ATOM     26  C   UNL     1       5.908   4.839  16.119  0.00  0.00    +0.000 A 
ATOM     27  C   UNL     1       6.922   5.771  16.333  0.00  0.00    +0.000 A 
ATOM     28  C   UNL     1       7.366   6.023  17.628  0.00  0.00    +0.000 A 
ATOM     29  C   UNL     1       6.795   5.346  18.703  0.00  0.00    +0.000 A 
ATOM     30  F   UNL     1       7.264   5.622  19.929  0.00  0.00    +0.000 F 
ENDBRANCH  23  24
ENDBRANCH  22  23
ENDBRANCH  19  22
ENDBRANCH   1  19
TORSDOF 8
ENDMDL
MODEL 6
REMARK VINA RESULT:      -7.9      3.263      7.575
REMARK  Name = 
REMARK  9 active torsions:
REMARK  status: ('A' for Active; 'I' for Inactive)
REMARK    1  A    between atoms: C_1  and  C_2
REMARK    2  A    between atoms: C_2  and  O_3
REMARK    3  A    between atoms: C_2  and  C_4
REMARK    4  A    between atoms: C_2  and  C_13
REMARK    5  A    between atoms: C_4  and  O_5
REMARK    6  A    between atoms: O_5  and  C_6
REMARK    7  A    between atoms: N_15  and  C_16
REMARK    8  A    between atoms: C_19  and  N_20
REMARK    9  A    between atoms: C_23  and  C_24
REMARK                            x       y       z     vdW  Elec       q    Type
REMARK                         _______ _______ _______ _____ _____    ______ ____
ROOT
ATOM      1  C   UNL     1       2.393   4.117  18.643  0.00  0.00    +0.000 C 
ATOM      2  O   UNL     1       1.317   4.241  18.051  0.00  0.00    +0.000 OA
ATOM      3  N   UNL     1       2.952   5.118  19.425  0.00  0.00    +0.000 N 
ATOM      4  H   UNL     1       3.901   4.996  19.758  0.00  0.00    +0.000 HD
ENDROOT
BRANCH   3   5
ATOM      5  C   UNL     1       2.329   6.334  19.786  0.00  0.00    +0.000 A 
ATOM      6  C   UNL     1       1.695   6.525  21.016  0.00  0.00    +0.000 A 
ATOM      7  C   UNL     1       1.079   7.737  21.322  0.00  0.00    +0.000 A 
ATOM      8  C   UNL     1       1.089   8.769  20.379  0.00  0.00    +0.000 A 
ATOM      9  C   UNL     1       1.706   8.621  19.130  0.00  0.00    +0.000 A 
ATOM     10  C   UNL     1       2.354   7.393  18.864  0.00  0.00    +0.000 A 
BRANCH   9  11
ATOM     11  C   UNL     1       1.664   9.665  18.046  0.00  0.00    +0.000 C 
ATOM     12  F   UNL     1       2.088  10.902  18.403  0.00  0.00    +0.000 F 
ATOM     13  F   UNL     1       2.398   9.305  16.959  0.00  0.00    +0.000 F 
ATOM     14  F   UNL     1       0.393   9.843  17.586  0.00  0.00    +0.000 F 
ENDBRANCH   9  11
BRANCH   8  15
ATOM     15  N   UNL     1       0.455  10.012  20.779  0.00  0.00    +0.000 N 
ATOM     16  O   UNL     1       1.148  10.814  21.415  0.00  0.00    +0.000 OA
ATOM     17  O   UNL     1      -0.713  10.182  20.407  0.00  0.00    +0.000 OA
ENDBRANCH   8  15
ENDBRANCH   3   5
BRANCH   1  19
ATOM     18  C   UNL     1       3.839   2.402  19.743  0.00  0.00    +0.000 C 
ATOM     19  C   UNL     1       3.255   2.838  18.393  0.00  0.00    +0.000 C 
BRANCH  19  20
ATOM     20  O   UNL     1       2.403   1.769  17.948  0.00  0.00    +0.000 OA
ATOM     21  H   UNL     1       1.922   1.423  18.720  0.00  0.00    +0.000 HD
ENDBRANCH  19  20
BRANCH  19  22
ATOM     22  C   UNL     1       4.372   2.995  17.354  0.00  0.00    +0.000 C 
BRANCH  22  23
ATOM     23  O   UNL     1       4.346   4.314  16.812  0.00  0.00    +0.000 OA
BRANCH  23  24
ATOM     24  C   UNL     1       5.373   5.155  17.139  0.00  0.00    +0.000 A 
ATOM     25  C   UNL     1       6.413   4.533  17.838  0.00  0.00    +0.000 A 
ATOM     26  C   UNL     1       7.524   5.269  18.258  0.00  0.00    +0.000 A 
ATOM     27  C   UNL     1       7.605   6.632  17.979  0.00  0.00    +0.000 A 
ATOM     28  C   UNL     1       6.576   7.257  17.281  0.00  0.00    +0.000 A 
ATOM     29  C   UNL     1       5.471   6.519  16.862  0.00  0.00    +0.000 A 
ATOM     30  F   UNL     1       4.506   7.170  16.199  0.00  0.00    +0.000 F 
ENDBRANCH  23  24
ENDBRANCH  22  23
ENDBRANCH  19  22
ENDBRANCH   1  19
TORSDOF 8
ENDMDL
MODEL 7
REMARK VINA RESULT:      -7.9      3.269      7.584
REMARK  Name = 
REMARK  9 active torsions:
REMARK  status: ('A' for Active; 'I' for Inactive)
REMARK    1  A    between atoms: C_1  and  C_2
REMARK    2  A    between atoms: C_2  and  O_3
REMARK    3  A    between atoms: C_2  and  C_4
REMARK    4  A    between atoms: C_2  and  C_13
REMARK    5  A    between atoms: C_4  and  O_5
REMARK    6  A    between atoms: O_5  and  C_6
REMARK    7  A    between atoms: N_15  and  C_16
REMARK    8  A    between atoms: C_19  and  N_20
REMARK    9  A    between atoms: C_23  and  C_24
REMARK                            x       y       z     vdW  Elec       q    Type
REMARK                         _______ _______ _______ _____ _____    ______ ____
ROOT
ATOM      1  C   UNL     1       2.319   4.460  19.202  0.00  0.00    +0.000 C 
ATOM      2  O   UNL     1       1.520   4.408  18.264  0.00  0.00    +0.000 OA
ATOM      3  N   UNL     1       2.765   5.650  19.759  0.00  0.00    +0.000 N 
ATOM      4  H   UNL     1       3.527   5.615  20.425  0.00  0.00    +0.000 HD
ENDROOT
BRANCH   3   5
ATOM      5  C   UNL     1       2.275   6.941  19.460  0.00  0.00    +0.000 A 
ATOM      6  C   UNL     1       2.442   7.546  18.212  0.00  0.00    +0.000 A 
ATOM      7  C   UNL     1       1.955   8.829  17.968  0.00  0.00    +0.000 A 
ATOM      8  C   UNL     1       1.302   9.520  18.992  0.00  0.00    +0.000 A 
ATOM      9  C   UNL     1       1.116   8.958  20.262  0.00  0.00    +0.000 A 
ATOM     10  C   UNL     1       1.588   7.640  20.466  0.00  0.00    +0.000 A 
BRANCH   9  11
ATOM     11  C   UNL     1       0.504   9.693  21.424  0.00  0.00    +0.000 C 
ATOM     12  F   UNL     1      -0.797  10.046  21.278  0.00  0.00    +0.000 F 
ATOM     13  F   UNL     1       0.583   8.981  22.580  0.00  0.00    +0.000 F 
ATOM     14  F   UNL     1       1.164  10.861  21.667  0.00  0.00    +0.000 F 
ENDBRANCH   9  11
BRANCH   8  15
ATOM     15  N   UNL     1       0.794  10.839  18.658  0.00  0.00    +0.000 N 
ATOM     16  O   UNL     1      -0.398  10.916  18.341  0.00  0.00    +0.000 OA
ATOM     17  O   UNL     1       1.590  11.780  18.762  0.00  0.00    +0.000 OA
ENDBRANCH   8  15
ENDBRANCH   3   5
BRANCH   1  19
ATOM     18  C   UNL     1       2.748   3.044  21.216  0.00  0.00    +0.000 C 
ATOM     19  C   UNL     1       2.989   3.140  19.704  0.00  0.00    +0.000 C 
BRANCH  19  20
ATOM     20  O   UNL     1       2.323   2.012  19.109  0.00  0.00    +0.000 OA
ATOM     21  H   UNL     1       1.406   2.273  18.910  0.00  0.00    +0.000 HD
ENDBRANCH  19  20
BRANCH  19  22
ATOM     22  C   UNL     1       4.484   3.004  19.391  0.00  0.00    +0.000 C 
BRANCH  22  23
ATOM     23  O   UNL     1       5.018   4.276  19.026  0.00  0.00    +0.000 OA
BRANCH  23  24
ATOM     24  C   UNL     1       5.640   4.378  17.814  0.00  0.00    +0.000 A 
ATOM     25  C   UNL     1       4.798   4.139  16.722  0.00  0.00    +0.000 A 
ATOM     26  C   UNL     1       5.296   4.188  15.418  0.00  0.00    +0.000 A 
ATOM     27  C   UNL     1       6.641   4.480  15.195  0.00  0.00    +0.000 A 
ATOM     28  C   UNL     1       7.484   4.722  16.276  0.00  0.00    +0.000 A 
ATOM     29  C   UNL     1       6.982   4.674  17.574  0.00  0.00    +0.000 A 
ATOM     30  F   UNL     1       7.838   4.909  18.579  0.00  0.00    +0.000 F 
ENDBRANCH  23  24
ENDBRANCH  22  23
ENDBRANCH  19  22
ENDBRANCH   1  19
TORSDOF 8
ENDMDL
MODEL 8
REMARK VINA RESULT:      -7.9      2.763      7.564
REMARK  Name = 
REMARK  9 active torsions:
REMARK  status: ('A' for Active; 'I' for Inactive)
REMARK    1  A    between atoms: C_1  and  C_2
REMARK    2  A    between atoms: C_2  and  O_3
REMARK    3  A    between atoms: C_2  and  C_4
REMARK    4  A    between atoms: C_2  and  C_13
REMARK    5  A    between atoms: C_4  and  O_5
REMARK    6  A    between atoms: O_5  and  C_6
REMARK    7  A    between atoms: N_15  and  C_16
REMARK    8  A    between atoms: C_19  and  N_20
REMARK    9  A    between atoms: C_23  and  C_24
REMARK                            x       y       z     vdW  Elec       q    Type
REMARK                         _______ _______ _______ _____ _____    ______ ____
ROOT
ATOM      1  C   UNL     1       2.061   4.338  19.845  0.00  0.00    +0.000 C 
ATOM      2  O   UNL     1       1.239   4.400  18.927  0.00  0.00    +0.000 OA
ATOM      3  N   UNL     1       2.467   5.444  20.580  0.00  0.00    +0.000 N 
ATOM      4  H   UNL     1       3.248   5.339  21.217  0.00  0.00    +0.000 HD
ENDROOT
BRANCH   3   5
ATOM      5  C   UNL     1       1.909   6.740  20.505  0.00  0.00    +0.000 A 
ATOM      6  C   UNL     1       1.115   7.283  21.517  0.00  0.00    +0.000 A 
ATOM      7  C   UNL     1       0.572   8.561  21.392  0.00  0.00    +0.000 A 
ATOM      8  C   UNL     1       0.820   9.300  20.232  0.00  0.00    +0.000 A 
ATOM      9  C   UNL     1       1.604   8.795  19.187  0.00  0.00    +0.000 A 
ATOM     10  C   UNL     1       2.172   7.511  19.360  0.00  0.00    +0.000 A 
BRANCH   9  11
ATOM     11  C   UNL     1       1.824   9.511  17.881  0.00  0.00    +0.000 C 
ATOM     12  F   UNL     1       2.450  10.710  17.965  0.00  0.00    +0.000 F 
ATOM     13  F   UNL     1       2.541   8.762  17.000  0.00  0.00    +0.000 F 
ATOM     14  F   UNL     1       0.638   9.770  17.260  0.00  0.00    +0.000 F 
ENDBRANCH   9  11
BRANCH   8  15
ATOM     15  N   UNL     1       0.248  10.634  20.184  0.00  0.00    +0.000 N 
ATOM     16  O   UNL     1      -0.915  10.731  19.776  0.00  0.00    +0.000 OA
ATOM     17  O   UNL     1       0.961  11.556  20.600  0.00  0.00    +0.000 OA
ENDBRANCH   8  15
ENDBRANCH   3   5
BRANCH   1  19
ATOM     18  C   UNL     1       2.566   2.612  21.580  0.00  0.00    +0.000 C 
ATOM     19  C   UNL     1       2.804   2.989  20.112  0.00  0.00    +0.000 C 
BRANCH  19  20
ATOM     20  O   UNL     1       2.204   1.951  19.317  0.00  0.00    +0.000 OA
ATOM     21  H   UNL     1       2.104   1.161  19.878  0.00  0.00    +0.000 HD
ENDBRANCH  19  20
BRANCH  19  22
ATOM     22  C   UNL     1       4.305   2.996  19.798  0.00  0.00    +0.000 C 
BRANCH  22  23
ATOM     23  O   UNL     1       4.684   4.269  19.279  0.00  0.00    +0.000 OA
BRANCH  23  24
ATOM     24  C   UNL     1       5.272   4.302  18.046  0.00  0.00    +0.000 A 
ATOM     25  C   UNL     1       6.632   4.631  18.074  0.00  0.00    +0.000 A 
ATOM     26  C   UNL     1       7.364   4.723  16.889  0.00  0.00    +0.000 A 
ATOM     27  C   UNL     1       6.743   4.484  15.664  0.00  0.00    +0.000 A 
ATOM     28  C   UNL     1       5.392   4.153  15.627  0.00  0.00    +0.000 A 
ATOM     29  C   UNL     1       4.666   4.060  16.812  0.00  0.00    +0.000 A 
ATOM     30  F   UNL     1       3.366   3.744  16.721  0.00  0.00    +0.000 F 
ENDBRANCH  23  24
ENDBRANCH  22  23
ENDBRANCH  19  22
ENDBRANCH   1  19
TORSDOF 8
ENDMDL
MODEL 9
REMARK VINA RESULT:      -7.9      2.762      7.535
REMARK  Name = 
REMARK  9 active torsions:
REMARK  status: ('A' for Active; 'I' for Inactive)
REMARK    1  A    between atoms: C_1  and  C_2
REMARK    2  A    between atoms: C_2  and  O_3
REMARK    3  A    between atoms: C_2  and  C_4
REMARK    4  A    between atoms: C_2  and  C_13
REMARK    5  A    between atoms: C_4  and  O_5
REMARK    6  A    between atoms: O_5  and  C_6
REMARK    7  A    between atoms: N_15  and  C_16
REMARK    8  A    between atoms: C_19  and  N_20
REMARK    9  A    between atoms: C_23  and  C_24
REMARK                            x       y       z     vdW  Elec       q    Type
REMARK                         _______ _______ _______ _____ _____    ______ ____
ROOT
ATOM      1  C   UNL     1       4.433   6.006  17.474  0.00  0.00    +0.000 C 
ATOM      2  O   UNL     1       5.246   6.930  17.396  0.00  0.00    +0.000 OA
ATOM      3  N   UNL     1       3.150   6.160  17.980  0.00  0.00    +0.000 N 
ATOM      4  H   UNL     1       2.594   5.329  18.146  0.00  0.00    +0.000 HD
ENDROOT
BRANCH   3   5
ATOM      5  C   UNL     1       2.536   7.385  18.326  0.00  0.00    +0.000 A 
ATOM      6  C   UNL     1       2.505   8.486  17.468  0.00  0.00    +0.000 A 
ATOM      7  C   UNL     1       1.902   9.681  17.859  0.00  0.00    +0.000 A 
ATOM      8  C   UNL     1       1.332   9.776  19.132  0.00  0.00    +0.000 A 
ATOM      9  C   UNL     1       1.345   8.701  20.029  0.00  0.00    +0.000 A 
ATOM     10  C   UNL     1       1.931   7.491  19.589  0.00  0.00    +0.000 A 
BRANCH   9  11
ATOM     11  C   UNL     1       0.829   8.781  21.441  0.00  0.00    +0.000 C 
ATOM     12  F   UNL     1       1.110   9.928  22.107  0.00  0.00    +0.000 F 
ATOM     13  F   UNL     1      -0.520   8.618  21.504  0.00  0.00    +0.000 F 
ATOM     14  F   UNL     1       1.354   7.785  22.212  0.00  0.00    +0.000 F 
ENDBRANCH   9  11
BRANCH   8  15
ATOM     15  N   UNL     1       0.695  11.039  19.459  0.00  0.00    +0.000 N 
ATOM     16  O   UNL     1       1.438  11.977  19.768  0.00  0.00    +0.000 OA
ATOM     17  O   UNL     1      -0.537  11.080  19.356  0.00  0.00    +0.000 OA
ENDBRANCH   8  15
ENDBRANCH   3   5
BRANCH   1  19
ATOM     18  C   UNL     1       5.705   4.620  15.829  0.00  0.00    +0.000 C 
ATOM     19  C   UNL     1       4.898   4.553  17.133  0.00  0.00    +0.000 C 
BRANCH  19  20
ATOM     20  O   UNL     1       5.802   4.091  18.152  0.00  0.00    +0.000 OA
ATOM     21  H   UNL     1       6.416   3.455  17.746  0.00  0.00    +0.000 HD
ENDBRANCH  19  20
BRANCH  19  22
ATOM     22  C   UNL     1       3.775   3.517  17.014  0.00  0.00    +0.000 C 
BRANCH  22  23
ATOM     23  O   UNL     1       3.907   2.541  18.046  0.00  0.00    +0.000 OA
BRANCH  23  24
ATOM     24  C   UNL     1       3.108   2.670  19.147  0.00  0.00    +0.000 A 
ATOM     25  C   UNL     1       1.795   3.054  18.854  0.00  0.00    +0.000 A 
ATOM     26  C   UNL     1       0.866   3.245  19.879  0.00  0.00    +0.000 A 
ATOM     27  C   UNL     1       1.242   3.052  21.207  0.00  0.00    +0.000 A 
ATOM     28  C   UNL     1       2.545   2.667  21.507  0.00  0.00    +0.000 A 
ATOM     29  C   UNL     1       3.467   2.475  20.481  0.00  0.00    +0.000 A 
ATOM     30  F   UNL     1       4.711   2.111  20.826  0.00  0.00    +0.000 F 
ENDBRANCH  23  24
ENDBRANCH  22  23
ENDBRANCH  19  22
ENDBRANCH   1  19
TORSDOF 8
ENDMDL
