MODEL 1
REMARK VINA RESULT:      -5.9      0.000      0.000
REMARK  Name = 
REMARK  8 active torsions:
REMARK  status: ('A' for Active; 'I' for Inactive)
REMARK    1  A    between atoms: C_1  and  C_2
REMARK    2  A    between atoms: N_5  and  C_6
REMARK    3  A    between atoms: C_6  and  C_7
REMARK    4  A    between atoms: C_7  and  O_8
REMARK    5  A    between atoms: O_8  and  C_9
REMARK    6  A    between atoms: C_9  and  C_10
REMARK    7  A    between atoms: C_10  and  S_11
REMARK    8  A    between atoms: S_11  and  C_12
REMARK                            x       y       z     vdW  Elec       q    Type
REMARK                         _______ _______ _______ _____ _____    ______ ____
ROOT
ATOM      1  O   UNL     1       1.723   4.239  17.813  0.00  0.00    +0.000 OA
ENDROOT
BRANCH   1   2
ATOM      2  C   UNL     1       2.806   3.596  17.132  0.00  0.00    +0.000 C 
BRANCH   2   3
ATOM      3  C   UNL     1       4.001   4.547  17.007  0.00  0.00    +0.000 C 
BRANCH   3   8
ATOM      4  C   UNL     1       7.516   7.623  17.570  0.00  0.00    +0.000 C 
ATOM      5  C   UNL     1       7.254   6.121  17.556  0.00  0.00    +0.000 C 
ATOM      6  C   UNL     1       6.739   5.666  16.182  0.00  0.00    +0.000 C 
ATOM      7  C   UNL     1       6.271   4.206  16.196  0.00  0.00    +0.000 C 
ATOM      8  N   UNL     1       5.307   3.906  17.267  0.00  0.00    +0.000 NA
ATOM      9  C   UNL     1       5.899   4.255  18.568  0.00  0.00    +0.000 C 
ATOM     10  C   UNL     1       6.278   5.731  18.674  0.00  0.00    +0.000 C 
ENDBRANCH   3   8
ENDBRANCH   2   3
ENDBRANCH   1   2
BRANCH   1  11
ATOM     11  C   UNL     1       1.435   3.528  19.021  0.00  0.00    +0.000 C 
BRANCH  11  12
ATOM     12  C   UNL     1       1.147   4.510  20.146  0.00  0.00    +0.000 C 
BRANCH  12  13
ATOM     13  S   UNL     1       2.640   5.529  20.397  0.00  0.00    +0.000 S 
BRANCH  13  14
ATOM     14  C   UNL     1       2.112   7.149  19.879  0.00  0.00    +0.000 A 
ATOM     15  C   UNL     1       2.294   7.653  18.588  0.00  0.00    +0.000 A 
ATOM     16  C   UNL     1       1.798   8.916  18.243  0.00  0.00    +0.000 A 
ATOM     17  C   UNL     1       1.111   9.673  19.191  0.00  0.00    +0.000 A 
ATOM     18 CL   UNL     1       0.488  11.218  18.759  0.00  0.00    +0.000 Cl
ATOM     19  C   UNL     1       0.917   9.182  20.475  0.00  0.00    +0.000 A 
ATOM     20  C   UNL     1       1.415   7.921  20.817  0.00  0.00    +0.000 A 
ENDBRANCH  13  14
ENDBRANCH  12  13
ENDBRANCH  11  12
ENDBRANCH   1  11
TORSDOF 7
ENDMDL
MODEL 2
REMARK VINA RESULT:      -5.9      4.908      7.164
REMARK  Name = 
REMARK  8 active torsions:
REMARK  status: ('A' for Active; 'I' for Inactive)
REMARK    1  A    between atoms: C_1  and  C_2
REMARK    2  A    between atoms: N_5  and  C_6
REMARK    3  A    between atoms: C_6  and  C_7
REMARK    4  A    between atoms: C_7  and  O_8
REMARK    5  A    between atoms: O_8  and  C_9
REMARK    6  A    between atoms: C_9  and  C_10
REMARK    7  A    between atoms: C_10  and  S_11
REMARK    8  A    between atoms: S_11  and  C_12
REMARK                            x       y       z     vdW  Elec       q    Type
REMARK                         _______ _______ _______ _____ _____    ______ ____
ROOT
ATOM      1  O   UNL     1       7.811   8.238  17.810  0.00  0.00    +0.000 OA
ENDROOT
BRANCH   1   2
ATOM      2  C   UNL     1       8.734   8.971  18.625  0.00  0.00    +0.000 C 
BRANCH   2   3
ATOM      3  C   UNL     1       8.888  10.403  18.103  0.00  0.00    +0.000 C 
BRANCH   3   8
ATOM      4  C   UNL     1      12.276  13.384  16.770  0.00  0.00    +0.000 C 
ATOM      5  C   UNL     1      11.389  13.065  17.970  0.00  0.00    +0.000 C 
ATOM      6  C   UNL     1      11.668  11.650  18.497  0.00  0.00    +0.000 C 
ATOM      7  C   UNL     1      10.654  11.224  19.565  0.00  0.00    +0.000 C 
ATOM      8  N   UNL     1       9.252  11.385  19.147  0.00  0.00    +0.000 NA
ATOM      9  C   UNL     1       9.016  12.784  18.763  0.00  0.00    +0.000 C 
ATOM     10  C   UNL     1       9.909  13.246  17.612  0.00  0.00    +0.000 C 
ENDBRANCH   3   8
ENDBRANCH   2   3
ENDBRANCH   1   2
BRANCH   1  11
ATOM     11  C   UNL     1       7.730   6.890  18.285  0.00  0.00    +0.000 C 
BRANCH  11  12
ATOM     12  C   UNL     1       7.110   6.001  17.218  0.00  0.00    +0.000 C 
BRANCH  12  13
ATOM     13  S   UNL     1       5.558   6.786  16.664  0.00  0.00    +0.000 S 
BRANCH  13  14
ATOM     14  C   UNL     1       4.307   5.671  17.266  0.00  0.00    +0.000 A 
ATOM     15  C   UNL     1       3.190   6.075  18.002  0.00  0.00    +0.000 A 
ATOM     16  C   UNL     1       2.220   5.142  18.390  0.00  0.00    +0.000 A 
ATOM     17  C   UNL     1       2.366   3.803  18.033  0.00  0.00    +0.000 A 
ATOM     18 CL   UNL     1       1.164   2.662  18.497  0.00  0.00    +0.000 Cl
ATOM     19  C   UNL     1       3.468   3.388  17.296  0.00  0.00    +0.000 A 
ATOM     20  C   UNL     1       4.435   4.321  16.911  0.00  0.00    +0.000 A 
ENDBRANCH  13  14
ENDBRANCH  12  13
ENDBRANCH  11  12
ENDBRANCH   1  11
TORSDOF 7
ENDMDL
MODEL 3
REMARK VINA RESULT:      -5.9      2.199      4.063
REMARK  Name = 
REMARK  8 active torsions:
REMARK  status: ('A' for Active; 'I' for Inactive)
REMARK    1  A    between atoms: C_1  and  C_2
REMARK    2  A    between atoms: N_5  and  C_6
REMARK    3  A    between atoms: C_6  and  C_7
REMARK    4  A    between atoms: C_7  and  O_8
REMARK    5  A    between atoms: O_8  and  C_9
REMARK    6  A    between atoms: C_9  and  C_10
REMARK    7  A    between atoms: C_10  and  S_11
REMARK    8  A    between atoms: S_11  and  C_12
REMARK                            x       y       z     vdW  Elec       q    Type
REMARK                         _______ _______ _______ _____ _____    ______ ____
ROOT
ATOM      1  O   UNL     1       4.586   6.019  16.488  0.00  0.00    +0.000 OA
ENDROOT
BRANCH   1   2
ATOM      2  C   UNL     1       5.129   4.804  17.018  0.00  0.00    +0.000 C 
BRANCH   2   3
ATOM      3  C   UNL     1       4.079   3.689  16.988  0.00  0.00    +0.000 C 
BRANCH   3   8
ATOM      4  C   UNL     1       0.861   4.062  20.399  0.00  0.00    +0.000 C 
ATOM      5  C   UNL     1       2.075   3.224  20.009  0.00  0.00    +0.000 C 
ATOM      6  C   UNL     1       3.341   4.092  19.942  0.00  0.00    +0.000 C 
ATOM      7  C   UNL     1       4.532   3.327  19.352  0.00  0.00    +0.000 C 
ATOM      8  N   UNL     1       4.241   2.685  18.060  0.00  0.00    +0.000 NA
ATOM      9  C   UNL     1       3.091   1.780  18.214  0.00  0.00    +0.000 C 
ATOM     10  C   UNL     1       1.826   2.498  18.681  0.00  0.00    +0.000 C 
ENDBRANCH   3   8
ENDBRANCH   2   3
ENDBRANCH   1   2
BRANCH   1  11
ATOM     11  C   UNL     1       4.430   6.968  17.548  0.00  0.00    +0.000 C 
BRANCH  11  12
ATOM     12  C   UNL     1       2.990   6.969  18.037  0.00  0.00    +0.000 C 
BRANCH  12  13
ATOM     13  S   UNL     1       2.323   8.653  17.817  0.00  0.00    +0.000 S 
BRANCH  13  14
ATOM     14  C   UNL     1       1.446   8.939  19.340  0.00  0.00    +0.000 A 
ATOM     15  C   UNL     1       1.557   8.123  20.470  0.00  0.00    +0.000 A 
ATOM     16  C   UNL     1       0.877   8.448  21.650  0.00  0.00    +0.000 A 
ATOM     17  C   UNL     1       0.092   9.599  21.701  0.00  0.00    +0.000 A 
ATOM     18 CL   UNL     1      -0.728  10.005  23.159  0.00  0.00    +0.000 Cl
ATOM     19  C   UNL     1      -0.022  10.423  20.589  0.00  0.00    +0.000 A 
ATOM     20  C   UNL     1       0.656  10.094  19.412  0.00  0.00    +0.000 A 
ENDBRANCH  13  14
ENDBRANCH  12  13
ENDBRANCH  11  12
ENDBRANCH   1  11
TORSDOF 7
ENDMDL
MODEL 4
REMARK VINA RESULT:      -5.9      0.999      1.717
REMARK  Name = 
REMARK  8 active torsions:
REMARK  status: ('A' for Active; 'I' for Inactive)
REMARK    1  A    between atoms: C_1  and  C_2
REMARK    2  A    between atoms: N_5  and  C_6
REMARK    3  A    between atoms: C_6  and  C_7
REMARK    4  A    between atoms: C_7  and  O_8
REMARK    5  A    between atoms: O_8  and  C_9
REMARK    6  A    between atoms: C_9  and  C_10
REMARK    7  A    between atoms: C_10  and  S_11
REMARK    8  A    between atoms: S_11  and  C_12
REMARK                            x       y       z     vdW  Elec       q    Type
REMARK                         _______ _______ _______ _____ _____    ______ ____
ROOT
ATOM      1  O   UNL     1       3.017   3.907  18.632  0.00  0.00    +0.000 OA
ENDROOT
BRANCH   1   2
ATOM      2  C   UNL     1       3.127   3.753  17.212  0.00  0.00    +0.000 C 
BRANCH   2   3
ATOM      3  C   UNL     1       4.582   3.478  16.814  0.00  0.00    +0.000 C 
BRANCH   3   8
ATOM      4  C   UNL     1       7.853   6.068  18.988  0.00  0.00    +0.000 C 
ATOM      5  C   UNL     1       7.158   5.937  17.636  0.00  0.00    +0.000 C 
ATOM      6  C   UNL     1       5.649   6.195  17.768  0.00  0.00    +0.000 C 
ATOM      7  C   UNL     1       4.894   5.868  16.474  0.00  0.00    +0.000 C 
ATOM      8  N   UNL     1       5.173   4.521  15.951  0.00  0.00    +0.000 NA
ATOM      9  C   UNL     1       6.621   4.373  15.737  0.00  0.00    +0.000 C 
ATOM     10  C   UNL     1       7.436   4.562  17.016  0.00  0.00    +0.000 C 
ENDBRANCH   3   8
ENDBRANCH   2   3
ENDBRANCH   1   2
BRANCH   1  11
ATOM     11  C   UNL     1       1.834   3.244  19.088  0.00  0.00    +0.000 C 
BRANCH  11  12
ATOM     12  C   UNL     1       1.055   4.157  20.023  0.00  0.00    +0.000 C 
BRANCH  12  13
ATOM     13  S   UNL     1       2.251   5.237  20.879  0.00  0.00    +0.000 S 
BRANCH  13  14
ATOM     14  C   UNL     1       1.842   6.857  20.263  0.00  0.00    +0.000 A 
ATOM     15  C   UNL     1       1.187   7.836  21.016  0.00  0.00    +0.000 A 
ATOM     16  C   UNL     1       0.952   9.106  20.477  0.00  0.00    +0.000 A 
ATOM     17  C   UNL     1       1.382   9.399  19.183  0.00  0.00    +0.000 A 
ATOM     18 CL   UNL     1       1.107  10.967  18.530  0.00  0.00    +0.000 Cl
ATOM     19  C   UNL     1       2.039   8.439  18.426  0.00  0.00    +0.000 A 
ATOM     20  C   UNL     1       2.271   7.170  18.967  0.00  0.00    +0.000 A 
ENDBRANCH  13  14
ENDBRANCH  12  13
ENDBRANCH  11  12
ENDBRANCH   1  11
TORSDOF 7
ENDMDL
MODEL 5
REMARK VINA RESULT:      -5.8      1.036      1.355
REMARK  Name = 
REMARK  8 active torsions:
REMARK  status: ('A' for Active; 'I' for Inactive)
REMARK    1  A    between atoms: C_1  and  C_2
REMARK    2  A    between atoms: N_5  and  C_6
REMARK    3  A    between atoms: C_6  and  C_7
REMARK    4  A    between atoms: C_7  and  O_8
REMARK    5  A    between atoms: O_8  and  C_9
REMARK    6  A    between atoms: C_9  and  C_10
REMARK    7  A    between atoms: C_10  and  S_11
REMARK    8  A    between atoms: S_11  and  C_12
REMARK                            x       y       z     vdW  Elec       q    Type
REMARK                         _______ _______ _______ _____ _____    ______ ____
ROOT
ATOM      1  O   UNL     1       2.545   2.535  17.671  0.00  0.00    +0.000 OA
ENDROOT
BRANCH   1   2
ATOM      2  C   UNL     1       3.125   3.381  16.671  0.00  0.00    +0.000 C 
BRANCH   2   3
ATOM      3  C   UNL     1       4.624   3.570  16.932  0.00  0.00    +0.000 C 
BRANCH   3   8
ATOM      4  C   UNL     1       7.928   6.214  18.987  0.00  0.00    +0.000 C 
ATOM      5  C   UNL     1       7.266   5.997  17.630  0.00  0.00    +0.000 C 
ATOM      6  C   UNL     1       5.765   6.317  17.694  0.00  0.00    +0.000 C 
ATOM      7  C   UNL     1       5.034   5.911  16.408  0.00  0.00    +0.000 C 
ATOM      8  N   UNL     1       5.278   4.517  16.005  0.00  0.00    +0.000 NA
ATOM      9  C   UNL     1       6.724   4.301  15.848  0.00  0.00    +0.000 C 
ATOM     10  C   UNL     1       7.510   4.566  17.132  0.00  0.00    +0.000 C 
ENDBRANCH   3   8
ENDBRANCH   2   3
ENDBRANCH   1   2
BRANCH   1  11
ATOM     11  C   UNL     1       2.748   3.121  18.961  0.00  0.00    +0.000 C 
BRANCH  11  12
ATOM     12  C   UNL     1       1.879   4.361  19.110  0.00  0.00    +0.000 C 
BRANCH  12  13
ATOM     13  S   UNL     1       2.711   5.493  20.274  0.00  0.00    +0.000 S 
BRANCH  13  14
ATOM     14  C   UNL     1       2.168   7.099  19.728  0.00  0.00    +0.000 A 
ATOM     15  C   UNL     1       2.308   7.567  18.419  0.00  0.00    +0.000 A 
ATOM     16  C   UNL     1       1.803   8.822  18.056  0.00  0.00    +0.000 A 
ATOM     17  C   UNL     1       1.149   9.605  19.005  0.00  0.00    +0.000 A 
ATOM     18 CL   UNL     1       0.515  11.139  18.551  0.00  0.00    +0.000 Cl
ATOM     19  C   UNL     1       0.997   9.151  20.308  0.00  0.00    +0.000 A 
ATOM     20  C   UNL     1       1.504   7.899  20.668  0.00  0.00    +0.000 A 
ENDBRANCH  13  14
ENDBRANCH  12  13
ENDBRANCH  11  12
ENDBRANCH   1  11
TORSDOF 7
ENDMDL
MODEL 6
REMARK VINA RESULT:      -5.8      2.245      4.052
REMARK  Name = 
REMARK  8 active torsions:
REMARK  status: ('A' for Active; 'I' for Inactive)
REMARK    1  A    between atoms: C_1  and  C_2
REMARK    2  A    between atoms: N_5  and  C_6
REMARK    3  A    between atoms: C_6  and  C_7
REMARK    4  A    between atoms: C_7  and  O_8
REMARK    5  A    between atoms: O_8  and  C_9
REMARK    6  A    between atoms: C_9  and  C_10
REMARK    7  A    between atoms: C_10  and  S_11
REMARK    8  A    between atoms: S_11  and  C_12
REMARK                            x       y       z     vdW  Elec       q    Type
REMARK                         _______ _______ _______ _____ _____    ______ ____
ROOT
ATOM      1  O   UNL     1       4.109   5.849  16.973  0.00  0.00    +0.000 OA
ENDROOT
BRANCH   1   2
ATOM      2  C   UNL     1       4.620   4.514  16.876  0.00  0.00    +0.000 C 
BRANCH   2   3
ATOM      3  C   UNL     1       4.872   3.934  18.272  0.00  0.00    +0.000 C 
BRANCH   3   8
ATOM      4  C   UNL     1       0.675   3.759  20.390  0.00  0.00    +0.000 C 
ATOM      5  C   UNL     1       1.740   2.838  19.804  0.00  0.00    +0.000 C 
ATOM      6  C   UNL     1       3.067   2.979  20.566  0.00  0.00    +0.000 C 
ATOM      7  C   UNL     1       4.210   2.226  19.875  0.00  0.00    +0.000 C 
ATOM      8  N   UNL     1       4.361   2.559  18.449  0.00  0.00    +0.000 NA
ATOM      9  C   UNL     1       3.094   2.295  17.751  0.00  0.00    +0.000 C 
ATOM     10  C   UNL     1       1.926   3.109  18.306  0.00  0.00    +0.000 C 
ENDBRANCH   3   8
ENDBRANCH   2   3
ENDBRANCH   1   2
BRANCH   1  11
ATOM     11  C   UNL     1       3.906   6.178  18.351  0.00  0.00    +0.000 C 
BRANCH  11  12
ATOM     12  C   UNL     1       2.454   6.566  18.584  0.00  0.00    +0.000 C 
BRANCH  12  13
ATOM     13  S   UNL     1       2.257   8.316  18.105  0.00  0.00    +0.000 S 
BRANCH  13  14
ATOM     14  C   UNL     1       1.379   9.014  19.488  0.00  0.00    +0.000 A 
ATOM     15  C   UNL     1       0.584  10.161  19.410  0.00  0.00    +0.000 A 
ATOM     16  C   UNL     1      -0.120  10.615  20.532  0.00  0.00    +0.000 A 
ATOM     17  C   UNL     1      -0.035   9.912  21.733  0.00  0.00    +0.000 A 
ATOM     18 CL   UNL     1      -0.916  10.462  23.105  0.00  0.00    +0.000 Cl
ATOM     19  C   UNL     1       0.745   8.767  21.824  0.00  0.00    +0.000 A 
ATOM     20  C   UNL     1       1.449   8.318  20.702  0.00  0.00    +0.000 A 
ENDBRANCH  13  14
ENDBRANCH  12  13
ENDBRANCH  11  12
ENDBRANCH   1  11
TORSDOF 7
ENDMDL
MODEL 7
REMARK VINA RESULT:      -5.8      1.856      2.436
REMARK  Name = 
REMARK  8 active torsions:
REMARK  status: ('A' for Active; 'I' for Inactive)
REMARK    1  A    between atoms: C_1  and  C_2
REMARK    2  A    between atoms: N_5  and  C_6
REMARK    3  A    between atoms: C_6  and  C_7
REMARK    4  A    between atoms: C_7  and  O_8
REMARK    5  A    between atoms: O_8  and  C_9
REMARK    6  A    between atoms: C_9  and  C_10
REMARK    7  A    between atoms: C_10  and  S_11
REMARK    8  A    between atoms: S_11  and  C_12
REMARK                            x       y       z     vdW  Elec       q    Type
REMARK                         _______ _______ _______ _____ _____    ______ ____
ROOT
ATOM      1  O   UNL     1       3.881   2.800  19.511  0.00  0.00    +0.000 OA
ENDROOT
BRANCH   1   2
ATOM      2  C   UNL     1       5.122   3.482  19.725  0.00  0.00    +0.000 C 
BRANCH   2   3
ATOM      3  C   UNL     1       5.207   4.733  18.843  0.00  0.00    +0.000 C 
BRANCH   3   8
ATOM      4  C   UNL     1       7.761   8.543  17.799  0.00  0.00    +0.000 C 
ATOM      5  C   UNL     1       7.489   7.130  17.293  0.00  0.00    +0.000 C 
ATOM      6  C   UNL     1       6.015   6.964  16.894  0.00  0.00    +0.000 C 
ATOM      7  C   UNL     1       5.664   5.505  16.580  0.00  0.00    +0.000 C 
ATOM      8  N   UNL     1       6.051   4.562  17.642  0.00  0.00    +0.000 NA
ATOM      9  C   UNL     1       7.494   4.686  17.901  0.00  0.00    +0.000 C 
ATOM     10  C   UNL     1       7.902   6.091  18.343  0.00  0.00    +0.000 C 
ENDBRANCH   3   8
ENDBRANCH   2   3
ENDBRANCH   1   2
BRANCH   1  11
ATOM     11  C   UNL     1       3.548   2.045  20.680  0.00  0.00    +0.000 C 
BRANCH  11  12
ATOM     12  C   UNL     1       2.482   2.774  21.483  0.00  0.00    +0.000 C 
BRANCH  12  13
ATOM     13  S   UNL     1       1.099   3.163  20.358  0.00  0.00    +0.000 S 
BRANCH  13  14
ATOM     14  C   UNL     1       1.613   4.692  19.603  0.00  0.00    +0.000 A 
ATOM     15  C   UNL     1       1.719   4.884  18.223  0.00  0.00    +0.000 A 
ATOM     16  C   UNL     1       2.076   6.135  17.706  0.00  0.00    +0.000 A 
ATOM     17  C   UNL     1       2.317   7.199  18.574  0.00  0.00    +0.000 A 
ATOM     18 CL   UNL     1       2.738   8.741  17.935  0.00  0.00    +0.000 Cl
ATOM     19  C   UNL     1       2.209   7.025  19.947  0.00  0.00    +0.000 A 
ATOM     20  C   UNL     1       1.854   5.774  20.461  0.00  0.00    +0.000 A 
ENDBRANCH  13  14
ENDBRANCH  12  13
ENDBRANCH  11  12
ENDBRANCH   1  11
TORSDOF 7
ENDMDL
MODEL 8
REMARK VINA RESULT:      -5.7      5.401      7.619
REMARK  Name = 
REMARK  8 active torsions:
REMARK  status: ('A' for Active; 'I' for Inactive)
REMARK    1  A    between atoms: C_1  and  C_2
REMARK    2  A    between atoms: N_5  and  C_6
REMARK    3  A    between atoms: C_6  and  C_7
REMARK    4  A    between atoms: C_7  and  O_8
REMARK    5  A    between atoms: O_8  and  C_9
REMARK    6  A    between atoms: C_9  and  C_10
REMARK    7  A    between atoms: C_10  and  S_11
REMARK    8  A    between atoms: S_11  and  C_12
REMARK                            x       y       z     vdW  Elec       q    Type
REMARK                         _______ _______ _______ _____ _____    ______ ____
ROOT
ATOM      1  O   UNL     1       8.486   8.799  18.708  0.00  0.00    +0.000 OA
ENDROOT
BRANCH   1   2
ATOM      2  C   UNL     1       8.784  10.130  18.269  0.00  0.00    +0.000 C 
BRANCH   2   3
ATOM      3  C   UNL     1       9.429  10.936  19.403  0.00  0.00    +0.000 C 
BRANCH   3   8
ATOM      4  C   UNL     1      10.159  15.582  19.310  0.00  0.00    +0.000 C 
ATOM      5  C   UNL     1      10.914  14.266  19.153  0.00  0.00    +0.000 C 
ATOM      6  C   UNL     1      10.382  13.469  17.952  0.00  0.00    +0.000 C 
ATOM      7  C   UNL     1      10.974  12.056  17.891  0.00  0.00    +0.000 C 
ATOM      8  N   UNL     1      10.837  11.303  19.149  0.00  0.00    +0.000 NA
ATOM      9  C   UNL     1      11.465  12.063  20.241  0.00  0.00    +0.000 C 
ATOM     10  C   UNL     1      10.840  13.442  20.445  0.00  0.00    +0.000 C 
ENDBRANCH   3   8
ENDBRANCH   2   3
ENDBRANCH   1   2
BRANCH   1  11
ATOM     11  C   UNL     1       7.887   8.070  17.632  0.00  0.00    +0.000 C 
BRANCH  11  12
ATOM     12  C   UNL     1       7.540   6.662  18.088  0.00  0.00    +0.000 C 
BRANCH  12  13
ATOM     13  S   UNL     1       6.929   5.736  16.639  0.00  0.00    +0.000 S 
BRANCH  13  14
ATOM     14  C   UNL     1       5.314   5.196  17.160  0.00  0.00    +0.000 A 
ATOM     15  C   UNL     1       4.685   4.043  16.683  0.00  0.00    +0.000 A 
ATOM     16  C   UNL     1       3.436   3.656  17.185  0.00  0.00    +0.000 A 
ATOM     17  C   UNL     1       2.821   4.422  18.174  0.00  0.00    +0.000 A 
ATOM     18 CL   UNL     1       1.294   3.934  18.801  0.00  0.00    +0.000 Cl
ATOM     19  C   UNL     1       3.437   5.567  18.662  0.00  0.00    +0.000 A 
ATOM     20  C   UNL     1       4.682   5.951  18.157  0.00  0.00    +0.000 A 
ENDBRANCH  13  14
ENDBRANCH  12  13
ENDBRANCH  11  12
ENDBRANCH   1  11
TORSDOF 7
ENDMDL
MODEL 9
REMARK VINA RESULT:      -5.6      1.884      3.857
REMARK  Name = 
REMARK  8 active torsions:
REMARK  status: ('A' for Active; 'I' for Inactive)
REMARK    1  A    between atoms: C_1  and  C_2
REMARK    2  A    between atoms: N_5  and  C_6
REMARK    3  A    between atoms: C_6  and  C_7
REMARK    4  A    between atoms: C_7  and  O_8
REMARK    5  A    between atoms: O_8  and  C_9
REMARK    6  A    between atoms: C_9  and  C_10
REMARK    7  A    between atoms: C_10  and  S_11
REMARK    8  A    between atoms: S_11  and  C_12
REMARK                            x       y       z     vdW  Elec       q    Type
REMARK                         _______ _______ _______ _____ _____    ______ ____
ROOT
ATOM      1  O   UNL     1       4.700   6.123  16.398  0.00  0.00    +0.000 OA
ENDROOT
BRANCH   1   2
ATOM      2  C   UNL     1       4.872   4.703  16.334  0.00  0.00    +0.000 C 
BRANCH   2   3
ATOM      3  C   UNL     1       4.667   4.075  17.717  0.00  0.00    +0.000 C 
BRANCH   3   8
ATOM      4  C   UNL     1       0.874   4.081  20.499  0.00  0.00    +0.000 C 
ATOM      5  C   UNL     1       1.633   3.168  19.541  0.00  0.00    +0.000 C 
ATOM      6  C   UNL     1       3.056   2.899  20.052  0.00  0.00    +0.000 C 
ATOM      7  C   UNL     1       3.910   2.159  19.015  0.00  0.00    +0.000 C 
ATOM      8  N   UNL     1       3.917   2.801  17.690  0.00  0.00    +0.000 NA
ATOM      9  C   UNL     1       2.536   2.929  17.203  0.00  0.00    +0.000 C 
ATOM     10  C   UNL     1       1.651   3.764  18.128  0.00  0.00    +0.000 C 
ENDBRANCH   3   8
ENDBRANCH   2   3
ENDBRANCH   1   2
BRANCH   1  11
ATOM     11  C   UNL     1       4.419   6.504  17.749  0.00  0.00    +0.000 C 
BRANCH  11  12
ATOM     12  C   UNL     1       3.196   7.407  17.789  0.00  0.00    +0.000 C 
BRANCH  12  13
ATOM     13  S   UNL     1       2.440   7.254  19.443  0.00  0.00    +0.000 S 
BRANCH  13  14
ATOM     14  C   UNL     1       1.396   8.694  19.542  0.00  0.00    +0.000 A 
ATOM     15  C   UNL     1       1.103   9.521  18.454  0.00  0.00    +0.000 A 
ATOM     16  C   UNL     1       0.227  10.603  18.602  0.00  0.00    +0.000 A 
ATOM     17  C   UNL     1      -0.365  10.851  19.839  0.00  0.00    +0.000 A 
ATOM     18 CL   UNL     1      -1.455  12.171  20.012  0.00  0.00    +0.000 Cl
ATOM     19  C   UNL     1      -0.088  10.033  20.927  0.00  0.00    +0.000 A 
ATOM     20  C   UNL     1       0.789   8.955  20.777  0.00  0.00    +0.000 A 
ENDBRANCH  13  14
ENDBRANCH  12  13
ENDBRANCH  11  12
ENDBRANCH   1  11
TORSDOF 7
ENDMDL
