MODEL 1
REMARK VINA RESULT:      -7.1      0.000      0.000
REMARK  Name = 
REMARK  4 active torsions:
REMARK  status: ('A' for Active; 'I' for Inactive)
REMARK    1  A    between atoms: C_1  and  C_2
REMARK    2  A    between atoms: C_7  and  C_8
REMARK    3  A    between atoms: N_10  and  C_11
REMARK    4  A    between atoms: N_17  and  C_18
REMARK                            x       y       z     vdW  Elec       q    Type
REMARK                         _______ _______ _______ _____ _____    ______ ____
ROOT
ATOM      1  C   UNL     1       1.532   6.377  20.476  0.00  0.00    +0.000 C 
ATOM      2  C   UNL     1       1.783   4.949  20.169  0.00  0.00    +0.000 A 
ATOM      3  C   UNL     1       1.125   3.863  20.712  0.00  0.00    +0.000 A 
ATOM      4  S   UNL     1       1.680   2.340  20.150  0.00  0.00    +0.000 S 
ATOM      5  C   UNL     1       2.823   3.142  19.127  0.00  0.00    +0.000 A 
ATOM      6  C   UNL     1       3.831   2.801  18.188  0.00  0.00    +0.000 A 
ATOM      7  C   UNL     1       4.375   3.996  17.734  0.00  0.00    +0.000 A 
ATOM      8  N   UNL     1       3.730   5.031  18.391  0.00  0.00    +0.000 N 
ATOM      9  C   UNL     1       3.939   6.451  18.240  0.00  0.00    +0.000 C 
ATOM     10  C   UNL     1       2.773   4.501  19.240  0.00  0.00    +0.000 A 
ENDROOT
BRANCH   7  11
ATOM     11  C   UNL     1       5.472   4.164  16.785  0.00  0.00    +0.000 C 
ATOM     12  O   UNL     1       6.632   4.299  17.160  0.00  0.00    +0.000 OA
ATOM     13  N   UNL     1       5.057   4.202  15.463  0.00  0.00    +0.000 N 
ATOM     14  H   UNL     1       4.060   4.283  15.310  0.00  0.00    +0.000 HD
BRANCH  13  15
ATOM     15  C   UNL     1       5.883   4.292  14.323  0.00  0.00    +0.000 A 
ATOM     16  C   UNL     1       6.990   5.139  14.245  0.00  0.00    +0.000 A 
ATOM     17  C   UNL     1       7.769   5.193  13.084  0.00  0.00    +0.000 A 
ATOM     18  C   UNL     1       7.448   4.398  11.989  0.00  0.00    +0.000 A 
ATOM     19  C   UNL     1       6.357   3.535  12.061  0.00  0.00    +0.000 A 
ATOM     20  C   UNL     1       5.585   3.472  13.227  0.00  0.00    +0.000 A 
ENDBRANCH  13  15
ENDBRANCH   7  11
TORSDOF 2
ENDMDL
MODEL 2
REMARK VINA RESULT:      -7.1      1.261      2.008
REMARK  Name = 
REMARK  4 active torsions:
REMARK  status: ('A' for Active; 'I' for Inactive)
REMARK    1  A    between atoms: C_1  and  C_2
REMARK    2  A    between atoms: C_7  and  C_8
REMARK    3  A    between atoms: N_10  and  C_11
REMARK    4  A    between atoms: N_17  and  C_18
REMARK                            x       y       z     vdW  Elec       q    Type
REMARK                         _______ _______ _______ _____ _____    ______ ____
ROOT
ATOM      1  C   UNL     1       1.407   3.162  20.497  0.00  0.00    +0.000 C 
ATOM      2  C   UNL     1       1.873   4.525  20.148  0.00  0.00    +0.000 A 
ATOM      3  C   UNL     1       1.396   5.714  20.662  0.00  0.00    +0.000 A 
ATOM      4  S   UNL     1       2.148   7.118  20.026  0.00  0.00    +0.000 S 
ATOM      5  C   UNL     1       3.166   6.120  19.044  0.00  0.00    +0.000 A 
ATOM      6  C   UNL     1       4.206   6.274  18.091  0.00  0.00    +0.000 A 
ATOM      7  C   UNL     1       4.576   4.996  17.693  0.00  0.00    +0.000 A 
ATOM      8  N   UNL     1       3.772   4.093  18.369  0.00  0.00    +0.000 N 
ATOM      9  C   UNL     1       3.795   2.651  18.297  0.00  0.00    +0.000 C 
ATOM     10  C   UNL     1       2.913   4.789  19.202  0.00  0.00    +0.000 A 
ENDROOT
BRANCH   7  11
ATOM     11  C   UNL     1       5.581   4.638  16.696  0.00  0.00    +0.000 C 
ATOM     12  O   UNL     1       6.680   4.199  17.018  0.00  0.00    +0.000 OA
ATOM     13  N   UNL     1       5.179   4.890  15.393  0.00  0.00    +0.000 N 
ATOM     14  H   UNL     1       4.336   5.437  15.284  0.00  0.00    +0.000 HD
BRANCH  13  15
ATOM     15  C   UNL     1       5.901   4.594  14.217  0.00  0.00    +0.000 A 
ATOM     16  C   UNL     1       7.101   5.222  13.878  0.00  0.00    +0.000 A 
ATOM     17  C   UNL     1       7.769   4.894  12.693  0.00  0.00    +0.000 A 
ATOM     18  C   UNL     1       7.242   3.934  11.835  0.00  0.00    +0.000 A 
ATOM     19  C   UNL     1       6.055   3.287  12.172  0.00  0.00    +0.000 A 
ATOM     20  C   UNL     1       5.393   3.607  13.363  0.00  0.00    +0.000 A 
ENDBRANCH  13  15
ENDBRANCH   7  11
TORSDOF 2
ENDMDL
MODEL 3
REMARK VINA RESULT:      -7.0      0.745      1.343
REMARK  Name = 
REMARK  4 active torsions:
REMARK  status: ('A' for Active; 'I' for Inactive)
REMARK    1  A    between atoms: C_1  and  C_2
REMARK    2  A    between atoms: C_7  and  C_8
REMARK    3  A    between atoms: N_10  and  C_11
REMARK    4  A    between atoms: N_17  and  C_18
REMARK                            x       y       z     vdW  Elec       q    Type
REMARK                         _______ _______ _______ _____ _____    ______ ____
ROOT
ATOM      1  C   UNL     1       1.915   7.289  19.977  0.00  0.00    +0.000 C 
ATOM      2  C   UNL     1       2.300   5.863  20.101  0.00  0.00    +0.000 A 
ATOM      3  C   UNL     1       1.812   4.956  21.020  0.00  0.00    +0.000 A 
ATOM      4  S   UNL     1       2.489   3.384  20.899  0.00  0.00    +0.000 S 
ATOM      5  C   UNL     1       3.454   3.910  19.561  0.00  0.00    +0.000 A 
ATOM      6  C   UNL     1       4.418   3.372  18.669  0.00  0.00    +0.000 A 
ATOM      7  C   UNL     1       4.788   4.401  17.813  0.00  0.00    +0.000 A 
ATOM      8  N   UNL     1       4.084   5.535  18.185  0.00  0.00    +0.000 N 
ATOM      9  C   UNL     1       4.120   6.846  17.581  0.00  0.00    +0.000 C 
ATOM     10  C   UNL     1       3.261   5.225  19.254  0.00  0.00    +0.000 A 
ENDROOT
BRANCH   7  11
ATOM     11  C   UNL     1       5.784   4.348  16.746  0.00  0.00    +0.000 C 
ATOM     12  O   UNL     1       6.985   4.297  16.989  0.00  0.00    +0.000 OA
ATOM     13  N   UNL     1       5.234   4.412  15.475  0.00  0.00    +0.000 N 
ATOM     14  H   UNL     1       4.253   4.656  15.425  0.00  0.00    +0.000 HD
BRANCH  13  15
ATOM     15  C   UNL     1       5.930   4.322  14.251  0.00  0.00    +0.000 A 
ATOM     16  C   UNL     1       5.542   3.476  13.211  0.00  0.00    +0.000 A 
ATOM     17  C   UNL     1       6.277   3.422  12.022  0.00  0.00    +0.000 A 
ATOM     18  C   UNL     1       7.408   4.216  11.861  0.00  0.00    +0.000 A 
ATOM     19  C   UNL     1       7.794   5.079  12.885  0.00  0.00    +0.000 A 
ATOM     20  C   UNL     1       7.052   5.141  14.070  0.00  0.00    +0.000 A 
ENDBRANCH  13  15
ENDBRANCH   7  11
TORSDOF 2
ENDMDL
MODEL 4
REMARK VINA RESULT:      -6.9      1.360      2.341
REMARK  Name = 
REMARK  4 active torsions:
REMARK  status: ('A' for Active; 'I' for Inactive)
REMARK    1  A    between atoms: C_1  and  C_2
REMARK    2  A    between atoms: C_7  and  C_8
REMARK    3  A    between atoms: N_10  and  C_11
REMARK    4  A    between atoms: N_17  and  C_18
REMARK                            x       y       z     vdW  Elec       q    Type
REMARK                         _______ _______ _______ _____ _____    ______ ____
ROOT
ATOM      1  C   UNL     1       2.017   3.574  21.104  0.00  0.00    +0.000 C 
ATOM      2  C   UNL     1       2.230   4.886  20.448  0.00  0.00    +0.000 A 
ATOM      3  C   UNL     1       1.598   6.073  20.760  0.00  0.00    +0.000 A 
ATOM      4  S   UNL     1       2.065   7.407  19.788  0.00  0.00    +0.000 S 
ATOM      5  C   UNL     1       3.167   6.385  18.928  0.00  0.00    +0.000 A 
ATOM      6  C   UNL     1       4.103   6.486  17.866  0.00  0.00    +0.000 A 
ATOM      7  C   UNL     1       4.651   5.222  17.694  0.00  0.00    +0.000 A 
ATOM      8  N   UNL     1       4.053   4.373  18.612  0.00  0.00    +0.000 N 
ATOM      9  C   UNL     1       4.307   2.968  18.825  0.00  0.00    +0.000 C 
ATOM     10  C   UNL     1       3.148   5.095  19.371  0.00  0.00    +0.000 A 
ENDROOT
BRANCH   7  11
ATOM     11  C   UNL     1       5.633   4.812  16.695  0.00  0.00    +0.000 C 
ATOM     12  O   UNL     1       6.750   4.416  17.013  0.00  0.00    +0.000 OA
ATOM     13  N   UNL     1       5.189   4.967  15.390  0.00  0.00    +0.000 N 
ATOM     14  H   UNL     1       4.333   5.491  15.269  0.00  0.00    +0.000 HD
BRANCH  13  15
ATOM     15  C   UNL     1       5.883   4.604  14.216  0.00  0.00    +0.000 A 
ATOM     16  C   UNL     1       5.421   3.635  13.323  0.00  0.00    +0.000 A 
ATOM     17  C   UNL     1       6.156   3.310  12.179  0.00  0.00    +0.000 A 
ATOM     18  C   UNL     1       7.362   3.952  11.915  0.00  0.00    +0.000 A 
ATOM     19  C   UNL     1       7.824   4.934  12.788  0.00  0.00    +0.000 A 
ATOM     20  C   UNL     1       7.082   5.268  13.928  0.00  0.00    +0.000 A 
ENDBRANCH  13  15
ENDBRANCH   7  11
TORSDOF 2
ENDMDL
MODEL 5
REMARK VINA RESULT:      -6.9      3.512      4.945
REMARK  Name = 
REMARK  4 active torsions:
REMARK  status: ('A' for Active; 'I' for Inactive)
REMARK    1  A    between atoms: C_1  and  C_2
REMARK    2  A    between atoms: C_7  and  C_8
REMARK    3  A    between atoms: N_10  and  C_11
REMARK    4  A    between atoms: N_17  and  C_18
REMARK                            x       y       z     vdW  Elec       q    Type
REMARK                         _______ _______ _______ _____ _____    ______ ____
ROOT
ATOM      1  C   UNL     1       0.026   9.268  22.289  0.00  0.00    +0.000 C 
ATOM      2  C   UNL     1       0.339   9.833  20.955  0.00  0.00    +0.000 A 
ATOM      3  C   UNL     1      -0.036  11.073  20.478  0.00  0.00    +0.000 A 
ATOM      4  S   UNL     1       0.478  11.407  18.876  0.00  0.00    +0.000 S 
ATOM      5  C   UNL     1       1.250   9.859  18.809  0.00  0.00    +0.000 A 
ATOM      6  C   UNL     1       2.009   9.089  17.890  0.00  0.00    +0.000 A 
ATOM      7  C   UNL     1       2.313   7.892  18.526  0.00  0.00    +0.000 A 
ATOM      8  N   UNL     1       1.740   7.927  19.788  0.00  0.00    +0.000 N 
ATOM      9  C   UNL     1       1.797   6.920  20.821  0.00  0.00    +0.000 C 
ATOM     10  C   UNL     1       1.095   9.140  19.958  0.00  0.00    +0.000 A 
ENDROOT
BRANCH   7  11
ATOM     11  C   UNL     1       3.045   6.757  17.972  0.00  0.00    +0.000 C 
ATOM     12  O   UNL     1       2.534   5.646  17.875  0.00  0.00    +0.000 OA
ATOM     13  N   UNL     1       4.354   7.060  17.628  0.00  0.00    +0.000 N 
ATOM     14  H   UNL     1       4.704   7.954  17.948  0.00  0.00    +0.000 HD
BRANCH  13  15
ATOM     15  C   UNL     1       5.286   6.195  17.016  0.00  0.00    +0.000 A 
ATOM     16  C   UNL     1       6.278   5.515  17.724  0.00  0.00    +0.000 A 
ATOM     17  C   UNL     1       7.181   4.676  17.062  0.00  0.00    +0.000 A 
ATOM     18  C   UNL     1       7.099   4.509  15.684  0.00  0.00    +0.000 A 
ATOM     19  C   UNL     1       6.102   5.168  14.968  0.00  0.00    +0.000 A 
ATOM     20  C   UNL     1       5.191   5.998  15.632  0.00  0.00    +0.000 A 
ENDBRANCH  13  15
ENDBRANCH   7  11
TORSDOF 2
ENDMDL
MODEL 6
REMARK VINA RESULT:      -6.8      1.115      1.164
REMARK  Name = 
REMARK  4 active torsions:
REMARK  status: ('A' for Active; 'I' for Inactive)
REMARK    1  A    between atoms: C_1  and  C_2
REMARK    2  A    between atoms: C_7  and  C_8
REMARK    3  A    between atoms: N_10  and  C_11
REMARK    4  A    between atoms: N_17  and  C_18
REMARK                            x       y       z     vdW  Elec       q    Type
REMARK                         _______ _______ _______ _____ _____    ______ ____
ROOT
ATOM      1  C   UNL     1       1.579   7.166  20.646  0.00  0.00    +0.000 C 
ATOM      2  C   UNL     1       2.121   5.814  20.371  0.00  0.00    +0.000 A 
ATOM      3  C   UNL     1       1.925   4.679  21.132  0.00  0.00    +0.000 A 
ATOM      4  S   UNL     1       2.713   3.277  20.537  0.00  0.00    +0.000 S 
ATOM      5  C   UNL     1       3.324   4.195  19.203  0.00  0.00    +0.000 A 
ATOM      6  C   UNL     1       4.132   3.992  18.053  0.00  0.00    +0.000 A 
ATOM      7  C   UNL     1       4.214   5.216  17.401  0.00  0.00    +0.000 A 
ATOM      8  N   UNL     1       3.493   6.139  18.141  0.00  0.00    +0.000 N 
ATOM      9  C   UNL     1       3.274   7.537  17.855  0.00  0.00    +0.000 C 
ATOM     10  C   UNL     1       2.943   5.505  19.242  0.00  0.00    +0.000 A 
ENDROOT
BRANCH   7  11
ATOM     11  C   UNL     1       4.968   5.523  16.189  0.00  0.00    +0.000 C 
ATOM     12  O   UNL     1       5.269   6.674  15.892  0.00  0.00    +0.000 OA
ATOM     13  N   UNL     1       5.248   4.406  15.416  0.00  0.00    +0.000 N 
ATOM     14  H   UNL     1       4.768   3.553  15.674  0.00  0.00    +0.000 HD
BRANCH  13  15
ATOM     15  C   UNL     1       6.008   4.373  14.228  0.00  0.00    +0.000 A 
ATOM     16  C   UNL     1       7.176   5.114  14.046  0.00  0.00    +0.000 A 
ATOM     17  C   UNL     1       7.885   5.048  12.842  0.00  0.00    +0.000 A 
ATOM     18  C   UNL     1       7.430   4.239  11.806  0.00  0.00    +0.000 A 
ATOM     19  C   UNL     1       6.275   3.480  11.982  0.00  0.00    +0.000 A 
ATOM     20  C   UNL     1       5.573   3.537  13.191  0.00  0.00    +0.000 A 
ENDBRANCH  13  15
ENDBRANCH   7  11
TORSDOF 2
ENDMDL
MODEL 7
REMARK VINA RESULT:      -6.5      4.578      6.234
REMARK  Name = 
REMARK  4 active torsions:
REMARK  status: ('A' for Active; 'I' for Inactive)
REMARK    1  A    between atoms: C_1  and  C_2
REMARK    2  A    between atoms: C_7  and  C_8
REMARK    3  A    between atoms: N_10  and  C_11
REMARK    4  A    between atoms: N_17  and  C_18
REMARK                            x       y       z     vdW  Elec       q    Type
REMARK                         _______ _______ _______ _____ _____    ______ ____
ROOT
ATOM      1  C   UNL     1       0.404  12.067  19.066  0.00  0.00    +0.000 C 
ATOM      2  C   UNL     1       0.366  11.096  20.186  0.00  0.00    +0.000 A 
ATOM      3  C   UNL     1      -0.184  11.303  21.435  0.00  0.00    +0.000 A 
ATOM      4  S   UNL     1      -0.038   9.971  22.507  0.00  0.00    +0.000 S 
ATOM      5  C   UNL     1       0.765   9.070  21.267  0.00  0.00    +0.000 A 
ATOM      6  C   UNL     1       1.339   7.784  21.089  0.00  0.00    +0.000 A 
ATOM      7  C   UNL     1       1.826   7.739  19.789  0.00  0.00    +0.000 A 
ATOM      8  N   UNL     1       1.573   8.968  19.200  0.00  0.00    +0.000 N 
ATOM      9  C   UNL     1       1.880   9.392  17.855  0.00  0.00    +0.000 C 
ATOM     10  C   UNL     1       0.915   9.777  20.110  0.00  0.00    +0.000 A 
ENDROOT
BRANCH   7  11
ATOM     11  C   UNL     1       2.539   6.637  19.150  0.00  0.00    +0.000 C 
ATOM     12  O   UNL     1       3.494   6.833  18.406  0.00  0.00    +0.000 OA
ATOM     13  N   UNL     1       1.997   5.392  19.433  0.00  0.00    +0.000 N 
ATOM     14  H   UNL     1       1.096   5.392  19.892  0.00  0.00    +0.000 HD
BRANCH  13  15
ATOM     15  C   UNL     1       2.497   4.141  19.015  0.00  0.00    +0.000 A 
ATOM     16  C   UNL     1       2.074   3.498  17.851  0.00  0.00    +0.000 A 
ATOM     17  C   UNL     1       2.600   2.253  17.490  0.00  0.00    +0.000 A 
ATOM     18  C   UNL     1       3.556   1.638  18.292  0.00  0.00    +0.000 A 
ATOM     19  C   UNL     1       4.001   2.278  19.446  0.00  0.00    +0.000 A 
ATOM     20  C   UNL     1       3.483   3.530  19.801  0.00  0.00    +0.000 A 
ENDBRANCH  13  15
ENDBRANCH   7  11
TORSDOF 2
ENDMDL
MODEL 8
REMARK VINA RESULT:      -6.5      3.402      5.011
REMARK  Name = 
REMARK  4 active torsions:
REMARK  status: ('A' for Active; 'I' for Inactive)
REMARK    1  A    between atoms: C_1  and  C_2
REMARK    2  A    between atoms: C_7  and  C_8
REMARK    3  A    between atoms: N_10  and  C_11
REMARK    4  A    between atoms: N_17  and  C_18
REMARK                            x       y       z     vdW  Elec       q    Type
REMARK                         _______ _______ _______ _____ _____    ______ ____
ROOT
ATOM      1  C   UNL     1       0.359  11.675  19.187  0.00  0.00    +0.000 C 
ATOM      2  C   UNL     1       0.447  10.617  20.222  0.00  0.00    +0.000 A 
ATOM      3  C   UNL     1      -0.043  10.684  21.511  0.00  0.00    +0.000 A 
ATOM      4  S   UNL     1       0.248   9.284  22.458  0.00  0.00    +0.000 S 
ATOM      5  C   UNL     1       1.037   8.543  21.107  0.00  0.00    +0.000 A 
ATOM      6  C   UNL     1       1.681   7.317  20.794  0.00  0.00    +0.000 A 
ATOM      7  C   UNL     1       2.096   7.411  19.472  0.00  0.00    +0.000 A 
ATOM      8  N   UNL     1       1.732   8.663  19.001  0.00  0.00    +0.000 N 
ATOM      9  C   UNL     1       1.934   9.214  17.683  0.00  0.00    +0.000 C 
ATOM     10  C   UNL     1       1.075   9.350  20.008  0.00  0.00    +0.000 A 
ENDROOT
BRANCH   7  11
ATOM     11  C   UNL     1       2.841   6.416  18.706  0.00  0.00    +0.000 C 
ATOM     12  O   UNL     1       2.363   5.318  18.439  0.00  0.00    +0.000 OA
ATOM     13  N   UNL     1       4.124   6.823  18.374  0.00  0.00    +0.000 N 
ATOM     14  H   UNL     1       4.458   7.663  18.829  0.00  0.00    +0.000 HD
BRANCH  13  15
ATOM     15  C   UNL     1       5.058   6.111  17.591  0.00  0.00    +0.000 A 
ATOM     16  C   UNL     1       5.021   6.079  16.197  0.00  0.00    +0.000 A 
ATOM     17  C   UNL     1       5.969   5.348  15.473  0.00  0.00    +0.000 A 
ATOM     18  C   UNL     1       6.964   4.641  16.139  0.00  0.00    +0.000 A 
ATOM     19  C   UNL     1       7.023   4.679  17.530  0.00  0.00    +0.000 A 
ATOM     20  C   UNL     1       6.082   5.421  18.254  0.00  0.00    +0.000 A 
ENDBRANCH  13  15
ENDBRANCH   7  11
TORSDOF 2
ENDMDL
MODEL 9
REMARK VINA RESULT:      -6.5      4.574      6.261
REMARK  Name = 
REMARK  4 active torsions:
REMARK  status: ('A' for Active; 'I' for Inactive)
REMARK    1  A    between atoms: C_1  and  C_2
REMARK    2  A    between atoms: C_7  and  C_8
REMARK    3  A    between atoms: N_10  and  C_11
REMARK    4  A    between atoms: N_17  and  C_18
REMARK                            x       y       z     vdW  Elec       q    Type
REMARK                         _______ _______ _______ _____ _____    ______ ____
ROOT
ATOM      1  C   UNL     1       0.168  12.133  19.288  0.00  0.00    +0.000 C 
ATOM      2  C   UNL     1       0.184  11.151  20.399  0.00  0.00    +0.000 A 
ATOM      3  C   UNL     1      -0.337  11.333  21.664  0.00  0.00    +0.000 A 
ATOM      4  S   UNL     1      -0.131   9.996  22.719  0.00  0.00    +0.000 S 
ATOM      5  C   UNL     1       0.661   9.126  21.449  0.00  0.00    +0.000 A 
ATOM      6  C   UNL     1       1.260   7.855  21.244  0.00  0.00    +0.000 A 
ATOM      7  C   UNL     1       1.713   7.835  19.931  0.00  0.00    +0.000 A 
ATOM      8  N   UNL     1       1.415   9.062  19.361  0.00  0.00    +0.000 N 
ATOM      9  C   UNL     1       1.675   9.506  18.012  0.00  0.00    +0.000 C 
ATOM     10  C   UNL     1       0.762   9.847  20.295  0.00  0.00    +0.000 A 
ENDROOT
BRANCH   7  11
ATOM     11  C   UNL     1       2.435   6.756  19.262  0.00  0.00    +0.000 C 
ATOM     12  O   UNL     1       3.330   6.984  18.454  0.00  0.00    +0.000 OA
ATOM     13  N   UNL     1       1.973   5.492  19.597  0.00  0.00    +0.000 N 
ATOM     14  H   UNL     1       1.104   5.458  20.114  0.00  0.00    +0.000 HD
BRANCH  13  15
ATOM     15  C   UNL     1       2.504   4.259  19.165  0.00  0.00    +0.000 A 
ATOM     16  C   UNL     1       3.447   3.534  19.895  0.00  0.00    +0.000 A 
ATOM     17  C   UNL     1       3.946   2.320  19.412  0.00  0.00    +0.000 A 
ATOM     18  C   UNL     1       3.505   1.818  18.192  0.00  0.00    +0.000 A 
ATOM     19  C   UNL     1       2.551   2.523  17.462  0.00  0.00    +0.000 A 
ATOM     20  C   UNL     1       2.043   3.732  17.952  0.00  0.00    +0.000 A 
ENDBRANCH  13  15
ENDBRANCH   7  11
TORSDOF 2
ENDMDL
