MODEL 1
REMARK VINA RESULT:      -8.0      0.000      0.000
REMARK  Name = 
REMARK  3 active torsions:
REMARK  status: ('A' for Active; 'I' for Inactive)
REMARK    1  A    between atoms: C_11  and  C_12
REMARK    2  A    between atoms: C_18  and  C_19
REMARK    3  A    between atoms: C_22  and  C_23
REMARK                            x       y       z     vdW  Elec       q    Type
REMARK                         _______ _______ _______ _____ _____    ______ ____
ROOT
ATOM      1  O   UNL     1       3.607   8.134  16.610  0.00  0.00    +0.000 OA
ATOM      2  C   UNL     1       2.978   7.968  17.652  0.00  0.00    +0.000 A 
ATOM      3  N   UNL     1       2.377   9.050  18.220  0.00  0.00    +0.000 N 
ATOM      4  C   UNL     1       1.635   8.995  19.389  0.00  0.00    +0.000 A 
ATOM      5  C   UNL     1       1.052  10.173  19.871  0.00  0.00    +0.000 A 
ATOM      6  C   UNL     1       0.290  10.132  21.033  0.00  0.00    +0.000 A 
ATOM      7  C   UNL     1       0.129   8.924  21.707  0.00  0.00    +0.000 A 
ATOM      8 CL   UNL     1      -0.824   8.874  23.139  0.00  0.00    +0.000 Cl
ATOM      9  C   UNL     1       0.724   7.753  21.226  0.00  0.00    +0.000 A 
ATOM     10  C   UNL     1       1.486   7.771  20.048  0.00  0.00    +0.000 A 
ATOM     11  C   UNL     1       2.122   6.536  19.480  0.00  0.00    +0.000 A 
ATOM     12  C   UNL     1       2.845   6.633  18.327  0.00  0.00    +0.000 A 
ATOM     13  H   UNL     1       2.505   9.924  17.728  0.00  0.00    +0.000 HD
ENDROOT
BRANCH  11  14
ATOM     14  C   UNL     1       1.948   5.219  20.145  0.00  0.00    +0.000 A 
ATOM     15  C   UNL     1       2.865   4.783  21.114  0.00  0.00    +0.000 A 
ATOM     16  C   UNL     1       2.704   3.540  21.726  0.00  0.00    +0.000 A 
ATOM     17  C   UNL     1       1.616   2.734  21.393  0.00  0.00    +0.000 A 
ATOM     18  C   UNL     1       0.684   3.172  20.453  0.00  0.00    +0.000 A 
ATOM     19  C   UNL     1       0.847   4.411  19.830  0.00  0.00    +0.000 A 
ENDBRANCH  11  14
BRANCH  12  20
ATOM     20  C   UNL     1       3.513   5.446  17.674  0.00  0.00    +0.000 C 
ATOM     21  N   UNL     1       2.900   4.406  17.195  0.00  0.00    +0.000 NA
ATOM     22  N   UNL     1       3.834   3.534  16.759  0.00  0.00    +0.000 N 
ATOM     23  C   UNL     1       5.197   4.058  16.797  0.00  0.00    +0.000 C 
ATOM     24  C   UNL     1       5.018   5.383  17.526  0.00  0.00    +0.000 C 
ATOM     25  H   UNL     1       3.593   3.095  15.869  0.00  0.00    +0.000 HD
BRANCH  23  26
ATOM     26  C   UNL     1       5.846   4.140  15.434  0.00  0.00    +0.000 A 
ATOM     27  C   UNL     1       7.002   4.899  15.199  0.00  0.00    +0.000 A 
ATOM     28  C   UNL     1       7.548   4.984  13.917  0.00  0.00    +0.000 A 
ATOM     29  C   UNL     1       6.943   4.319  12.851  0.00  0.00    +0.000 A 
ATOM     30  C   UNL     1       5.800   3.556  13.068  0.00  0.00    +0.000 A 
ATOM     31  C   UNL     1       5.256   3.465  14.350  0.00  0.00    +0.000 A 
ENDBRANCH  23  26
ENDBRANCH  12  20
TORSDOF 3
ENDMDL
MODEL 2
REMARK VINA RESULT:      -7.9      0.088      1.271
REMARK  Name = 
REMARK  3 active torsions:
REMARK  status: ('A' for Active; 'I' for Inactive)
REMARK    1  A    between atoms: C_11  and  C_12
REMARK    2  A    between atoms: C_18  and  C_19
REMARK    3  A    between atoms: C_22  and  C_23
REMARK                            x       y       z     vdW  Elec       q    Type
REMARK                         _______ _______ _______ _____ _____    ______ ____
ROOT
ATOM      1  O   UNL     1       3.607   8.160  16.571  0.00  0.00    +0.000 OA
ATOM      2  C   UNL     1       2.984   7.988  17.616  0.00  0.00    +0.000 A 
ATOM      3  N   UNL     1       2.378   9.065  18.187  0.00  0.00    +0.000 N 
ATOM      4  C   UNL     1       1.643   9.005  19.361  0.00  0.00    +0.000 A 
ATOM      5  C   UNL     1       1.053  10.178  19.846  0.00  0.00    +0.000 A 
ATOM      6  C   UNL     1       0.297  10.130  21.012  0.00  0.00    +0.000 A 
ATOM      7  C   UNL     1       0.149   8.921  21.686  0.00  0.00    +0.000 A 
ATOM      8 CL   UNL     1      -0.796   8.863  23.123  0.00  0.00    +0.000 Cl
ATOM      9  C   UNL     1       0.751   7.755  21.202  0.00  0.00    +0.000 A 
ATOM     10  C   UNL     1       1.506   7.779  20.020  0.00  0.00    +0.000 A 
ATOM     11  C   UNL     1       2.149   6.549  19.448  0.00  0.00    +0.000 A 
ATOM     12  C   UNL     1       2.865   6.652  18.291  0.00  0.00    +0.000 A 
ATOM     13  H   UNL     1       2.497   9.941  17.695  0.00  0.00    +0.000 HD
ENDROOT
BRANCH  11  14
ATOM     14  C   UNL     1       1.989   5.231  20.114  0.00  0.00    +0.000 A 
ATOM     15  C   UNL     1       0.873   4.425  19.841  0.00  0.00    +0.000 A 
ATOM     16  C   UNL     1       0.721   3.194  20.479  0.00  0.00    +0.000 A 
ATOM     17  C   UNL     1       1.691   2.748  21.375  0.00  0.00    +0.000 A 
ATOM     18  C   UNL     1       2.818   3.530  21.631  0.00  0.00    +0.000 A 
ATOM     19  C   UNL     1       2.969   4.767  21.002  0.00  0.00    +0.000 A 
ENDBRANCH  11  14
BRANCH  12  20
ATOM     20  C   UNL     1       3.539   5.470  17.635  0.00  0.00    +0.000 C 
ATOM     21  N   UNL     1       2.939   4.394  17.222  0.00  0.00    +0.000 NA
ATOM     22  N   UNL     1       3.879   3.544  16.757  0.00  0.00    +0.000 N 
ATOM     23  C   UNL     1       5.221   4.117  16.701  0.00  0.00    +0.000 C 
ATOM     24  C   UNL     1       5.035   5.457  17.401  0.00  0.00    +0.000 C 
ATOM     25  H   UNL     1       3.604   3.070  15.895  0.00  0.00    +0.000 HD
BRANCH  23  26
ATOM     26  C   UNL     1       5.788   4.181  15.300  0.00  0.00    +0.000 A 
ATOM     27  C   UNL     1       5.191   3.517  14.219  0.00  0.00    +0.000 A 
ATOM     28  C   UNL     1       5.768   3.565  12.949  0.00  0.00    +0.000 A 
ATOM     29  C   UNL     1       6.953   4.271  12.743  0.00  0.00    +0.000 A 
ATOM     30  C   UNL     1       7.554   4.943  13.803  0.00  0.00    +0.000 A 
ATOM     31  C   UNL     1       6.975   4.900  15.072  0.00  0.00    +0.000 A 
ENDBRANCH  23  26
ENDBRANCH  12  20
TORSDOF 3
ENDMDL
MODEL 3
REMARK VINA RESULT:      -7.3      3.891      6.901
REMARK  Name = 
REMARK  3 active torsions:
REMARK  status: ('A' for Active; 'I' for Inactive)
REMARK    1  A    between atoms: C_11  and  C_12
REMARK    2  A    between atoms: C_18  and  C_19
REMARK    3  A    between atoms: C_22  and  C_23
REMARK                            x       y       z     vdW  Elec       q    Type
REMARK                         _______ _______ _______ _____ _____    ______ ____
ROOT
ATOM      1  O   UNL     1       1.489  11.607  21.556  0.00  0.00    +0.000 OA
ATOM      2  C   UNL     1       0.318  11.782  21.227  0.00  0.00    +0.000 A 
ATOM      3  N   UNL     1      -0.499  12.450  22.086  0.00  0.00    +0.000 N 
ATOM      4  C   UNL     1      -1.835  12.717  21.831  0.00  0.00    +0.000 A 
ATOM      5  C   UNL     1      -2.573  13.426  22.786  0.00  0.00    +0.000 A 
ATOM      6  C   UNL     1      -3.910  13.717  22.536  0.00  0.00    +0.000 A 
ATOM      7  C   UNL     1      -4.497  13.289  21.349  0.00  0.00    +0.000 A 
ATOM      8 CL   UNL     1      -6.148  13.661  21.039  0.00  0.00    +0.000 Cl
ATOM      9  C   UNL     1      -3.757  12.571  20.404  0.00  0.00    +0.000 A 
ATOM     10  C   UNL     1      -2.402  12.279  20.631  0.00  0.00    +0.000 A 
ATOM     11  C   UNL     1      -1.561  11.534  19.635  0.00  0.00    +0.000 A 
ATOM     12  C   UNL     1      -0.250  11.291  19.926  0.00  0.00    +0.000 A 
ATOM     13  H   UNL     1      -0.067  12.751  22.949  0.00  0.00    +0.000 HD
ENDROOT
BRANCH  11  14
ATOM     14  C   UNL     1      -2.135  11.089  18.340  0.00  0.00    +0.000 A 
ATOM     15  C   UNL     1      -1.960  11.859  17.180  0.00  0.00    +0.000 A 
ATOM     16  C   UNL     1      -2.513  11.442  15.969  0.00  0.00    +0.000 A 
ATOM     17  C   UNL     1      -3.223  10.245  15.901  0.00  0.00    +0.000 A 
ATOM     18  C   UNL     1      -3.378   9.458  17.043  0.00  0.00    +0.000 A 
ATOM     19  C   UNL     1      -2.835   9.877  18.259  0.00  0.00    +0.000 A 
ENDBRANCH  11  14
BRANCH  12  20
ATOM     20  C   UNL     1       0.677  10.560  18.984  0.00  0.00    +0.000 C 
ATOM     21  N   UNL     1       1.733  11.065  18.422  0.00  0.00    +0.000 NA
ATOM     22  N   UNL     1       2.258  10.131  17.602  0.00  0.00    +0.000 N 
ATOM     23  C   UNL     1       1.615   8.824  17.704  0.00  0.00    +0.000 C 
ATOM     24  C   UNL     1       0.427   9.113  18.612  0.00  0.00    +0.000 C 
ATOM     25  H   UNL     1       3.278  10.085  17.643  0.00  0.00    +0.000 HD
BRANCH  23  26
ATOM     26  C   UNL     1       2.548   7.730  18.171  0.00  0.00    +0.000 A 
ATOM     27  C   UNL     1       3.670   7.334  17.429  0.00  0.00    +0.000 A 
ATOM     28  C   UNL     1       4.485   6.290  17.874  0.00  0.00    +0.000 A 
ATOM     29  C   UNL     1       4.185   5.624  19.061  0.00  0.00    +0.000 A 
ATOM     30  C   UNL     1       3.080   6.009  19.813  0.00  0.00    +0.000 A 
ATOM     31  C   UNL     1       2.268   7.056  19.373  0.00  0.00    +0.000 A 
ENDBRANCH  23  26
ENDBRANCH  12  20
TORSDOF 3
ENDMDL
MODEL 4
REMARK VINA RESULT:      -7.2      4.091      7.117
REMARK  Name = 
REMARK  3 active torsions:
REMARK  status: ('A' for Active; 'I' for Inactive)
REMARK    1  A    between atoms: C_11  and  C_12
REMARK    2  A    between atoms: C_18  and  C_19
REMARK    3  A    between atoms: C_22  and  C_23
REMARK                            x       y       z     vdW  Elec       q    Type
REMARK                         _______ _______ _______ _____ _____    ______ ____
ROOT
ATOM      1  O   UNL     1       1.096  11.838  21.589  0.00  0.00    +0.000 OA
ATOM      2  C   UNL     1      -0.066  11.944  21.206  0.00  0.00    +0.000 A 
ATOM      3  N   UNL     1      -0.955  12.581  22.017  0.00  0.00    +0.000 N 
ATOM      4  C   UNL     1      -2.290  12.770  21.701  0.00  0.00    +0.000 A 
ATOM      5  C   UNL     1      -3.107  13.453  22.610  0.00  0.00    +0.000 A 
ATOM      6  C   UNL     1      -4.445  13.668  22.298  0.00  0.00    +0.000 A 
ATOM      7  C   UNL     1      -4.956  13.190  21.094  0.00  0.00    +0.000 A 
ATOM      8 CL   UNL     1      -6.609  13.466  20.707  0.00  0.00    +0.000 Cl
ATOM      9  C   UNL     1      -4.137  12.498  20.196  0.00  0.00    +0.000 A 
ATOM     10  C   UNL     1      -2.781  12.283  20.486  0.00  0.00    +0.000 A 
ATOM     11  C   UNL     1      -1.858  11.569  19.541  0.00  0.00    +0.000 A 
ATOM     12  C   UNL     1      -0.550  11.402  19.892  0.00  0.00    +0.000 A 
ATOM     13  H   UNL     1      -0.577  12.918  22.893  0.00  0.00    +0.000 HD
ENDROOT
BRANCH  11  14
ATOM     14  C   UNL     1      -2.350  11.073  18.230  0.00  0.00    +0.000 A 
ATOM     15  C   UNL     1      -3.093   9.885  18.151  0.00  0.00    +0.000 A 
ATOM     16  C   UNL     1      -3.541   9.417  16.915  0.00  0.00    +0.000 A 
ATOM     17  C   UNL     1      -3.272  10.141  15.756  0.00  0.00    +0.000 A 
ATOM     18  C   UNL     1      -2.560  11.338  15.828  0.00  0.00    +0.000 A 
ATOM     19  C   UNL     1      -2.100  11.805  17.061  0.00  0.00    +0.000 A 
ENDBRANCH  11  14
BRANCH  12  20
ATOM     20  C   UNL     1       0.456  10.708  19.004  0.00  0.00    +0.000 C 
ATOM     21  N   UNL     1       1.576  11.218  18.591  0.00  0.00    +0.000 NA
ATOM     22  N   UNL     1       2.164  10.324  17.768  0.00  0.00    +0.000 N 
ATOM     23  C   UNL     1       1.485   9.033  17.713  0.00  0.00    +0.000 C 
ATOM     24  C   UNL     1       0.214   9.296  18.511  0.00  0.00    +0.000 C 
ATOM     25  H   UNL     1       3.173  10.247  17.911  0.00  0.00    +0.000 HD
BRANCH  23  26
ATOM     26  C   UNL     1       2.340   7.884  18.200  0.00  0.00    +0.000 A 
ATOM     27  C   UNL     1       2.099   7.236  19.420  0.00  0.00    +0.000 A 
ATOM     28  C   UNL     1       2.937   6.207  19.855  0.00  0.00    +0.000 A 
ATOM     29  C   UNL     1       4.030   5.817  19.082  0.00  0.00    +0.000 A 
ATOM     30  C   UNL     1       4.278   6.445  17.865  0.00  0.00    +0.000 A 
ATOM     31  C   UNL     1       3.438   7.469  17.426  0.00  0.00    +0.000 A 
ENDBRANCH  23  26
ENDBRANCH  12  20
TORSDOF 3
ENDMDL
MODEL 5
REMARK VINA RESULT:      -7.0      7.765     12.936
REMARK  Name = 
REMARK  3 active torsions:
REMARK  status: ('A' for Active; 'I' for Inactive)
REMARK    1  A    between atoms: C_11  and  C_12
REMARK    2  A    between atoms: C_18  and  C_19
REMARK    3  A    between atoms: C_22  and  C_23
REMARK                            x       y       z     vdW  Elec       q    Type
REMARK                         _______ _______ _______ _____ _____    ______ ____
ROOT
ATOM      1  O   UNL     1      -6.688  11.971  18.774  0.00  0.00    +0.000 OA
ATOM      2  C   UNL     1      -5.476  11.889  18.955  0.00  0.00    +0.000 A 
ATOM      3  N   UNL     1      -4.748  11.123  18.098  0.00  0.00    +0.000 N 
ATOM      4  C   UNL     1      -3.376  10.952  18.189  0.00  0.00    +0.000 A 
ATOM      5  C   UNL     1      -2.733  10.149  17.240  0.00  0.00    +0.000 A 
ATOM      6  C   UNL     1      -1.354   9.983  17.307  0.00  0.00    +0.000 A 
ATOM      7  C   UNL     1      -0.635  10.607  18.324  0.00  0.00    +0.000 A 
ATOM      8 CL   UNL     1       1.072  10.409  18.398  0.00  0.00    +0.000 Cl
ATOM      9  C   UNL     1      -1.285  11.399  19.276  0.00  0.00    +0.000 A 
ATOM     10  C   UNL     1      -2.675  11.590  19.217  0.00  0.00    +0.000 A 
ATOM     11  C   UNL     1      -3.412  12.451  20.201  0.00  0.00    +0.000 A 
ATOM     12  C   UNL     1      -4.764  12.592  20.076  0.00  0.00    +0.000 A 
ATOM     13  H   UNL     1      -5.279  10.667  17.367  0.00  0.00    +0.000 HD
ENDROOT
BRANCH  11  14
ATOM     14  C   UNL     1      -2.683  13.164  21.280  0.00  0.00    +0.000 A 
ATOM     15  C   UNL     1      -2.544  12.585  22.551  0.00  0.00    +0.000 A 
ATOM     16  C   UNL     1      -1.870  13.265  23.565  0.00  0.00    +0.000 A 
ATOM     17  C   UNL     1      -1.310  14.516  23.312  0.00  0.00    +0.000 A 
ATOM     18  C   UNL     1      -1.417  15.087  22.044  0.00  0.00    +0.000 A 
ATOM     19  C   UNL     1      -2.100  14.414  21.029  0.00  0.00    +0.000 A 
ENDBRANCH  11  14
BRANCH  12  20
ATOM     20  C   UNL     1      -5.590  13.444  21.009  0.00  0.00    +0.000 C 
ATOM     21  N   UNL     1      -6.357  12.998  21.958  0.00  0.00    +0.000 NA
ATOM     22  N   UNL     1      -6.979  14.053  22.525  0.00  0.00    +0.000 N 
ATOM     23  C   UNL     1      -6.507  15.348  22.041  0.00  0.00    +0.000 C 
ATOM     24  C   UNL     1      -5.582  14.954  20.897  0.00  0.00    +0.000 C 
ATOM     25  H   UNL     1      -7.028  13.994  23.544  0.00  0.00    +0.000 HD
BRANCH  23  26
ATOM     26  C   UNL     1      -5.886  16.203  23.124  0.00  0.00    +0.000 A 
ATOM     27  C   UNL     1      -4.807  15.760  23.901  0.00  0.00    +0.000 A 
ATOM     28  C   UNL     1      -4.288  16.562  24.920  0.00  0.00    +0.000 A 
ATOM     29  C   UNL     1      -4.846  17.813  25.180  0.00  0.00    +0.000 A 
ATOM     30  C   UNL     1      -5.912  18.271  24.413  0.00  0.00    +0.000 A 
ATOM     31  C   UNL     1      -6.428  17.473  23.391  0.00  0.00    +0.000 A 
ENDBRANCH  23  26
ENDBRANCH  12  20
TORSDOF 3
ENDMDL
MODEL 6
REMARK VINA RESULT:      -7.0      7.784     12.656
REMARK  Name = 
REMARK  3 active torsions:
REMARK  status: ('A' for Active; 'I' for Inactive)
REMARK    1  A    between atoms: C_11  and  C_12
REMARK    2  A    between atoms: C_18  and  C_19
REMARK    3  A    between atoms: C_22  and  C_23
REMARK                            x       y       z     vdW  Elec       q    Type
REMARK                         _______ _______ _______ _____ _____    ______ ____
ROOT
ATOM      1  O   UNL     1      -0.475  12.335  22.500  0.00  0.00    +0.000 OA
ATOM      2  C   UNL     1      -1.264  12.214  21.566  0.00  0.00    +0.000 A 
ATOM      3  N   UNL     1      -0.843  11.555  20.451  0.00  0.00    +0.000 N 
ATOM      4  C   UNL     1      -1.635  11.346  19.333  0.00  0.00    +0.000 A 
ATOM      5  C   UNL     1      -1.097  10.642  18.250  0.00  0.00    +0.000 A 
ATOM      6  C   UNL     1      -1.885  10.408  17.128  0.00  0.00    +0.000 A 
ATOM      7  C   UNL     1      -3.191  10.888  17.094  0.00  0.00    +0.000 A 
ATOM      8 CL   UNL     1      -4.167  10.588  15.708  0.00  0.00    +0.000 Cl
ATOM      9  C   UNL     1      -3.719  11.601  18.175  0.00  0.00    +0.000 A 
ATOM     10  C   UNL     1      -2.944  11.836  19.321  0.00  0.00    +0.000 A 
ATOM     11  C   UNL     1      -3.476  12.573  20.516  0.00  0.00    +0.000 A 
ATOM     12  C   UNL     1      -2.663  12.759  21.596  0.00  0.00    +0.000 A 
ATOM     13  H   UNL     1       0.109  11.216  20.481  0.00  0.00    +0.000 HD
ENDROOT
BRANCH  11  14
ATOM     14  C   UNL     1      -4.874  13.073  20.538  0.00  0.00    +0.000 A 
ATOM     15  C   UNL     1      -5.183  14.352  20.049  0.00  0.00    +0.000 A 
ATOM     16  C   UNL     1      -6.496  14.821  20.084  0.00  0.00    +0.000 A 
ATOM     17  C   UNL     1      -7.513  14.010  20.586  0.00  0.00    +0.000 A 
ATOM     18  C   UNL     1      -7.221  12.727  21.047  0.00  0.00    +0.000 A 
ATOM     19  C   UNL     1      -5.906  12.257  21.023  0.00  0.00    +0.000 A 
ENDBRANCH  11  14
BRANCH  12  20
ATOM     20  C   UNL     1      -3.111  13.478  22.846  0.00  0.00    +0.000 C 
ATOM     21  N   UNL     1      -3.479  12.907  23.953  0.00  0.00    +0.000 NA
ATOM     22  N   UNL     1      -3.870  13.873  24.812  0.00  0.00    +0.000 N 
ATOM     23  C   UNL     1      -3.621  15.229  24.331  0.00  0.00    +0.000 C 
ATOM     24  C   UNL     1      -3.163  14.991  22.898  0.00  0.00    +0.000 C 
ATOM     25  H   UNL     1      -3.550  13.716  25.769  0.00  0.00    +0.000 HD
BRANCH  23  26
ATOM     26  C   UNL     1      -2.664  16.009  25.205  0.00  0.00    +0.000 A 
ATOM     27  C   UNL     1      -2.698  17.409  25.290  0.00  0.00    +0.000 A 
ATOM     28  C   UNL     1      -1.770  18.096  26.075  0.00  0.00    +0.000 A 
ATOM     29  C   UNL     1      -0.792  17.395  26.780  0.00  0.00    +0.000 A 
ATOM     30  C   UNL     1      -0.749  16.006  26.713  0.00  0.00    +0.000 A 
ATOM     31  C   UNL     1      -1.680  15.317  25.933  0.00  0.00    +0.000 A 
ENDBRANCH  23  26
ENDBRANCH  12  20
TORSDOF 3
ENDMDL
MODEL 7
REMARK VINA RESULT:      -7.0      9.381     12.366
REMARK  Name = 
REMARK  3 active torsions:
REMARK  status: ('A' for Active; 'I' for Inactive)
REMARK    1  A    between atoms: C_11  and  C_12
REMARK    2  A    between atoms: C_18  and  C_19
REMARK    3  A    between atoms: C_22  and  C_23
REMARK                            x       y       z     vdW  Elec       q    Type
REMARK                         _______ _______ _______ _____ _____    ______ ____
ROOT
ATOM      1  O   UNL     1      -6.921  12.930  22.084  0.00  0.00    +0.000 OA
ATOM      2  C   UNL     1      -6.030  12.695  21.273  0.00  0.00    +0.000 A 
ATOM      3  N   UNL     1      -6.381  12.186  20.060  0.00  0.00    +0.000 N 
ATOM      4  C   UNL     1      -5.474  11.883  19.058  0.00  0.00    +0.000 A 
ATOM      5  C   UNL     1      -5.956  11.376  17.845  0.00  0.00    +0.000 A 
ATOM      6  C   UNL     1      -5.059  11.085  16.822  0.00  0.00    +0.000 A 
ATOM      7  C   UNL     1      -3.697  11.289  17.024  0.00  0.00    +0.000 A 
ATOM      8 CL   UNL     1      -2.591  10.937  15.753  0.00  0.00    +0.000 Cl
ATOM      9  C   UNL     1      -3.221  11.784  18.242  0.00  0.00    +0.000 A 
ATOM     10  C   UNL     1      -4.111  12.098  19.282  0.00  0.00    +0.000 A 
ATOM     11  C   UNL     1      -3.649  12.656  20.596  0.00  0.00    +0.000 A 
ATOM     12  C   UNL     1      -4.575  12.940  21.558  0.00  0.00    +0.000 A 
ATOM     13  H   UNL     1      -7.372  12.034  19.925  0.00  0.00    +0.000 HD
ENDROOT
BRANCH  11  14
ATOM     14  C   UNL     1      -2.209  12.923  20.843  0.00  0.00    +0.000 A 
ATOM     15  C   UNL     1      -1.642  14.158  20.495  0.00  0.00    +0.000 A 
ATOM     16  C   UNL     1      -0.286  14.398  20.717  0.00  0.00    +0.000 A 
ATOM     17  C   UNL     1       0.508  13.417  21.309  0.00  0.00    +0.000 A 
ATOM     18  C   UNL     1      -0.053  12.197  21.685  0.00  0.00    +0.000 A 
ATOM     19  C   UNL     1      -1.407  11.949  21.455  0.00  0.00    +0.000 A 
ENDBRANCH  11  14
BRANCH  12  20
ATOM     20  C   UNL     1      -4.209  13.513  22.906  0.00  0.00    +0.000 C 
ATOM     21  N   UNL     1      -4.006  12.824  23.988  0.00  0.00    +0.000 NA
ATOM     22  N   UNL     1      -3.769  13.689  24.997  0.00  0.00    +0.000 N 
ATOM     23  C   UNL     1      -3.650  15.080  24.568  0.00  0.00    +0.000 C 
ATOM     24  C   UNL     1      -4.045  15.006  23.099  0.00  0.00    +0.000 C 
ATOM     25  H   UNL     1      -3.015  13.390  25.617  0.00  0.00    +0.000 HD
BRANCH  23  26
ATOM     26  C   UNL     1      -2.291  15.681  24.853  0.00  0.00    +0.000 A 
ATOM     27  C   UNL     1      -1.790  15.816  26.156  0.00  0.00    +0.000 A 
ATOM     28  C   UNL     1      -0.549  16.415  26.381  0.00  0.00    +0.000 A 
ATOM     29  C   UNL     1       0.204  16.894  25.309  0.00  0.00    +0.000 A 
ATOM     30  C   UNL     1      -0.276  16.762  24.010  0.00  0.00    +0.000 A 
ATOM     31  C   UNL     1      -1.513  16.158  23.783  0.00  0.00    +0.000 A 
ENDBRANCH  23  26
ENDBRANCH  12  20
TORSDOF 3
ENDMDL
MODEL 8
REMARK VINA RESULT:      -6.8      7.563     11.308
REMARK  Name = 
REMARK  3 active torsions:
REMARK  status: ('A' for Active; 'I' for Inactive)
REMARK    1  A    between atoms: C_11  and  C_12
REMARK    2  A    between atoms: C_18  and  C_19
REMARK    3  A    between atoms: C_22  and  C_23
REMARK                            x       y       z     vdW  Elec       q    Type
REMARK                         _______ _______ _______ _____ _____    ______ ____
ROOT
ATOM      1  O   UNL     1      -0.824  14.956  24.915  0.00  0.00    +0.000 OA
ATOM      2  C   UNL     1      -1.952  15.243  24.523  0.00  0.00    +0.000 A 
ATOM      3  N   UNL     1      -2.573  16.318  25.081  0.00  0.00    +0.000 N 
ATOM      4  C   UNL     1      -3.840  16.749  24.724  0.00  0.00    +0.000 A 
ATOM      5  C   UNL     1      -4.371  17.877  25.359  0.00  0.00    +0.000 A 
ATOM      6  C   UNL     1      -5.635  18.333  24.998  0.00  0.00    +0.000 A 
ATOM      7  C   UNL     1      -6.358  17.653  24.022  0.00  0.00    +0.000 A 
ATOM      8 CL   UNL     1      -7.917  18.226  23.571  0.00  0.00    +0.000 Cl
ATOM      9  C   UNL     1      -5.826  16.519  23.399  0.00  0.00    +0.000 A 
ATOM     10  C   UNL     1      -4.547  16.052  23.739  0.00  0.00    +0.000 A 
ATOM     11  C   UNL     1      -3.925  14.855  23.080  0.00  0.00    +0.000 A 
ATOM     12  C   UNL     1      -2.675  14.463  23.462  0.00  0.00    +0.000 A 
ATOM     13  H   UNL     1      -2.044  16.802  25.795  0.00  0.00    +0.000 HD
ENDROOT
BRANCH  11  14
ATOM     14  C   UNL     1      -4.645  14.120  22.009  0.00  0.00    +0.000 A 
ATOM     15  C   UNL     1      -4.571  14.550  20.676  0.00  0.00    +0.000 A 
ATOM     16  C   UNL     1      -5.260  13.863  19.675  0.00  0.00    +0.000 A 
ATOM     17  C   UNL     1      -6.007  12.731  19.995  0.00  0.00    +0.000 A 
ATOM     18  C   UNL     1      -6.062  12.278  21.313  0.00  0.00    +0.000 A 
ATOM     19  C   UNL     1      -5.383  12.969  22.319  0.00  0.00    +0.000 A 
ENDBRANCH  11  14
BRANCH  12  20
ATOM     20  C   UNL     1      -1.963  13.280  22.851  0.00  0.00    +0.000 C 
ATOM     21  N   UNL     1      -2.043  12.053  23.270  0.00  0.00    +0.000 NA
ATOM     22  N   UNL     1      -1.217  11.298  22.515  0.00  0.00    +0.000 N 
ATOM     23  C   UNL     1      -0.624  12.014  21.389  0.00  0.00    +0.000 C 
ATOM     24  C   UNL     1      -1.062  13.451  21.646  0.00  0.00    +0.000 C 
ATOM     25  H   UNL     1      -1.619  10.395  22.256  0.00  0.00    +0.000 HD
BRANCH  23  26
ATOM     26  C   UNL     1      -1.010  11.442  20.043  0.00  0.00    +0.000 A 
ATOM     27  C   UNL     1      -2.196  11.803  19.388  0.00  0.00    +0.000 A 
ATOM     28  C   UNL     1      -2.539  11.219  18.166  0.00  0.00    +0.000 A 
ATOM     29  C   UNL     1      -1.705  10.263  17.587  0.00  0.00    +0.000 A 
ATOM     30  C   UNL     1      -0.521   9.900  18.220  0.00  0.00    +0.000 A 
ATOM     31  C   UNL     1      -0.175  10.486  19.438  0.00  0.00    +0.000 A 
ENDBRANCH  23  26
ENDBRANCH  12  20
TORSDOF 3
ENDMDL
MODEL 9
REMARK VINA RESULT:      -6.8      5.113      8.554
REMARK  Name = 
REMARK  3 active torsions:
REMARK  status: ('A' for Active; 'I' for Inactive)
REMARK    1  A    between atoms: C_11  and  C_12
REMARK    2  A    between atoms: C_18  and  C_19
REMARK    3  A    between atoms: C_22  and  C_23
REMARK                            x       y       z     vdW  Elec       q    Type
REMARK                         _______ _______ _______ _____ _____    ______ ____
ROOT
ATOM      1  O   UNL     1      -2.646   9.641  17.347  0.00  0.00    +0.000 OA
ATOM      2  C   UNL     1      -3.250  10.534  17.935  0.00  0.00    +0.000 A 
ATOM      3  N   UNL     1      -4.506  10.847  17.515  0.00  0.00    +0.000 N 
ATOM      4  C   UNL     1      -5.293  11.828  18.096  0.00  0.00    +0.000 A 
ATOM      5  C   UNL     1      -6.577  12.051  17.584  0.00  0.00    +0.000 A 
ATOM      6  C   UNL     1      -7.385  13.020  18.169  0.00  0.00    +0.000 A 
ATOM      7  C   UNL     1      -6.902  13.762  19.243  0.00  0.00    +0.000 A 
ATOM      8 CL   UNL     1      -7.910  14.953  19.971  0.00  0.00    +0.000 Cl
ATOM      9  C   UNL     1      -5.615  13.542  19.742  0.00  0.00    +0.000 A 
ATOM     10  C   UNL     1      -4.788  12.559  19.175  0.00  0.00    +0.000 A 
ATOM     11  C   UNL     1      -3.409  12.270  19.692  0.00  0.00    +0.000 A 
ATOM     12  C   UNL     1      -2.666  11.296  19.091  0.00  0.00    +0.000 A 
ATOM     13  H   UNL     1      -4.846  10.308  16.729  0.00  0.00    +0.000 HD
ENDROOT
BRANCH  11  14
ATOM     14  C   UNL     1      -2.865  13.011  20.859  0.00  0.00    +0.000 A 
ATOM     15  C   UNL     1      -2.014  14.111  20.671  0.00  0.00    +0.000 A 
ATOM     16  C   UNL     1      -1.496  14.796  21.771  0.00  0.00    +0.000 A 
ATOM     17  C   UNL     1      -1.841  14.403  23.063  0.00  0.00    +0.000 A 
ATOM     18  C   UNL     1      -2.710  13.330  23.259  0.00  0.00    +0.000 A 
ATOM     19  C   UNL     1      -3.223  12.635  22.161  0.00  0.00    +0.000 A 
ENDBRANCH  11  14
BRANCH  12  20
ATOM     20  C   UNL     1      -1.274  10.926  19.546  0.00  0.00    +0.000 C 
ATOM     21  N   UNL     1      -0.931  10.638  20.765  0.00  0.00    +0.000 NA
ATOM     22  N   UNL     1       0.402  10.429  20.786  0.00  0.00    +0.000 N 
ATOM     23  C   UNL     1       1.022  10.422  19.464  0.00  0.00    +0.000 C 
ATOM     24  C   UNL     1      -0.125  10.861  18.562  0.00  0.00    +0.000 C 
ATOM     25  H   UNL     1       0.677   9.635  21.367  0.00  0.00    +0.000 HD
BRANCH  23  26
ATOM     26  C   UNL     1       1.666   9.100  19.110  0.00  0.00    +0.000 A 
ATOM     27  C   UNL     1       1.778   8.050  20.033  0.00  0.00    +0.000 A 
ATOM     28  C   UNL     1       2.418   6.860  19.682  0.00  0.00    +0.000 A 
ATOM     29  C   UNL     1       2.962   6.706  18.407  0.00  0.00    +0.000 A 
ATOM     30  C   UNL     1       2.854   7.735  17.477  0.00  0.00    +0.000 A 
ATOM     31  C   UNL     1       2.209   8.923  17.825  0.00  0.00    +0.000 A 
ENDBRANCH  23  26
ENDBRANCH  12  20
TORSDOF 3
ENDMDL
