MODEL 1
REMARK VINA RESULT:      -6.8      0.000      0.000
REMARK  Name = 
REMARK  3 active torsions:
REMARK  status: ('A' for Active; 'I' for Inactive)
REMARK    1  A    between atoms: C_2  and  C_3
REMARK    2  A    between atoms: C_12  and  N_13
REMARK    3  A    between atoms: C_27  and  C_29
REMARK                            x       y       z     vdW  Elec       q    Type
REMARK                         _______ _______ _______ _____ _____    ______ ____
ROOT
ATOM      1  C   UNL     1      -1.974  11.997  19.409  0.00  0.00    +0.000 A 
ATOM      2  C   UNL     1      -2.102  11.519  18.117  0.00  0.00    +0.000 A 
ATOM      3  N   UNL     1      -3.262  11.306  17.469  0.00  0.00    +0.000 NA
ATOM      4  C   UNL     1      -4.382  11.693  18.072  0.00  0.00    +0.000 A 
ATOM      5  C   UNL     1      -5.550  11.454  17.362  0.00  0.00    +0.000 A 
ATOM      6  C   UNL     1      -6.792  11.880  17.817  0.00  0.00    +0.000 A 
ATOM      7  C   UNL     1      -6.870  12.540  19.029  0.00  0.00    +0.000 A 
ATOM      8  C   UNL     1      -5.709  12.730  19.784  0.00  0.00    +0.000 A 
ATOM      9  C   UNL     1      -4.413  12.339  19.335  0.00  0.00    +0.000 A 
ATOM     10  C   UNL     1      -3.152  12.525  20.039  0.00  0.00    +0.000 A 
ENDROOT
BRANCH   1  12
ATOM     11  O   UNL     1      -0.176  11.173  20.639  0.00  0.00    +0.000 OA
ATOM     12  C   UNL     1      -0.582  12.099  19.938  0.00  0.00    +0.000 C 
ATOM     13  N   UNL     1       0.265  13.198  19.662  0.00  0.00    +0.000 N 
ATOM     14  C   UNL     1      -0.056  14.508  19.042  0.00  0.00    +0.000 C 
ATOM     15  C   UNL     1       0.815  15.646  19.606  0.00  0.00    +0.000 C 
ATOM     16  N   UNL     1       2.241  15.316  19.594  0.00  0.00    +0.000 N 
ATOM     17  C   UNL     1       3.131  16.171  18.962  0.00  0.00    +0.000 C 
ATOM     18  O   UNL     1       2.754  17.124  18.286  0.00  0.00    +0.000 OA
ATOM     19  C   UNL     1       2.557  14.051  20.263  0.00  0.00    +0.000 C 
ATOM     20  C   UNL     1       1.710  12.908  19.683  0.00  0.00    +0.000 C 
BRANCH  17  21
ATOM     21  C   UNL     1       4.601  15.938  19.128  0.00  0.00    +0.000 C 
ATOM     22  C   UNL     1       5.597  17.052  18.894  0.00  0.00    +0.000 C 
ATOM     23  C   UNL     1       5.318  16.590  20.294  0.00  0.00    +0.000 C 
ENDBRANCH  17  21
ENDBRANCH   1  12
BRANCH  10  24
ATOM     24  N   UNL     1      -3.084  13.239  21.251  0.00  0.00    +0.000 N 
ATOM     25  C   UNL     1      -3.123  14.703  21.315  0.00  0.00    +0.000 C 
ATOM     26  C   UNL     1      -2.048  15.216  22.259  0.00  0.00    +0.000 C 
ATOM     27  C   UNL     1      -2.068  14.530  23.624  0.00  0.00    +0.000 C 
ATOM     28  C   UNL     1      -2.305  13.022  23.569  0.00  0.00    +0.000 C 
ATOM     29  C   UNL     1      -3.339  12.584  22.532  0.00  0.00    +0.000 C 
ATOM     30  O   UNL     1      -3.081  15.153  24.450  0.00  0.00    +0.000 OA
ATOM     31  C   UNL     1      -2.454  15.321  25.724  0.00  0.00    +0.000 C 
ATOM     32  C   UNL     1      -1.012  15.571  25.385  0.00  0.00    +0.000 C 
ATOM     33  O   UNL     1      -0.782  14.748  24.247  0.00  0.00    +0.000 OA
ENDBRANCH  10  24
TORSDOF 3
ENDMDL
MODEL 2
REMARK VINA RESULT:      -6.7      0.822      1.372
REMARK  Name = 
REMARK  3 active torsions:
REMARK  status: ('A' for Active; 'I' for Inactive)
REMARK    1  A    between atoms: C_2  and  C_3
REMARK    2  A    between atoms: C_12  and  N_13
REMARK    3  A    between atoms: C_27  and  C_29
REMARK                            x       y       z     vdW  Elec       q    Type
REMARK                         _______ _______ _______ _____ _____    ______ ____
ROOT
ATOM      1  C   UNL     1      -1.600  11.749  18.748  0.00  0.00    +0.000 A 
ATOM      2  C   UNL     1      -1.974  11.407  17.461  0.00  0.00    +0.000 A 
ATOM      3  N   UNL     1      -3.238  11.286  17.017  0.00  0.00    +0.000 NA
ATOM      4  C   UNL     1      -4.217  11.635  17.846  0.00  0.00    +0.000 A 
ATOM      5  C   UNL     1      -5.501  11.495  17.340  0.00  0.00    +0.000 A 
ATOM      6  C   UNL     1      -6.625  11.901  18.050  0.00  0.00    +0.000 A 
ATOM      7  C   UNL     1      -6.459  12.437  19.314  0.00  0.00    +0.000 A 
ATOM      8  C   UNL     1      -5.175  12.523  19.861  0.00  0.00    +0.000 A 
ATOM      9  C   UNL     1      -3.996  12.151  19.149  0.00  0.00    +0.000 A 
ATOM     10  C   UNL     1      -2.624  12.236  19.628  0.00  0.00    +0.000 A 
ENDROOT
BRANCH   1  12
ATOM     11  O   UNL     1       0.391  10.704  19.358  0.00  0.00    +0.000 OA
ATOM     12  C   UNL     1      -0.132  11.766  19.024  0.00  0.00    +0.000 C 
ATOM     13  N   UNL     1       0.656  12.935  18.912  0.00  0.00    +0.000 N 
ATOM     14  C   UNL     1       0.234  14.348  18.743  0.00  0.00    +0.000 C 
ATOM     15  C   UNL     1       1.203  15.328  19.431  0.00  0.00    +0.000 C 
ATOM     16  N   UNL     1       2.599  15.078  19.072  0.00  0.00    +0.000 N 
ATOM     17  C   UNL     1       3.362  16.111  18.548  0.00  0.00    +0.000 C 
ATOM     18  O   UNL     1       2.872  17.193  18.240  0.00  0.00    +0.000 OA
ATOM     19  C   UNL     1       3.025  13.694  19.299  0.00  0.00    +0.000 C 
ATOM     20  C   UNL     1       2.078  12.715  18.590  0.00  0.00    +0.000 C 
BRANCH  17  21
ATOM     21  C   UNL     1       4.835  15.908  18.375  0.00  0.00    +0.000 C 
ATOM     22  C   UNL     1       5.817  17.014  18.692  0.00  0.00    +0.000 C 
ATOM     23  C   UNL     1       5.714  15.831  19.609  0.00  0.00    +0.000 C 
ENDBRANCH  17  21
ENDBRANCH   1  12
BRANCH  10  24
ATOM     24  N   UNL     1      -2.313  12.822  20.870  0.00  0.00    +0.000 N 
ATOM     25  C   UNL     1      -1.833  12.046  22.018  0.00  0.00    +0.000 C 
ATOM     26  C   UNL     1      -2.570  12.465  23.280  0.00  0.00    +0.000 C 
ATOM     27  C   UNL     1      -2.571  13.976  23.504  0.00  0.00    +0.000 C 
ATOM     28  C   UNL     1      -2.800  14.802  22.239  0.00  0.00    +0.000 C 
ATOM     29  C   UNL     1      -2.093  14.262  20.997  0.00  0.00    +0.000 C 
ATOM     30  O   UNL     1      -1.316  14.363  24.116  0.00  0.00    +0.000 OA
ATOM     31  C   UNL     1      -1.688  15.276  25.152  0.00  0.00    +0.000 C 
ATOM     32  C   UNL     1      -3.022  14.768  25.617  0.00  0.00    +0.000 C 
ATOM     33  O   UNL     1      -3.638  14.287  24.428  0.00  0.00    +0.000 OA
ENDBRANCH  10  24
TORSDOF 3
ENDMDL
MODEL 3
REMARK VINA RESULT:      -6.4      1.139      1.673
REMARK  Name = 
REMARK  3 active torsions:
REMARK  status: ('A' for Active; 'I' for Inactive)
REMARK    1  A    between atoms: C_2  and  C_3
REMARK    2  A    between atoms: C_12  and  N_13
REMARK    3  A    between atoms: C_27  and  C_29
REMARK                            x       y       z     vdW  Elec       q    Type
REMARK                         _______ _______ _______ _____ _____    ______ ____
ROOT
ATOM      1  C   UNL     1      -2.240  11.965  19.723  0.00  0.00    +0.000 A 
ATOM      2  C   UNL     1      -2.374  11.324  18.505  0.00  0.00    +0.000 A 
ATOM      3  N   UNL     1      -3.533  11.110  17.854  0.00  0.00    +0.000 NA
ATOM      4  C   UNL     1      -4.634  11.656  18.362  0.00  0.00    +0.000 A 
ATOM      5  C   UNL     1      -5.800  11.407  17.653  0.00  0.00    +0.000 A 
ATOM      6  C   UNL     1      -7.016  11.981  18.004  0.00  0.00    +0.000 A 
ATOM      7  C   UNL     1      -7.071  12.805  19.114  0.00  0.00    +0.000 A 
ATOM      8  C   UNL     1      -5.915  13.012  19.874  0.00  0.00    +0.000 A 
ATOM      9  C   UNL     1      -4.643  12.470  19.524  0.00  0.00    +0.000 A 
ATOM     10  C   UNL     1      -3.388  12.658  20.237  0.00  0.00    +0.000 A 
ENDROOT
BRANCH   1  12
ATOM     11  O   UNL     1      -0.593  11.306  21.233  0.00  0.00    +0.000 OA
ATOM     12  C   UNL     1      -0.856  12.037  20.279  0.00  0.00    +0.000 C 
ATOM     13  N   UNL     1       0.138  12.895  19.754  0.00  0.00    +0.000 N 
ATOM     14  C   UNL     1       0.010  14.003  18.774  0.00  0.00    +0.000 C 
ATOM     15  C   UNL     1       1.018  15.135  19.044  0.00  0.00    +0.000 C 
ATOM     16  N   UNL     1       2.386  14.638  19.205  0.00  0.00    +0.000 N 
ATOM     17  C   UNL     1       3.395  15.158  18.409  0.00  0.00    +0.000 C 
ATOM     18  O   UNL     1       3.164  15.918  17.474  0.00  0.00    +0.000 OA
ATOM     19  C   UNL     1       2.514  13.587  20.218  0.00  0.00    +0.000 C 
ATOM     20  C   UNL     1       1.529  12.443  19.936  0.00  0.00    +0.000 C 
BRANCH  17  21
ATOM     21  C   UNL     1       4.817  14.798  18.715  0.00  0.00    +0.000 C 
ATOM     22  C   UNL     1       5.954  15.715  18.323  0.00  0.00    +0.000 C 
ATOM     23  C   UNL     1       5.564  15.596  19.766  0.00  0.00    +0.000 C 
ENDBRANCH  17  21
ENDBRANCH   1  12
BRANCH  10  24
ATOM     24  N   UNL     1      -3.293  13.524  21.343  0.00  0.00    +0.000 N 
ATOM     25  C   UNL     1      -3.381  13.057  22.730  0.00  0.00    +0.000 C 
ATOM     26  C   UNL     1      -4.302  13.962  23.532  0.00  0.00    +0.000 C 
ATOM     27  C   UNL     1      -3.960  15.445  23.393  0.00  0.00    +0.000 C 
ATOM     28  C   UNL     1      -3.595  15.878  21.974  0.00  0.00    +0.000 C 
ATOM     29  C   UNL     1      -2.739  14.870  21.208  0.00  0.00    +0.000 C 
ATOM     30  O   UNL     1      -2.872  15.764  24.295  0.00  0.00    +0.000 OA
ATOM     31  C   UNL     1      -3.260  16.998  24.904  0.00  0.00    +0.000 C 
ATOM     32  C   UNL     1      -4.757  16.904  24.984  0.00  0.00    +0.000 C 
ATOM     33  O   UNL     1      -5.119  16.206  23.798  0.00  0.00    +0.000 OA
ENDBRANCH  10  24
TORSDOF 3
ENDMDL
MODEL 4
REMARK VINA RESULT:      -6.4      1.253      1.815
REMARK  Name = 
REMARK  3 active torsions:
REMARK  status: ('A' for Active; 'I' for Inactive)
REMARK    1  A    between atoms: C_2  and  C_3
REMARK    2  A    between atoms: C_12  and  N_13
REMARK    3  A    between atoms: C_27  and  C_29
REMARK                            x       y       z     vdW  Elec       q    Type
REMARK                         _______ _______ _______ _____ _____    ______ ____
ROOT
ATOM      1  C   UNL     1      -0.939  12.172  19.846  0.00  0.00    +0.000 A 
ATOM      2  C   UNL     1      -0.821  11.498  18.645  0.00  0.00    +0.000 A 
ATOM      3  N   UNL     1      -1.844  11.053  17.890  0.00  0.00    +0.000 NA
ATOM      4  C   UNL     1      -3.075  11.386  18.267  0.00  0.00    +0.000 A 
ATOM      5  C   UNL     1      -4.093  10.906  17.456  0.00  0.00    +0.000 A 
ATOM      6  C   UNL     1      -5.426  11.241  17.664  0.00  0.00    +0.000 A 
ATOM      7  C   UNL     1      -5.751  12.057  18.732  0.00  0.00    +0.000 A 
ATOM      8  C   UNL     1      -4.741  12.495  19.595  0.00  0.00    +0.000 A 
ATOM      9  C   UNL     1      -3.359  12.202  19.392  0.00  0.00    +0.000 A 
ATOM     10  C   UNL     1      -2.244  12.640  20.219  0.00  0.00    +0.000 A 
ENDROOT
BRANCH   1  12
ATOM     11  O   UNL     1       0.651  11.850  21.519  0.00  0.00    +0.000 OA
ATOM     12  C   UNL     1       0.341  12.519  20.534  0.00  0.00    +0.000 C 
ATOM     13  N   UNL     1       1.190  13.562  20.095  0.00  0.00    +0.000 N 
ATOM     14  C   UNL     1       0.939  14.626  19.091  0.00  0.00    +0.000 C 
ATOM     15  C   UNL     1       1.668  15.937  19.442  0.00  0.00    +0.000 C 
ATOM     16  N   UNL     1       3.085  15.725  19.742  0.00  0.00    +0.000 N 
ATOM     17  C   UNL     1       4.042  16.441  19.041  0.00  0.00    +0.000 C 
ATOM     18  O   UNL     1       3.756  17.144  18.076  0.00  0.00    +0.000 OA
ATOM     19  C   UNL     1       3.320  14.716  20.779  0.00  0.00    +0.000 C 
ATOM     20  C   UNL     1       2.619  13.398  20.418  0.00  0.00    +0.000 C 
BRANCH  17  21
ATOM     21  C   UNL     1       5.470  16.373  19.489  0.00  0.00    +0.000 C 
ATOM     22  C   UNL     1       6.529  17.246  18.852  0.00  0.00    +0.000 C 
ATOM     23  C   UNL     1       6.057  17.551  20.243  0.00  0.00    +0.000 C 
ENDBRANCH  17  21
ENDBRANCH   1  12
BRANCH  10  24
ATOM     24  N   UNL     1      -2.430  13.526  21.297  0.00  0.00    +0.000 N 
ATOM     25  C   UNL     1      -2.541  13.076  22.688  0.00  0.00    +0.000 C 
ATOM     26  C   UNL     1      -3.698  13.779  23.378  0.00  0.00    +0.000 C 
ATOM     27  C   UNL     1      -3.663  15.298  23.214  0.00  0.00    +0.000 C 
ATOM     28  C   UNL     1      -3.274  15.773  21.815  0.00  0.00    +0.000 C 
ATOM     29  C   UNL     1      -2.161  14.957  21.159  0.00  0.00    +0.000 C 
ATOM     30  O   UNL     1      -2.751  15.857  24.190  0.00  0.00    +0.000 OA
ATOM     31  C   UNL     1      -3.441  16.992  24.720  0.00  0.00    +0.000 C 
ATOM     32  C   UNL     1      -4.886  16.583  24.680  0.00  0.00    +0.000 C 
ATOM     33  O   UNL     1      -4.988  15.804  23.494  0.00  0.00    +0.000 OA
ENDBRANCH  10  24
TORSDOF 3
ENDMDL
MODEL 5
REMARK VINA RESULT:      -6.2      2.818      7.130
REMARK  Name = 
REMARK  3 active torsions:
REMARK  status: ('A' for Active; 'I' for Inactive)
REMARK    1  A    between atoms: C_2  and  C_3
REMARK    2  A    between atoms: C_12  and  N_13
REMARK    3  A    between atoms: C_27  and  C_29
REMARK                            x       y       z     vdW  Elec       q    Type
REMARK                         _______ _______ _______ _____ _____    ______ ____
ROOT
ATOM      1  C   UNL     1      -0.303  11.485  21.319  0.00  0.00    +0.000 A 
ATOM      2  C   UNL     1      -0.303  10.215  21.867  0.00  0.00    +0.000 A 
ATOM      3  N   UNL     1       0.204   9.111  21.289  0.00  0.00    +0.000 NA
ATOM      4  C   UNL     1       0.866   9.264  20.145  0.00  0.00    +0.000 A 
ATOM      5  C   UNL     1       1.371   8.097  19.592  0.00  0.00    +0.000 A 
ATOM      6  C   UNL     1       2.160   8.101  18.448  0.00  0.00    +0.000 A 
ATOM      7  C   UNL     1       2.428   9.307  17.825  0.00  0.00    +0.000 A 
ATOM      8  C   UNL     1       1.871  10.483  18.337  0.00  0.00    +0.000 A 
ATOM      9  C   UNL     1       1.087  10.522  19.528  0.00  0.00    +0.000 A 
ATOM     10  C   UNL     1       0.496  11.701  20.146  0.00  0.00    +0.000 A 
ENDROOT
BRANCH   1  12
ATOM     11  O   UNL     1      -0.387  12.956  23.124  0.00  0.00    +0.000 OA
ATOM     12  C   UNL     1      -0.976  12.548  22.124  0.00  0.00    +0.000 C 
ATOM     13  N   UNL     1      -2.235  13.091  21.778  0.00  0.00    +0.000 N 
ATOM     14  C   UNL     1      -3.221  12.627  20.770  0.00  0.00    +0.000 C 
ATOM     15  C   UNL     1      -4.671  12.913  21.203  0.00  0.00    +0.000 C 
ATOM     16  N   UNL     1      -4.863  14.301  21.627  0.00  0.00    +0.000 N 
ATOM     17  C   UNL     1      -5.851  15.065  21.025  0.00  0.00    +0.000 C 
ATOM     18  O   UNL     1      -6.480  14.668  20.048  0.00  0.00    +0.000 OA
ATOM     19  C   UNL     1      -3.925  14.732  22.667  0.00  0.00    +0.000 C 
ATOM     20  C   UNL     1      -2.476  14.475  22.226  0.00  0.00    +0.000 C 
BRANCH  17  21
ATOM     21  C   UNL     1      -6.179  16.409  21.599  0.00  0.00    +0.000 C 
ATOM     22  C   UNL     1      -7.520  17.060  21.342  0.00  0.00    +0.000 C 
ATOM     23  C   UNL     1      -7.218  16.500  22.700  0.00  0.00    +0.000 C 
ENDBRANCH  17  21
ENDBRANCH   1  12
BRANCH  10  24
ATOM     24  N   UNL     1       0.745  12.995  19.650  0.00  0.00    +0.000 N 
ATOM     25  C   UNL     1       2.023  13.688  19.842  0.00  0.00    +0.000 C 
ATOM     26  C   UNL     1       1.781  15.124  20.276  0.00  0.00    +0.000 C 
ATOM     27  C   UNL     1       0.796  15.868  19.375  0.00  0.00    +0.000 C 
ATOM     28  C   UNL     1      -0.415  15.041  18.945  0.00  0.00    +0.000 C 
ATOM     29  C   UNL     1      -0.096  13.584  18.610  0.00  0.00    +0.000 C 
ATOM     30  O   UNL     1       1.499  16.347  18.203  0.00  0.00    +0.000 OA
ATOM     31  C   UNL     1       1.034  17.688  18.027  0.00  0.00    +0.000 C 
ATOM     32  C   UNL     1       0.787  18.169  19.429  0.00  0.00    +0.000 C 
ATOM     33  O   UNL     1       0.305  17.014  20.106  0.00  0.00    +0.000 OA
ENDBRANCH  10  24
TORSDOF 3
ENDMDL
MODEL 6
REMARK VINA RESULT:      -6.1      4.801      7.461
REMARK  Name = 
REMARK  3 active torsions:
REMARK  status: ('A' for Active; 'I' for Inactive)
REMARK    1  A    between atoms: C_2  and  C_3
REMARK    2  A    between atoms: C_12  and  N_13
REMARK    3  A    between atoms: C_27  and  C_29
REMARK                            x       y       z     vdW  Elec       q    Type
REMARK                         _______ _______ _______ _____ _____    ______ ____
ROOT
ATOM      1  C   UNL     1       3.961  16.712  19.088  0.00  0.00    +0.000 A 
ATOM      2  C   UNL     1       3.351  17.380  18.042  0.00  0.00    +0.000 A 
ATOM      3  N   UNL     1       2.032  17.379  17.773  0.00  0.00    +0.000 NA
ATOM      4  C   UNL     1       1.227  16.783  18.647  0.00  0.00    +0.000 A 
ATOM      5  C   UNL     1      -0.122  16.812  18.326  0.00  0.00    +0.000 A 
ATOM      6  C   UNL     1      -1.098  16.312  19.180  0.00  0.00    +0.000 A 
ATOM      7  C   UNL     1      -0.708  15.741  20.379  0.00  0.00    +0.000 A 
ATOM      8  C   UNL     1       0.653  15.648  20.685  0.00  0.00    +0.000 A 
ATOM      9  C   UNL     1       1.680  16.182  19.850  0.00  0.00    +0.000 A 
ATOM     10  C   UNL     1       3.113  16.157  20.105  0.00  0.00    +0.000 A 
ENDROOT
BRANCH   1  12
ATOM     11  O   UNL     1       5.926  17.900  19.483  0.00  0.00    +0.000 OA
ATOM     12  C   UNL     1       5.450  16.814  19.154  0.00  0.00    +0.000 C 
ATOM     13  N   UNL     1       6.307  15.727  18.863  0.00  0.00    +0.000 N 
ATOM     14  C   UNL     1       5.993  14.414  18.247  0.00  0.00    +0.000 C 
ATOM     15  C   UNL     1       7.161  13.877  17.399  0.00  0.00    +0.000 C 
ATOM     16  N   UNL     1       8.435  13.907  18.120  0.00  0.00    +0.000 N 
ATOM     17  C   UNL     1       9.176  12.741  18.239  0.00  0.00    +0.000 C 
ATOM     18  O   UNL     1       8.739  11.650  17.885  0.00  0.00    +0.000 OA
ATOM     19  C   UNL     1       8.767  15.223  18.672  0.00  0.00    +0.000 C 
ATOM     20  C   UNL     1       7.615  15.749  19.542  0.00  0.00    +0.000 C 
BRANCH  17  21
ATOM     21  C   UNL     1      10.565  12.819  18.795  0.00  0.00    +0.000 C 
ATOM     22  C   UNL     1      11.515  11.647  18.683  0.00  0.00    +0.000 C 
ATOM     23  C   UNL     1      11.737  12.863  17.833  0.00  0.00    +0.000 C 
ENDBRANCH  17  21
ENDBRANCH   1  12
BRANCH  10  24
ATOM     24  N   UNL     1       3.637  15.664  21.316  0.00  0.00    +0.000 N 
ATOM     25  C   UNL     1       3.608  16.431  22.565  0.00  0.00    +0.000 C 
ATOM     26  C   UNL     1       4.958  16.356  23.259  0.00  0.00    +0.000 C 
ATOM     27  C   UNL     1       5.478  14.928  23.414  0.00  0.00    +0.000 C 
ATOM     28  C   UNL     1       5.256  14.039  22.191  0.00  0.00    +0.000 C 
ATOM     29  C   UNL     1       3.906  14.240  21.503  0.00  0.00    +0.000 C 
ATOM     30  O   UNL     1       4.856  14.324  24.574  0.00  0.00    +0.000 OA
ATOM     31  C   UNL     1       5.926  13.657  25.250  0.00  0.00    +0.000 C 
ATOM     32  C   UNL     1       7.120  14.526  24.975  0.00  0.00    +0.000 C 
ATOM     33  O   UNL     1       6.902  14.998  23.650  0.00  0.00    +0.000 OA
ENDBRANCH  10  24
TORSDOF 3
ENDMDL
MODEL 7
REMARK VINA RESULT:      -6.0      5.100     10.415
REMARK  Name = 
REMARK  3 active torsions:
REMARK  status: ('A' for Active; 'I' for Inactive)
REMARK    1  A    between atoms: C_2  and  C_3
REMARK    2  A    between atoms: C_12  and  N_13
REMARK    3  A    between atoms: C_27  and  C_29
REMARK                            x       y       z     vdW  Elec       q    Type
REMARK                         _______ _______ _______ _____ _____    ______ ____
ROOT
ATOM      1  C   UNL     1       8.246  15.268  19.792  0.00  0.00    +0.000 A 
ATOM      2  C   UNL     1       8.555  15.257  18.444  0.00  0.00    +0.000 A 
ATOM      3  N   UNL     1       9.521  14.518  17.867  0.00  0.00    +0.000 NA
ATOM      4  C   UNL     1      10.160  13.637  18.631  0.00  0.00    +0.000 A 
ATOM      5  C   UNL     1      11.144  12.900  17.988  0.00  0.00    +0.000 A 
ATOM      6  C   UNL     1      11.839  11.879  18.626  0.00  0.00    +0.000 A 
ATOM      7  C   UNL     1      11.560  11.608  19.953  0.00  0.00    +0.000 A 
ATOM      8  C   UNL     1      10.616  12.387  20.630  0.00  0.00    +0.000 A 
ATOM      9  C   UNL     1       9.858  13.418  19.999  0.00  0.00    +0.000 A 
ATOM     10  C   UNL     1       8.838  14.254  20.617  0.00  0.00    +0.000 A 
ENDROOT
BRANCH   1  12
ATOM     11  O   UNL     1       7.510  17.222  20.827  0.00  0.00    +0.000 OA
ATOM     12  C   UNL     1       7.167  16.213  20.211  0.00  0.00    +0.000 C 
ATOM     13  N   UNL     1       5.800  15.993  19.925  0.00  0.00    +0.000 N 
ATOM     14  C   UNL     1       5.127  14.777  19.402  0.00  0.00    +0.000 C 
ATOM     15  C   UNL     1       3.697  14.624  19.952  0.00  0.00    +0.000 C 
ATOM     16  N   UNL     1       2.909  15.849  19.807  0.00  0.00    +0.000 N 
ATOM     17  C   UNL     1       1.689  15.798  19.151  0.00  0.00    +0.000 C 
ATOM     18  O   UNL     1       1.307  14.793  18.559  0.00  0.00    +0.000 OA
ATOM     19  C   UNL     1       3.553  17.034  20.381  0.00  0.00    +0.000 C 
ATOM     20  C   UNL     1       4.970  17.206  19.813  0.00  0.00    +0.000 C 
BRANCH  17  21
ATOM     21  C   UNL     1       0.798  17.002  19.184  0.00  0.00    +0.000 C 
ATOM     22  C   UNL     1      -0.514  17.020  18.430  0.00  0.00    +0.000 C 
ATOM     23  C   UNL     1      -0.522  16.914  19.926  0.00  0.00    +0.000 C 
ENDBRANCH  17  21
ENDBRANCH   1  12
BRANCH  10  24
ATOM     24  N   UNL     1       8.414  14.039  21.942  0.00  0.00    +0.000 N 
ATOM     25  C   UNL     1       7.624  12.871  22.345  0.00  0.00    +0.000 C 
ATOM     26  C   UNL     1       6.473  13.299  23.241  0.00  0.00    +0.000 C 
ATOM     27  C   UNL     1       6.913  14.187  24.404  0.00  0.00    +0.000 C 
ATOM     28  C   UNL     1       7.957  15.239  24.035  0.00  0.00    +0.000 C 
ATOM     29  C   UNL     1       9.029  14.750  23.062  0.00  0.00    +0.000 C 
ATOM     30  O   UNL     1       7.423  13.349  25.470  0.00  0.00    +0.000 OA
ATOM     31  C   UNL     1       6.846  13.891  26.661  0.00  0.00    +0.000 C 
ATOM     32  C   UNL     1       5.505  14.397  26.212  0.00  0.00    +0.000 C 
ATOM     33  O   UNL     1       5.746  14.883  24.896  0.00  0.00    +0.000 OA
ENDBRANCH  10  24
TORSDOF 3
ENDMDL
MODEL 8
REMARK VINA RESULT:      -6.0      5.278     10.076
REMARK  Name = 
REMARK  3 active torsions:
REMARK  status: ('A' for Active; 'I' for Inactive)
REMARK    1  A    between atoms: C_2  and  C_3
REMARK    2  A    between atoms: C_12  and  N_13
REMARK    3  A    between atoms: C_27  and  C_29
REMARK                            x       y       z     vdW  Elec       q    Type
REMARK                         _______ _______ _______ _____ _____    ______ ____
ROOT
ATOM      1  C   UNL     1       7.629  15.302  19.986  0.00  0.00    +0.000 A 
ATOM      2  C   UNL     1       7.993  15.238  18.653  0.00  0.00    +0.000 A 
ATOM      3  N   UNL     1       8.952  14.446  18.139  0.00  0.00    +0.000 NA
ATOM      4  C   UNL     1       9.524  13.565  18.954  0.00  0.00    +0.000 A 
ATOM      5  C   UNL     1      10.504  12.771  18.376  0.00  0.00    +0.000 A 
ATOM      6  C   UNL     1      11.130  11.744  19.071  0.00  0.00    +0.000 A 
ATOM      7  C   UNL     1      10.786  11.524  20.393  0.00  0.00    +0.000 A 
ATOM      8  C   UNL     1       9.847  12.359  21.006  0.00  0.00    +0.000 A 
ATOM      9  C   UNL     1       9.157  13.399  20.314  0.00  0.00    +0.000 A 
ATOM     10  C   UNL     1       8.146  14.291  20.864  0.00  0.00    +0.000 A 
ENDROOT
BRANCH   1  12
ATOM     11  O   UNL     1       6.935  17.333  20.893  0.00  0.00    +0.000 OA
ATOM     12  C   UNL     1       6.573  16.300  20.331  0.00  0.00    +0.000 C 
ATOM     13  N   UNL     1       5.203  16.101  20.036  0.00  0.00    +0.000 N 
ATOM     14  C   UNL     1       4.503  14.877  19.575  0.00  0.00    +0.000 C 
ATOM     15  C   UNL     1       3.062  14.797  20.110  0.00  0.00    +0.000 C 
ATOM     16  N   UNL     1       2.311  16.033  19.880  0.00  0.00    +0.000 N 
ATOM     17  C   UNL     1       1.100  15.978  19.208  0.00  0.00    +0.000 C 
ATOM     18  O   UNL     1       0.698  14.950  18.670  0.00  0.00    +0.000 OA
ATOM     19  C   UNL     1       2.982  17.230  20.395  0.00  0.00    +0.000 C 
ATOM     20  C   UNL     1       4.411  17.329  19.840  0.00  0.00    +0.000 C 
BRANCH  17  21
ATOM     21  C   UNL     1       0.244  17.205  19.156  0.00  0.00    +0.000 C 
ATOM     22  C   UNL     1       0.472  18.270  18.106  0.00  0.00    +0.000 C 
ATOM     23  C   UNL     1      -0.726  17.372  18.002  0.00  0.00    +0.000 C 
ENDBRANCH  17  21
ENDBRANCH   1  12
BRANCH  10  24
ATOM     24  N   UNL     1       7.659  14.133  22.176  0.00  0.00    +0.000 N 
ATOM     25  C   UNL     1       8.183  14.890  23.316  0.00  0.00    +0.000 C 
ATOM     26  C   UNL     1       8.418  13.965  24.499  0.00  0.00    +0.000 C 
ATOM     27  C   UNL     1       7.207  13.093  24.831  0.00  0.00    +0.000 C 
ATOM     28  C   UNL     1       6.488  12.520  23.610  0.00  0.00    +0.000 C 
ATOM     29  C   UNL     1       6.372  13.490  22.435  0.00  0.00    +0.000 C 
ATOM     30  O   UNL     1       6.276  13.864  25.627  0.00  0.00    +0.000 OA
ATOM     31  C   UNL     1       5.871  12.972  26.671  0.00  0.00    +0.000 C 
ATOM     32  C   UNL     1       7.092  12.134  26.919  0.00  0.00    +0.000 C 
ATOM     33  O   UNL     1       7.669  11.980  25.628  0.00  0.00    +0.000 OA
ENDBRANCH  10  24
TORSDOF 3
ENDMDL
MODEL 9
REMARK VINA RESULT:      -6.0      4.078      6.814
REMARK  Name = 
REMARK  3 active torsions:
REMARK  status: ('A' for Active; 'I' for Inactive)
REMARK    1  A    between atoms: C_2  and  C_3
REMARK    2  A    between atoms: C_12  and  N_13
REMARK    3  A    between atoms: C_27  and  C_29
REMARK                            x       y       z     vdW  Elec       q    Type
REMARK                         _______ _______ _______ _____ _____    ______ ____
ROOT
ATOM      1  C   UNL     1       3.291  16.325  20.667  0.00  0.00    +0.000 A 
ATOM      2  C   UNL     1       3.384  17.691  20.472  0.00  0.00    +0.000 A 
ATOM      3  N   UNL     1       2.571  18.431  19.696  0.00  0.00    +0.000 NA
ATOM      4  C   UNL     1       1.517  17.825  19.157  0.00  0.00    +0.000 A 
ATOM      5  C   UNL     1       0.709  18.631  18.368  0.00  0.00    +0.000 A 
ATOM      6  C   UNL     1      -0.476  18.169  17.809  0.00  0.00    +0.000 A 
ATOM      7  C   UNL     1      -0.849  16.855  18.024  0.00  0.00    +0.000 A 
ATOM      8  C   UNL     1      -0.011  16.015  18.763  0.00  0.00    +0.000 A 
ATOM      9  C   UNL     1       1.194  16.462  19.382  0.00  0.00    +0.000 A 
ATOM     10  C   UNL     1       2.107  15.667  20.192  0.00  0.00    +0.000 A 
ENDROOT
BRANCH   1  12
ATOM     11  O   UNL     1       4.095  15.604  22.731  0.00  0.00    +0.000 OA
ATOM     12  C   UNL     1       4.343  15.710  21.531  0.00  0.00    +0.000 C 
ATOM     13  N   UNL     1       5.582  15.254  21.024  0.00  0.00    +0.000 N 
ATOM     14  C   UNL     1       6.193  15.464  19.688  0.00  0.00    +0.000 C 
ATOM     15  C   UNL     1       7.729  15.543  19.758  0.00  0.00    +0.000 C 
ATOM     16  N   UNL     1       8.312  14.431  20.510  0.00  0.00    +0.000 N 
ATOM     17  C   UNL     1       9.285  13.644  19.914  0.00  0.00    +0.000 C 
ATOM     18  O   UNL     1       9.578  13.754  18.726  0.00  0.00    +0.000 OA
ATOM     19  C   UNL     1       7.746  14.269  21.852  0.00  0.00    +0.000 C 
ATOM     20  C   UNL     1       6.216  14.161  21.783  0.00  0.00    +0.000 C 
BRANCH  17  21
ATOM     21  C   UNL     1      10.020  12.642  20.751  0.00  0.00    +0.000 C 
ATOM     22  C   UNL     1       9.524  11.219  20.878  0.00  0.00    +0.000 C 
ATOM     23  C   UNL     1      10.748  11.505  20.060  0.00  0.00    +0.000 C 
ENDBRANCH  17  21
ENDBRANCH   1  12
BRANCH  10  24
ATOM     24  N   UNL     1       1.812  14.335  20.540  0.00  0.00    +0.000 N 
ATOM     25  C   UNL     1       2.552  13.189  20.001  0.00  0.00    +0.000 C 
ATOM     26  C   UNL     1       1.587  12.100  19.563  0.00  0.00    +0.000 C 
ATOM     27  C   UNL     1       0.564  11.733  20.637  0.00  0.00    +0.000 C 
ATOM     28  C   UNL     1      -0.010  12.929  21.396  0.00  0.00    +0.000 C 
ATOM     29  C   UNL     1       1.011  14.018  21.721  0.00  0.00    +0.000 C 
ATOM     30  O   UNL     1       1.172  10.810  21.571  0.00  0.00    +0.000 OA
ATOM     31  C   UNL     1       0.178   9.804  21.782  0.00  0.00    +0.000 C 
ATOM     32  C   UNL     1      -0.530   9.717  20.460  0.00  0.00    +0.000 C 
ATOM     33  O   UNL     1      -0.537  11.059  19.987  0.00  0.00    +0.000 OA
ENDBRANCH  10  24
TORSDOF 3
ENDMDL
