MODEL 1
REMARK VINA RESULT:      -6.7      0.000      0.000
REMARK  Name = 
REMARK  7 active torsions:
REMARK  status: ('A' for Active; 'I' for Inactive)
REMARK    1  A    between atoms: C_1  and  C_2
REMARK    2  A    between atoms: C_2  and  O_3
REMARK    3  A    between atoms: O_3  and  C_4
REMARK    4  A    between atoms: C_4  and  C_6
REMARK    5  A    between atoms: C_6  and  O_7
REMARK    6  A    between atoms: C_6  and  C_8
REMARK    7  A    between atoms: C_8  and  N_9
REMARK                            x       y       z     vdW  Elec       q    Type
REMARK                         _______ _______ _______ _____ _____    ______ ____
ROOT
ATOM      1  N   UNL     1       4.290   4.107  17.541  0.00  0.00    +0.000 N 
ATOM      2  C   UNL     1       4.278   5.058  18.524  0.00  0.00    +0.000 A 
ATOM      3  N   UNL     1       5.239   5.943  18.358  0.00  0.00    +0.000 NA
ATOM      4  C   UNL     1       5.899   5.535  17.212  0.00  0.00    +0.000 A 
ATOM      5  C   UNL     1       7.008   6.048  16.519  0.00  0.00    +0.000 A 
ATOM      6  N   UNL     1       7.714   7.168  16.940  0.00  0.00    +0.000 N 
ATOM      7  N   UNL     1       7.398   5.435  15.379  0.00  0.00    +0.000 NA
ATOM      8  C   UNL     1       6.718   4.340  14.976  0.00  0.00    +0.000 A 
ATOM      9  N   UNL     1       5.650   3.754  15.556  0.00  0.00    +0.000 NA
ATOM     10  C   UNL     1       5.301   4.408  16.674  0.00  0.00    +0.000 A 
ATOM     11  H   UNL     1       7.188   7.763  17.569  0.00  0.00    +0.000 HD
ATOM     12  H   UNL     1       8.215   7.609  16.180  0.00  0.00    +0.000 HD
ENDROOT
BRANCH   1  13
ATOM     13  C   UNL     1       3.375   2.996  17.415  0.00  0.00    +0.000 C 
BRANCH  13  14
ATOM     14  C   UNL     1       3.313   2.127  18.674  0.00  0.00    +0.000 C 
BRANCH  14  15
ATOM     15  C   UNL     1       1.847   2.092  19.079  0.00  0.00    +0.000 C 
ATOM     16  O   UNL     1       0.918   2.135  18.284  0.00  0.00    +0.000 OA
BRANCH  15  17
ATOM     17  O   UNL     1       1.740   2.157  20.436  0.00  0.00    +0.000 OA
BRANCH  17  19
ATOM     18  C   UNL     1       1.397   4.496  20.750  0.00  0.00    +0.000 C 
ATOM     19  C   UNL     1       2.313   3.322  21.045  0.00  0.00    +0.000 C 
ENDBRANCH  17  19
ENDBRANCH  15  17
ENDBRANCH  14  15
BRANCH  14  20
ATOM     20  O   UNL     1       3.803   0.810  18.432  0.00  0.00    +0.000 OA
ATOM     21  H   UNL     1       4.659   0.718  18.893  0.00  0.00    +0.000 HD
ENDBRANCH  14  20
ENDBRANCH  13  14
ENDBRANCH   1  13
TORSDOF 6
ENDMDL
MODEL 2
REMARK VINA RESULT:      -6.7      3.388      6.207
REMARK  Name = 
REMARK  7 active torsions:
REMARK  status: ('A' for Active; 'I' for Inactive)
REMARK    1  A    between atoms: C_1  and  C_2
REMARK    2  A    between atoms: C_2  and  O_3
REMARK    3  A    between atoms: O_3  and  C_4
REMARK    4  A    between atoms: C_4  and  C_6
REMARK    5  A    between atoms: C_6  and  O_7
REMARK    6  A    between atoms: C_6  and  C_8
REMARK    7  A    between atoms: C_8  and  N_9
REMARK                            x       y       z     vdW  Elec       q    Type
REMARK                         _______ _______ _______ _____ _____    ______ ____
ROOT
ATOM      1  N   UNL     1       4.628   3.992  17.333  0.00  0.00    +0.000 N 
ATOM      2  C   UNL     1       5.572   4.111  18.315  0.00  0.00    +0.000 A 
ATOM      3  N   UNL     1       5.111   3.722  19.486  0.00  0.00    +0.000 NA
ATOM      4  C   UNL     1       3.806   3.337  19.239  0.00  0.00    +0.000 A 
ATOM      5  C   UNL     1       2.787   2.841  20.069  0.00  0.00    +0.000 A 
ATOM      6  N   UNL     1       2.945   2.657  21.437  0.00  0.00    +0.000 N 
ATOM      7  N   UNL     1       1.602   2.508  19.510  0.00  0.00    +0.000 NA
ATOM      8  C   UNL     1       1.445   2.696  18.181  0.00  0.00    +0.000 A 
ATOM      9  N   UNL     1       2.340   3.168  17.289  0.00  0.00    +0.000 NA
ATOM     10  C   UNL     1       3.498   3.471  17.896  0.00  0.00    +0.000 A 
ATOM     11  H   UNL     1       3.914   2.590  21.725  0.00  0.00    +0.000 HD
ATOM     12  H   UNL     1       2.293   1.978  21.807  0.00  0.00    +0.000 HD
ENDROOT
BRANCH   1  13
ATOM     13  C   UNL     1       4.799   4.322  15.937  0.00  0.00    +0.000 C 
BRANCH  13  14
ATOM     14  C   UNL     1       5.862   5.398  15.704  0.00  0.00    +0.000 C 
BRANCH  14  15
ATOM     15  C   UNL     1       6.783   4.842  14.628  0.00  0.00    +0.000 C 
ATOM     16  O   UNL     1       7.827   5.377  14.279  0.00  0.00    +0.000 OA
BRANCH  15  17
ATOM     17  O   UNL     1       6.199   3.766  14.029  0.00  0.00    +0.000 OA
BRANCH  17  19
ATOM     18  C   UNL     1       5.081   3.224  11.994  0.00  0.00    +0.000 C 
ATOM     19  C   UNL     1       6.395   3.668  12.611  0.00  0.00    +0.000 C 
ENDBRANCH  17  19
ENDBRANCH  15  17
ENDBRANCH  14  15
BRANCH  14  20
ATOM     20  O   UNL     1       5.283   6.632  15.285  0.00  0.00    +0.000 OA
ATOM     21  H   UNL     1       5.265   7.233  16.054  0.00  0.00    +0.000 HD
ENDBRANCH  14  20
ENDBRANCH  13  14
ENDBRANCH   1  13
TORSDOF 6
ENDMDL
MODEL 3
REMARK VINA RESULT:      -6.7      0.888      1.171
REMARK  Name = 
REMARK  7 active torsions:
REMARK  status: ('A' for Active; 'I' for Inactive)
REMARK    1  A    between atoms: C_1  and  C_2
REMARK    2  A    between atoms: C_2  and  O_3
REMARK    3  A    between atoms: O_3  and  C_4
REMARK    4  A    between atoms: C_4  and  C_6
REMARK    5  A    between atoms: C_6  and  O_7
REMARK    6  A    between atoms: C_6  and  C_8
REMARK    7  A    between atoms: C_8  and  N_9
REMARK                            x       y       z     vdW  Elec       q    Type
REMARK                         _______ _______ _______ _____ _____    ______ ____
ROOT
ATOM      1  N   UNL     1       4.675   3.785  18.118  0.00  0.00    +0.000 N 
ATOM      2  C   UNL     1       4.825   4.667  19.152  0.00  0.00    +0.000 A 
ATOM      3  N   UNL     1       5.679   5.625  18.857  0.00  0.00    +0.000 NA
ATOM      4  C   UNL     1       6.097   5.340  17.569  0.00  0.00    +0.000 A 
ATOM      5  C   UNL     1       7.001   5.972  16.700  0.00  0.00    +0.000 A 
ATOM      6  N   UNL     1       7.720   7.108  17.049  0.00  0.00    +0.000 N 
ATOM      7  N   UNL     1       7.168   5.463  15.459  0.00  0.00    +0.000 NA
ATOM      8  C   UNL     1       6.477   4.352  15.124  0.00  0.00    +0.000 A 
ATOM      9  N   UNL     1       5.592   3.657  15.868  0.00  0.00    +0.000 NA
ATOM     10  C   UNL     1       5.458   4.211  17.083  0.00  0.00    +0.000 A 
ATOM     11  H   UNL     1       7.312   7.622  17.820  0.00  0.00    +0.000 HD
ATOM     12  H   UNL     1       8.021   7.631  16.237  0.00  0.00    +0.000 HD
ENDROOT
BRANCH   1  13
ATOM     13  C   UNL     1       3.816   2.625  18.101  0.00  0.00    +0.000 C 
BRANCH  13  14
ATOM     14  C   UNL     1       2.400   2.937  17.607  0.00  0.00    +0.000 C 
BRANCH  14  15
ATOM     15  C   UNL     1       1.461   2.354  18.653  0.00  0.00    +0.000 C 
ATOM     16  O   UNL     1       0.272   2.138  18.459  0.00  0.00    +0.000 OA
BRANCH  15  17
ATOM     17  O   UNL     1       2.104   2.256  19.850  0.00  0.00    +0.000 OA
BRANCH  17  19
ATOM     18  C   UNL     1       1.562   4.315  20.924  0.00  0.00    +0.000 C 
ATOM     19  C   UNL     1       1.403   2.805  20.974  0.00  0.00    +0.000 C 
ENDBRANCH  17  19
ENDBRANCH  15  17
ENDBRANCH  14  15
BRANCH  14  20
ATOM     20  O   UNL     1       2.187   4.339  17.462  0.00  0.00    +0.000 OA
ATOM     21  H   UNL     1       2.892   4.803  17.953  0.00  0.00    +0.000 HD
ENDBRANCH  14  20
ENDBRANCH  13  14
ENDBRANCH   1  13
TORSDOF 6
ENDMDL
MODEL 4
REMARK VINA RESULT:      -6.7      1.317      1.351
REMARK  Name = 
REMARK  7 active torsions:
REMARK  status: ('A' for Active; 'I' for Inactive)
REMARK    1  A    between atoms: C_1  and  C_2
REMARK    2  A    between atoms: C_2  and  O_3
REMARK    3  A    between atoms: O_3  and  C_4
REMARK    4  A    between atoms: C_4  and  C_6
REMARK    5  A    between atoms: C_6  and  O_7
REMARK    6  A    between atoms: C_6  and  C_8
REMARK    7  A    between atoms: C_8  and  N_9
REMARK                            x       y       z     vdW  Elec       q    Type
REMARK                         _______ _______ _______ _____ _____    ______ ____
ROOT
ATOM      1  N   UNL     1       4.662   3.843  18.171  0.00  0.00    +0.000 N 
ATOM      2  C   UNL     1       4.908   4.201  19.468  0.00  0.00    +0.000 A 
ATOM      3  N   UNL     1       5.874   5.092  19.554  0.00  0.00    +0.000 NA
ATOM      4  C   UNL     1       6.267   5.312  18.246  0.00  0.00    +0.000 A 
ATOM      5  C   UNL     1       7.250   6.137  17.673  0.00  0.00    +0.000 A 
ATOM      6  N   UNL     1       8.098   6.940  18.424  0.00  0.00    +0.000 N 
ATOM      7  N   UNL     1       7.364   6.165  16.326  0.00  0.00    +0.000 NA
ATOM      8  C   UNL     1       6.547   5.376  15.596  0.00  0.00    +0.000 A 
ATOM      9  N   UNL     1       5.577   4.544  16.029  0.00  0.00    +0.000 NA
ATOM     10  C   UNL     1       5.501   4.563  17.368  0.00  0.00    +0.000 A 
ATOM     11  H   UNL     1       7.747   7.137  19.354  0.00  0.00    +0.000 HD
ATOM     12  H   UNL     1       8.467   7.711  17.885  0.00  0.00    +0.000 HD
ENDROOT
BRANCH   1  13
ATOM     13  C   UNL     1       3.668   2.898  17.718  0.00  0.00    +0.000 C 
BRANCH  13  14
ATOM     14  C   UNL     1       2.607   2.592  18.779  0.00  0.00    +0.000 C 
BRANCH  14  15
ATOM     15  C   UNL     1       1.443   3.524  18.478  0.00  0.00    +0.000 C 
ATOM     16  O   UNL     1       1.270   4.075  17.400  0.00  0.00    +0.000 OA
BRANCH  15  17
ATOM     17  O   UNL     1       0.732   3.758  19.616  0.00  0.00    +0.000 OA
BRANCH  17  19
ATOM     18  C   UNL     1       1.714   5.681  20.629  0.00  0.00    +0.000 C 
ATOM     19  C   UNL     1       1.502   4.182  20.750  0.00  0.00    +0.000 C 
ENDBRANCH  17  19
ENDBRANCH  15  17
ENDBRANCH  14  15
BRANCH  14  20
ATOM     20  O   UNL     1       2.190   1.229  18.732  0.00  0.00    +0.000 OA
ATOM     21  H   UNL     1       1.564   1.081  19.466  0.00  0.00    +0.000 HD
ENDBRANCH  14  20
ENDBRANCH  13  14
ENDBRANCH   1  13
TORSDOF 6
ENDMDL
MODEL 5
REMARK VINA RESULT:      -6.7      3.472      6.030
REMARK  Name = 
REMARK  7 active torsions:
REMARK  status: ('A' for Active; 'I' for Inactive)
REMARK    1  A    between atoms: C_1  and  C_2
REMARK    2  A    between atoms: C_2  and  O_3
REMARK    3  A    between atoms: O_3  and  C_4
REMARK    4  A    between atoms: C_4  and  C_6
REMARK    5  A    between atoms: C_6  and  O_7
REMARK    6  A    between atoms: C_6  and  C_8
REMARK    7  A    between atoms: C_8  and  N_9
REMARK                            x       y       z     vdW  Elec       q    Type
REMARK                         _______ _______ _______ _____ _____    ______ ____
ROOT
ATOM      1  N   UNL     1       3.797   4.825  17.401  0.00  0.00    +0.000 N 
ATOM      2  C   UNL     1       3.160   5.917  17.925  0.00  0.00    +0.000 A 
ATOM      3  N   UNL     1       2.246   5.572  18.808  0.00  0.00    +0.000 NA
ATOM      4  C   UNL     1       2.300   4.191  18.849  0.00  0.00    +0.000 A 
ATOM      5  C   UNL     1       1.578   3.231  19.579  0.00  0.00    +0.000 A 
ATOM      6  N   UNL     1       0.560   3.560  20.464  0.00  0.00    +0.000 N 
ATOM      7  N   UNL     1       1.901   1.927  19.428  0.00  0.00    +0.000 NA
ATOM      8  C   UNL     1       2.884   1.607  18.558  0.00  0.00    +0.000 A 
ATOM      9  N   UNL     1       3.637   2.432  17.802  0.00  0.00    +0.000 NA
ATOM     10  C   UNL     1       3.282   3.710  17.999  0.00  0.00    +0.000 A 
ATOM     11  H   UNL     1       0.601   4.520  20.787  0.00  0.00    +0.000 HD
ATOM     12  H   UNL     1       0.407   2.835  21.153  0.00  0.00    +0.000 HD
ENDROOT
BRANCH   1  13
ATOM     13  C   UNL     1       4.853   4.842  16.417  0.00  0.00    +0.000 C 
BRANCH  13  14
ATOM     14  C   UNL     1       5.589   6.182  16.352  0.00  0.00    +0.000 C 
BRANCH  14  15
ATOM     15  C   UNL     1       7.071   5.841  16.398  0.00  0.00    +0.000 C 
ATOM     16  O   UNL     1       7.510   4.699  16.374  0.00  0.00    +0.000 OA
BRANCH  15  17
ATOM     17  O   UNL     1       7.800   6.972  16.616  0.00  0.00    +0.000 OA
BRANCH  17  19
ATOM     18  C   UNL     1       8.141   8.934  17.927  0.00  0.00    +0.000 C 
ATOM     19  C   UNL     1       7.800   7.455  17.966  0.00  0.00    +0.000 C 
ENDBRANCH  17  19
ENDBRANCH  15  17
ENDBRANCH  14  15
BRANCH  14  20
ATOM     20  O   UNL     1       5.272   6.904  15.164  0.00  0.00    +0.000 OA
ATOM     21  H   UNL     1       6.097   7.300  14.823  0.00  0.00    +0.000 HD
ENDBRANCH  14  20
ENDBRANCH  13  14
ENDBRANCH   1  13
TORSDOF 6
ENDMDL
MODEL 6
REMARK VINA RESULT:      -6.6      1.633      2.302
REMARK  Name = 
REMARK  7 active torsions:
REMARK  status: ('A' for Active; 'I' for Inactive)
REMARK    1  A    between atoms: C_1  and  C_2
REMARK    2  A    between atoms: C_2  and  O_3
REMARK    3  A    between atoms: O_3  and  C_4
REMARK    4  A    between atoms: C_4  and  C_6
REMARK    5  A    between atoms: C_6  and  O_7
REMARK    6  A    between atoms: C_6  and  C_8
REMARK    7  A    between atoms: C_8  and  N_9
REMARK                            x       y       z     vdW  Elec       q    Type
REMARK                         _______ _______ _______ _____ _____    ______ ____
ROOT
ATOM      1  N   UNL     1       5.351   4.779  16.935  0.00  0.00    +0.000 N 
ATOM      2  C   UNL     1       5.059   5.660  15.930  0.00  0.00    +0.000 A 
ATOM      3  N   UNL     1       5.787   6.754  16.012  0.00  0.00    +0.000 NA
ATOM      4  C   UNL     1       6.583   6.564  17.127  0.00  0.00    +0.000 A 
ATOM      5  C   UNL     1       7.558   7.362  17.748  0.00  0.00    +0.000 A 
ATOM      6  N   UNL     1       7.901   8.630  17.295  0.00  0.00    +0.000 N 
ATOM      7  N   UNL     1       8.208   6.868  18.825  0.00  0.00    +0.000 NA
ATOM      8  C   UNL     1       7.867   5.640  19.272  0.00  0.00    +0.000 A 
ATOM      9  N   UNL     1       6.950   4.789  18.768  0.00  0.00    +0.000 NA
ATOM     10  C   UNL     1       6.345   5.325  17.697  0.00  0.00    +0.000 A 
ATOM     11  H   UNL     1       7.650   8.793  16.327  0.00  0.00    +0.000 HD
ATOM     12  H   UNL     1       8.827   8.903  17.596  0.00  0.00    +0.000 HD
ENDROOT
BRANCH   1  13
ATOM     13  C   UNL     1       4.747   3.484  17.140  0.00  0.00    +0.000 C 
BRANCH  13  14
ATOM     14  C   UNL     1       4.104   3.337  18.522  0.00  0.00    +0.000 C 
BRANCH  14  15
ATOM     15  C   UNL     1       2.744   2.701  18.278  0.00  0.00    +0.000 C 
ATOM     16  O   UNL     1       2.171   2.707  17.197  0.00  0.00    +0.000 OA
BRANCH  15  17
ATOM     17  O   UNL     1       2.216   2.270  19.458  0.00  0.00    +0.000 OA
BRANCH  17  19
ATOM     18  C   UNL     1       1.058   4.129  20.402  0.00  0.00    +0.000 C 
ATOM     19  C   UNL     1       0.903   2.761  19.761  0.00  0.00    +0.000 C 
ENDBRANCH  17  19
ENDBRANCH  15  17
ENDBRANCH  14  15
BRANCH  14  20
ATOM     20  O   UNL     1       4.894   2.526  19.389  0.00  0.00    +0.000 OA
ATOM     21  H   UNL     1       5.798   2.485  19.023  0.00  0.00    +0.000 HD
ENDBRANCH  14  20
ENDBRANCH  13  14
ENDBRANCH   1  13
TORSDOF 6
ENDMDL
MODEL 7
REMARK VINA RESULT:      -6.6      3.202      5.857
REMARK  Name = 
REMARK  7 active torsions:
REMARK  status: ('A' for Active; 'I' for Inactive)
REMARK    1  A    between atoms: C_1  and  C_2
REMARK    2  A    between atoms: C_2  and  O_3
REMARK    3  A    between atoms: O_3  and  C_4
REMARK    4  A    between atoms: C_4  and  C_6
REMARK    5  A    between atoms: C_6  and  O_7
REMARK    6  A    between atoms: C_6  and  C_8
REMARK    7  A    between atoms: C_8  and  N_9
REMARK                            x       y       z     vdW  Elec       q    Type
REMARK                         _______ _______ _______ _____ _____    ______ ____
ROOT
ATOM      1  N   UNL     1       4.947   5.399  18.141  0.00  0.00    +0.000 N 
ATOM      2  C   UNL     1       3.908   6.220  17.800  0.00  0.00    +0.000 A 
ATOM      3  N   UNL     1       2.760   5.777  18.269  0.00  0.00    +0.000 NA
ATOM      4  C   UNL     1       3.082   4.611  18.942  0.00  0.00    +0.000 A 
ATOM      5  C   UNL     1       2.307   3.674  19.645  0.00  0.00    +0.000 A 
ATOM      6  N   UNL     1       0.928   3.772  19.771  0.00  0.00    +0.000 N 
ATOM      7  N   UNL     1       2.934   2.637  20.244  0.00  0.00    +0.000 NA
ATOM      8  C   UNL     1       4.275   2.536  20.112  0.00  0.00    +0.000 A 
ATOM      9  N   UNL     1       5.119   3.363  19.462  0.00  0.00    +0.000 NA
ATOM     10  C   UNL     1       4.446   4.377  18.897  0.00  0.00    +0.000 A 
ATOM     11  H   UNL     1       0.574   4.709  19.614  0.00  0.00    +0.000 HD
ATOM     12  H   UNL     1       0.583   3.265  20.576  0.00  0.00    +0.000 HD
ENDROOT
BRANCH   1  13
ATOM     13  C   UNL     1       6.337   5.589  17.798  0.00  0.00    +0.000 C 
BRANCH  13  14
ATOM     14  C   UNL     1       6.972   4.347  17.168  0.00  0.00    +0.000 C 
BRANCH  14  15
ATOM     15  C   UNL     1       7.043   4.633  15.675  0.00  0.00    +0.000 C 
ATOM     16  O   UNL     1       7.537   5.645  15.196  0.00  0.00    +0.000 OA
BRANCH  15  17
ATOM     17  O   UNL     1       6.354   3.680  14.987  0.00  0.00    +0.000 OA
BRANCH  17  19
ATOM     18  C   UNL     1       6.131   3.525  12.618  0.00  0.00    +0.000 C 
ATOM     19  C   UNL     1       5.576   4.159  13.882  0.00  0.00    +0.000 C 
ENDBRANCH  17  19
ENDBRANCH  15  17
ENDBRANCH  14  15
BRANCH  14  20
ATOM     20  O   UNL     1       8.272   4.091  17.696  0.00  0.00    +0.000 OA
ATOM     21  H   UNL     1       8.295   4.424  18.614  0.00  0.00    +0.000 HD
ENDBRANCH  14  20
ENDBRANCH  13  14
ENDBRANCH   1  13
TORSDOF 6
ENDMDL
MODEL 8
REMARK VINA RESULT:      -6.5      3.175      5.889
REMARK  Name = 
REMARK  7 active torsions:
REMARK  status: ('A' for Active; 'I' for Inactive)
REMARK    1  A    between atoms: C_1  and  C_2
REMARK    2  A    between atoms: C_2  and  O_3
REMARK    3  A    between atoms: O_3  and  C_4
REMARK    4  A    between atoms: C_4  and  C_6
REMARK    5  A    between atoms: C_6  and  O_7
REMARK    6  A    between atoms: C_6  and  C_8
REMARK    7  A    between atoms: C_8  and  N_9
REMARK                            x       y       z     vdW  Elec       q    Type
REMARK                         _______ _______ _______ _____ _____    ______ ____
ROOT
ATOM      1  N   UNL     1       3.686   5.525  17.806  0.00  0.00    +0.000 N 
ATOM      2  C   UNL     1       3.237   6.363  18.790  0.00  0.00    +0.000 A 
ATOM      3  N   UNL     1       2.370   5.766  19.581  0.00  0.00    +0.000 NA
ATOM      4  C   UNL     1       2.257   4.483  19.076  0.00  0.00    +0.000 A 
ATOM      5  C   UNL     1       1.491   3.371  19.464  0.00  0.00    +0.000 A 
ATOM      6  N   UNL     1       0.604   3.398  20.533  0.00  0.00    +0.000 N 
ATOM      7  N   UNL     1       1.637   2.216  18.779  0.00  0.00    +0.000 NA
ATOM      8  C   UNL     1       2.491   2.193  17.733  0.00  0.00    +0.000 A 
ATOM      9  N   UNL     1       3.270   3.190  17.265  0.00  0.00    +0.000 NA
ATOM     10  C   UNL     1       3.094   4.307  17.987  0.00  0.00    +0.000 A 
ATOM     11  H   UNL     1       0.791   4.143  21.194  0.00  0.00    +0.000 HD
ATOM     12  H   UNL     1       0.425   2.472  20.900  0.00  0.00    +0.000 HD
ENDROOT
BRANCH   1  13
ATOM     13  C   UNL     1       4.644   5.851  16.776  0.00  0.00    +0.000 C 
BRANCH  13  14
ATOM     14  C   UNL     1       6.067   6.022  17.316  0.00  0.00    +0.000 C 
BRANCH  14  15
ATOM     15  C   UNL     1       6.838   4.799  16.843  0.00  0.00    +0.000 C 
ATOM     16  O   UNL     1       7.917   4.452  17.304  0.00  0.00    +0.000 OA
BRANCH  15  17
ATOM     17  O   UNL     1       6.224   4.258  15.754  0.00  0.00    +0.000 OA
BRANCH  17  19
ATOM     18  C   UNL     1       6.046   3.830  13.414  0.00  0.00    +0.000 C 
ATOM     19  C   UNL     1       6.893   4.465  14.502  0.00  0.00    +0.000 C 
ENDBRANCH  17  19
ENDBRANCH  15  17
ENDBRANCH  14  15
BRANCH  14  20
ATOM     20  O   UNL     1       6.674   7.220  16.837  0.00  0.00    +0.000 OA
ATOM     21  H   UNL     1       7.628   7.175  17.037  0.00  0.00    +0.000 HD
ENDBRANCH  14  20
ENDBRANCH  13  14
ENDBRANCH   1  13
TORSDOF 6
ENDMDL
MODEL 9
REMARK VINA RESULT:      -6.5      3.242      6.005
REMARK  Name = 
REMARK  7 active torsions:
REMARK  status: ('A' for Active; 'I' for Inactive)
REMARK    1  A    between atoms: C_1  and  C_2
REMARK    2  A    between atoms: C_2  and  O_3
REMARK    3  A    between atoms: O_3  and  C_4
REMARK    4  A    between atoms: C_4  and  C_6
REMARK    5  A    between atoms: C_6  and  O_7
REMARK    6  A    between atoms: C_6  and  C_8
REMARK    7  A    between atoms: C_8  and  N_9
REMARK                            x       y       z     vdW  Elec       q    Type
REMARK                         _______ _______ _______ _____ _____    ______ ____
ROOT
ATOM      1  N   UNL     1       4.859   4.885  17.754  0.00  0.00    +0.000 N 
ATOM      2  C   UNL     1       5.192   5.494  18.933  0.00  0.00    +0.000 A 
ATOM      3  N   UNL     1       4.543   4.972  19.953  0.00  0.00    +0.000 NA
ATOM      4  C   UNL     1       3.754   3.981  19.398  0.00  0.00    +0.000 A 
ATOM      5  C   UNL     1       2.833   3.076  19.951  0.00  0.00    +0.000 A 
ATOM      6  N   UNL     1       2.517   3.048  21.304  0.00  0.00    +0.000 N 
ATOM      7  N   UNL     1       2.238   2.178  19.134  0.00  0.00    +0.000 NA
ATOM      8  C   UNL     1       2.537   2.213  17.818  0.00  0.00    +0.000 A 
ATOM      9  N   UNL     1       3.393   3.033  17.173  0.00  0.00    +0.000 NA
ATOM     10  C   UNL     1       3.961   3.894  18.031  0.00  0.00    +0.000 A 
ATOM     11  H   UNL     1       3.219   3.481  21.891  0.00  0.00    +0.000 HD
ATOM     12  H   UNL     1       2.150   2.149  21.589  0.00  0.00    +0.000 HD
ENDROOT
BRANCH   1  13
ATOM     13  C   UNL     1       5.386   5.202  16.448  0.00  0.00    +0.000 C 
BRANCH  13  14
ATOM     14  C   UNL     1       6.563   4.310  16.045  0.00  0.00    +0.000 C 
BRANCH  14  15
ATOM     15  C   UNL     1       6.802   4.585  14.568  0.00  0.00    +0.000 C 
ATOM     16  O   UNL     1       7.654   5.355  14.146  0.00  0.00    +0.000 OA
BRANCH  15  17
ATOM     17  O   UNL     1       5.842   3.971  13.821  0.00  0.00    +0.000 OA
BRANCH  17  19
ATOM     18  C   UNL     1       5.012   3.115  11.755  0.00  0.00    +0.000 C 
ATOM     19  C   UNL     1       6.254   3.550  12.513  0.00  0.00    +0.000 C 
ENDBRANCH  17  19
ENDBRANCH  15  17
ENDBRANCH  14  15
BRANCH  14  20
ATOM     20  O   UNL     1       7.732   4.598  16.809  0.00  0.00    +0.000 OA
ATOM     21  H   UNL     1       8.385   5.013  16.215  0.00  0.00    +0.000 HD
ENDBRANCH  14  20
ENDBRANCH  13  14
ENDBRANCH   1  13
TORSDOF 6
ENDMDL
