MODEL 1
REMARK VINA RESULT:      -8.1      0.000      0.000
REMARK  Name = 
REMARK  6 active torsions:
REMARK  status: ('A' for Active; 'I' for Inactive)
REMARK    1  A    between atoms: C_1  and  C_2
REMARK    2  A    between atoms: C_5  and  C_6
REMARK    3  A    between atoms: C_9  and  C_10
REMARK    4  A    between atoms: N_11  and  N_12
REMARK    5  A    between atoms: C_13  and  C_15
REMARK    6  A    between atoms: C_15  and  C_16
REMARK                            x       y       z     vdW  Elec       q    Type
REMARK                         _______ _______ _______ _____ _____    ______ ____
ROOT
ATOM      1  C   UNL     1       8.131   7.035  18.595  0.00  0.00    +0.000 C 
ATOM      2  N   UNL     1       8.165   8.295  18.294  0.00  0.00    +0.000 NA
ENDROOT
BRANCH   1   6
ATOM      3  C   UNL     1       5.389   4.973  17.583  0.00  0.00    +0.000 A 
ATOM      4  C   UNL     1       6.082   4.969  16.387  0.00  0.00    +0.000 A 
ATOM      5  C   UNL     1       7.234   5.756  16.583  0.00  0.00    +0.000 A 
ATOM      6  C   UNL     1       7.189   6.213  17.884  0.00  0.00    +0.000 A 
ATOM      7  O   UNL     1       6.058   5.747  18.500  0.00  0.00    +0.000 OA
BRANCH   3  12
ATOM      8  C   UNL     1       0.492   2.487  19.465  0.00  0.00    +0.000 C 
ATOM      9  C   UNL     1       1.781   3.083  18.974  0.00  0.00    +0.000 A 
ATOM     10  C   UNL     1       1.884   3.534  17.651  0.00  0.00    +0.000 A 
ATOM     11  C   UNL     1       3.062   4.133  17.181  0.00  0.00    +0.000 A 
ATOM     12  C   UNL     1       4.168   4.296  18.023  0.00  0.00    +0.000 A 
ATOM     13  C   UNL     1       4.071   3.815  19.338  0.00  0.00    +0.000 A 
ATOM     14  C   UNL     1       2.895   3.222  19.810  0.00  0.00    +0.000 A 
ATOM     15 CL   UNL     1       2.866   2.693  21.455  0.00  0.00    +0.000 Cl
ENDBRANCH   3  12
ENDBRANCH   1   6
BRANCH   2  16
ATOM     16  N   UNL     1       9.042   9.107  18.936  0.00  0.00    +0.000 N 
ATOM     17  C   UNL     1       9.085  10.443  18.556  0.00  0.00    +0.000 C 
ATOM     18  O   UNL     1       8.342  10.935  17.701  0.00  0.00    +0.000 OA
ATOM     19  H   UNL     1       9.692   8.726  19.627  0.00  0.00    +0.000 HD
BRANCH  17  20
ATOM     20  C   UNL     1      10.036  11.346  19.315  0.00  0.00    +0.000 C 
BRANCH  20  21
ATOM     21  C   UNL     1      10.204  12.668  18.661  0.00  0.00    +0.000 A 
ATOM     22  N   UNL     1       9.592  13.769  19.046  0.00  0.00    +0.000 NA
ATOM     23  N   UNL     1       9.930  14.850  18.262  0.00  0.00    +0.000 NA
ATOM     24  C   UNL     1      10.762  14.533  17.295  0.00  0.00    +0.000 A 
ATOM     25  N   UNL     1      11.242  15.399  16.386  0.00  0.00    +0.000 N 
ATOM     26  S   UNL     1      11.220  12.877  17.294  0.00  0.00    +0.000 S 
ATOM     27  H   UNL     1      11.143  16.384  16.607  0.00  0.00    +0.000 HD
ATOM     28  H   UNL     1      12.092  15.162  15.890  0.00  0.00    +0.000 HD
ENDBRANCH  20  21
ENDBRANCH  17  20
ENDBRANCH   2  16
TORSDOF 5
ENDMDL
MODEL 2
REMARK VINA RESULT:      -7.9      4.894     10.597
REMARK  Name = 
REMARK  6 active torsions:
REMARK  status: ('A' for Active; 'I' for Inactive)
REMARK    1  A    between atoms: C_1  and  C_2
REMARK    2  A    between atoms: C_5  and  C_6
REMARK    3  A    between atoms: C_9  and  C_10
REMARK    4  A    between atoms: N_11  and  N_12
REMARK    5  A    between atoms: C_13  and  C_15
REMARK    6  A    between atoms: C_15  and  C_16
REMARK                            x       y       z     vdW  Elec       q    Type
REMARK                         _______ _______ _______ _____ _____    ______ ____
ROOT
ATOM      1  C   UNL     1       7.374   8.762  17.631  0.00  0.00    +0.000 C 
ATOM      2  N   UNL     1       7.863   7.680  17.110  0.00  0.00    +0.000 NA
ENDROOT
BRANCH   1   6
ATOM      3  C   UNL     1       9.405  11.608  18.385  0.00  0.00    +0.000 A 
ATOM      4  C   UNL     1       9.895  10.760  19.360  0.00  0.00    +0.000 A 
ATOM      5  C   UNL     1       9.197   9.544  19.229  0.00  0.00    +0.000 A 
ATOM      6  C   UNL     1       8.306   9.705  18.188  0.00  0.00    +0.000 A 
ATOM      7  O   UNL     1       8.419  10.968  17.672  0.00  0.00    +0.000 OA
BRANCH   3  12
ATOM      8  C   UNL     1      10.886  17.050  17.009  0.00  0.00    +0.000 C 
ATOM      9  C   UNL     1      10.470  15.641  17.324  0.00  0.00    +0.000 A 
ATOM     10  C   UNL     1      11.325  14.574  17.015  0.00  0.00    +0.000 A 
ATOM     11  C   UNL     1      10.978  13.253  17.338  0.00  0.00    +0.000 A 
ATOM     12  C   UNL     1       9.768  12.966  17.978  0.00  0.00    +0.000 A 
ATOM     13  C   UNL     1       8.901  14.035  18.258  0.00  0.00    +0.000 A 
ATOM     14  C   UNL     1       9.248  15.353  17.942  0.00  0.00    +0.000 A 
ATOM     15 CL   UNL     1       8.126  16.601  18.358  0.00  0.00    +0.000 Cl
ENDBRANCH   3  12
ENDBRANCH   1   6
BRANCH   2  16
ATOM     16  N   UNL     1       7.020   6.766  16.568  0.00  0.00    +0.000 N 
ATOM     17  C   UNL     1       7.047   5.475  17.083  0.00  0.00    +0.000 C 
ATOM     18  O   UNL     1       7.763   5.132  18.029  0.00  0.00    +0.000 OA
ATOM     19  H   UNL     1       6.437   7.009  15.765  0.00  0.00    +0.000 HD
BRANCH  17  20
ATOM     20  C   UNL     1       6.067   4.478  16.499  0.00  0.00    +0.000 C 
BRANCH  20  21
ATOM     21  C   UNL     1       4.705   4.623  17.071  0.00  0.00    +0.000 A 
ATOM     22  N   UNL     1       4.114   5.778  17.298  0.00  0.00    +0.000 NA
ATOM     23  N   UNL     1       2.855   5.619  17.832  0.00  0.00    +0.000 NA
ATOM     24  C   UNL     1       2.540   4.357  18.020  0.00  0.00    +0.000 A 
ATOM     25  N   UNL     1       1.375   3.929  18.535  0.00  0.00    +0.000 N 
ATOM     26  S   UNL     1       3.764   3.259  17.521  0.00  0.00    +0.000 S 
ATOM     27  H   UNL     1       0.617   4.603  18.553  0.00  0.00    +0.000 HD
ATOM     28  H   UNL     1       1.086   2.975  18.358  0.00  0.00    +0.000 HD
ENDBRANCH  20  21
ENDBRANCH  17  20
ENDBRANCH   2  16
TORSDOF 5
ENDMDL
MODEL 3
REMARK VINA RESULT:      -7.9      7.358      9.377
REMARK  Name = 
REMARK  6 active torsions:
REMARK  status: ('A' for Active; 'I' for Inactive)
REMARK    1  A    between atoms: C_1  and  C_2
REMARK    2  A    between atoms: C_5  and  C_6
REMARK    3  A    between atoms: C_9  and  C_10
REMARK    4  A    between atoms: N_11  and  N_12
REMARK    5  A    between atoms: C_13  and  C_15
REMARK    6  A    between atoms: C_15  and  C_16
REMARK                            x       y       z     vdW  Elec       q    Type
REMARK                         _______ _______ _______ _____ _____    ______ ____
ROOT
ATOM      1  C   UNL     1       2.484   7.912  19.021  0.00  0.00    +0.000 C 
ATOM      2  N   UNL     1       2.285   6.890  19.793  0.00  0.00    +0.000 NA
ENDROOT
BRANCH   1   6
ATOM      3  C   UNL     1      -0.050  10.331  19.742  0.00  0.00    +0.000 A 
ATOM      4  C   UNL     1      -0.135  10.372  18.363  0.00  0.00    +0.000 A 
ATOM      5  C   UNL     1       0.818   9.459  17.870  0.00  0.00    +0.000 A 
ATOM      6  C   UNL     1       1.449   8.910  18.967  0.00  0.00    +0.000 A 
ATOM      7  O   UNL     1       0.932   9.445  20.116  0.00  0.00    +0.000 OA
BRANCH   3  12
ATOM      8  C   UNL     1      -3.273  12.835  23.870  0.00  0.00    +0.000 C 
ATOM      9  C   UNL     1      -2.409  12.230  22.800  0.00  0.00    +0.000 A 
ATOM     10  C   UNL     1      -1.453  11.262  23.136  0.00  0.00    +0.000 A 
ATOM     11  C   UNL     1      -0.665  10.652  22.150  0.00  0.00    +0.000 A 
ATOM     12  C   UNL     1      -0.812  10.993  20.801  0.00  0.00    +0.000 A 
ATOM     13  C   UNL     1      -1.750  11.986  20.472  0.00  0.00    +0.000 A 
ATOM     14  C   UNL     1      -2.541  12.592  21.454  0.00  0.00    +0.000 A 
ATOM     15 CL   UNL     1      -3.689  13.779  20.942  0.00  0.00    +0.000 Cl
ENDBRANCH   3  12
ENDBRANCH   1   6
BRANCH   2  16
ATOM     16  N   UNL     1       3.237   5.928  19.879  0.00  0.00    +0.000 N 
ATOM     17  C   UNL     1       3.007   4.729  19.213  0.00  0.00    +0.000 C 
ATOM     18  O   UNL     1       2.008   4.513  18.521  0.00  0.00    +0.000 OA
ATOM     19  H   UNL     1       4.061   6.063  20.467  0.00  0.00    +0.000 HD
BRANCH  17  20
ATOM     20  C   UNL     1       4.101   3.682  19.280  0.00  0.00    +0.000 C 
BRANCH  20  21
ATOM     21  C   UNL     1       5.293   4.059  18.480  0.00  0.00    +0.000 A 
ATOM     22  N   UNL     1       6.458   4.392  18.998  0.00  0.00    +0.000 NA
ATOM     23  N   UNL     1       7.387   4.695  18.027  0.00  0.00    +0.000 NA
ATOM     24  C   UNL     1       6.895   4.612  16.811  0.00  0.00    +0.000 A 
ATOM     25  N   UNL     1       7.588   4.864  15.688  0.00  0.00    +0.000 N 
ATOM     26  S   UNL     1       5.249   4.120  16.765  0.00  0.00    +0.000 S 
ATOM     27  H   UNL     1       8.598   4.885  15.778  0.00  0.00    +0.000 HD
ATOM     28  H   UNL     1       7.251   4.484  14.812  0.00  0.00    +0.000 HD
ENDBRANCH  20  21
ENDBRANCH  17  20
ENDBRANCH   2  16
TORSDOF 5
ENDMDL
MODEL 4
REMARK VINA RESULT:      -7.8      8.586      9.813
REMARK  Name = 
REMARK  6 active torsions:
REMARK  status: ('A' for Active; 'I' for Inactive)
REMARK    1  A    between atoms: C_1  and  C_2
REMARK    2  A    between atoms: C_5  and  C_6
REMARK    3  A    between atoms: C_9  and  C_10
REMARK    4  A    between atoms: N_11  and  N_12
REMARK    5  A    between atoms: C_13  and  C_15
REMARK    6  A    between atoms: C_15  and  C_16
REMARK                            x       y       z     vdW  Elec       q    Type
REMARK                         _______ _______ _______ _____ _____    ______ ____
ROOT
ATOM      1  C   UNL     1       0.422  10.404  20.006  0.00  0.00    +0.000 C 
ATOM      2  N   UNL     1      -0.230  11.306  19.342  0.00  0.00    +0.000 NA
ENDROOT
BRANCH   1   6
ATOM      3  C   UNL     1       2.313   7.604  18.828  0.00  0.00    +0.000 A 
ATOM      4  C   UNL     1       2.463   8.416  17.720  0.00  0.00    +0.000 A 
ATOM      5  C   UNL     1       1.765   9.609  17.992  0.00  0.00    +0.000 A 
ATOM      6  C   UNL     1       1.211   9.470  19.248  0.00  0.00    +0.000 A 
ATOM      7  O   UNL     1       1.532   8.243  19.763  0.00  0.00    +0.000 OA
BRANCH   3  12
ATOM      8  C   UNL     1       4.266   2.276  20.048  0.00  0.00    +0.000 C 
ATOM      9  C   UNL     1       3.776   3.671  19.780  0.00  0.00    +0.000 A 
ATOM     10  C   UNL     1       4.522   4.529  18.961  0.00  0.00    +0.000 A 
ATOM     11  C   UNL     1       4.064   5.821  18.661  0.00  0.00    +0.000 A 
ATOM     12  C   UNL     1       2.848   6.287  19.172  0.00  0.00    +0.000 A 
ATOM     13  C   UNL     1       2.119   5.435  20.017  0.00  0.00    +0.000 A 
ATOM     14  C   UNL     1       2.572   4.145  20.313  0.00  0.00    +0.000 A 
ATOM     15 CL   UNL     1       1.585   3.162  21.337  0.00  0.00    +0.000 Cl
ENDBRANCH   3  12
ENDBRANCH   1   6
BRANCH   2  16
ATOM     16  N   UNL     1      -0.983  12.211  20.017  0.00  0.00    +0.000 N 
ATOM     17  C   UNL     1      -2.306  12.375  19.622  0.00  0.00    +0.000 C 
ATOM     18  O   UNL     1      -2.838  11.716  18.724  0.00  0.00    +0.000 OA
ATOM     19  H   UNL     1      -0.566  12.794  20.744  0.00  0.00    +0.000 HD
BRANCH  17  20
ATOM     20  C   UNL     1      -3.146  13.356  20.416  0.00  0.00    +0.000 C 
BRANCH  20  21
ATOM     21  C   UNL     1      -3.423  12.877  21.793  0.00  0.00    +0.000 A 
ATOM     22  N   UNL     1      -2.586  12.154  22.510  0.00  0.00    +0.000 NA
ATOM     23  N   UNL     1      -3.099  11.850  23.751  0.00  0.00    +0.000 NA
ATOM     24  C   UNL     1      -4.312  12.322  23.928  0.00  0.00    +0.000 A 
ATOM     25  N   UNL     1      -5.040  12.159  25.046  0.00  0.00    +0.000 N 
ATOM     26  S   UNL     1      -4.909  13.212  22.585  0.00  0.00    +0.000 S 
ATOM     27  H   UNL     1      -4.532  11.864  25.874  0.00  0.00    +0.000 HD
ATOM     28  H   UNL     1      -5.805  12.797  25.226  0.00  0.00    +0.000 HD
ENDBRANCH  20  21
ENDBRANCH  17  20
ENDBRANCH   2  16
TORSDOF 5
ENDMDL
MODEL 5
REMARK VINA RESULT:      -7.7      4.751      9.677
REMARK  Name = 
REMARK  6 active torsions:
REMARK  status: ('A' for Active; 'I' for Inactive)
REMARK    1  A    between atoms: C_1  and  C_2
REMARK    2  A    between atoms: C_5  and  C_6
REMARK    3  A    between atoms: C_9  and  C_10
REMARK    4  A    between atoms: N_11  and  N_12
REMARK    5  A    between atoms: C_13  and  C_15
REMARK    6  A    between atoms: C_15  and  C_16
REMARK                            x       y       z     vdW  Elec       q    Type
REMARK                         _______ _______ _______ _____ _____    ______ ____
ROOT
ATOM      1  C   UNL     1       8.237   9.364  17.801  0.00  0.00    +0.000 C 
ATOM      2  N   UNL     1       8.210   8.213  18.396  0.00  0.00    +0.000 NA
ENDROOT
BRANCH   1   6
ATOM      3  C   UNL     1       9.565  11.936  19.904  0.00  0.00    +0.000 A 
ATOM      4  C   UNL     1      10.536  11.973  18.921  0.00  0.00    +0.000 A 
ATOM      5  C   UNL     1      10.186  10.998  17.966  0.00  0.00    +0.000 A 
ATOM      6  C   UNL     1       9.024  10.403  18.412  0.00  0.00    +0.000 A 
ATOM      7  O   UNL     1       8.643  10.963  19.602  0.00  0.00    +0.000 OA
BRANCH   3  12
ATOM      8  C   UNL     1       8.855  14.986  24.791  0.00  0.00    +0.000 C 
ATOM      9  C   UNL     1       8.988  14.204  23.515  0.00  0.00    +0.000 A 
ATOM     10  C   UNL     1       9.598  14.789  22.397  0.00  0.00    +0.000 A 
ATOM     11  C   UNL     1       9.773  14.065  21.208  0.00  0.00    +0.000 A 
ATOM     12  C   UNL     1       9.342  12.738  21.107  0.00  0.00    +0.000 A 
ATOM     13  C   UNL     1       8.704  12.166  22.219  0.00  0.00    +0.000 A 
ATOM     14  C   UNL     1       8.534  12.885  23.408  0.00  0.00    +0.000 A 
ATOM     15 CL   UNL     1       7.765  12.080  24.731  0.00  0.00    +0.000 Cl
ENDBRANCH   3  12
ENDBRANCH   1   6
BRANCH   2  16
ATOM     16  N   UNL     1       7.485   7.203  17.852  0.00  0.00    +0.000 N 
ATOM     17  C   UNL     1       7.554   5.956  18.461  0.00  0.00    +0.000 C 
ATOM     18  O   UNL     1       8.202   5.732  19.488  0.00  0.00    +0.000 OA
ATOM     19  H   UNL     1       6.963   7.347  16.986  0.00  0.00    +0.000 HD
BRANCH  17  20
ATOM     20  C   UNL     1       6.703   4.851  17.869  0.00  0.00    +0.000 C 
BRANCH  20  21
ATOM     21  C   UNL     1       6.803   4.791  16.390  0.00  0.00    +0.000 A 
ATOM     22  N   UNL     1       7.573   5.578  15.666  0.00  0.00    +0.000 NA
ATOM     23  N   UNL     1       7.471   5.305  14.320  0.00  0.00    +0.000 NA
ATOM     24  C   UNL     1       6.611   4.345  14.061  0.00  0.00    +0.000 A 
ATOM     25  N   UNL     1       6.320   3.892  12.830  0.00  0.00    +0.000 N 
ATOM     26  S   UNL     1       5.881   3.677  15.465  0.00  0.00    +0.000 S 
ATOM     27  H   UNL     1       6.971   4.140  12.093  0.00  0.00    +0.000 HD
ATOM     28  H   UNL     1       5.908   2.972  12.735  0.00  0.00    +0.000 HD
ENDBRANCH  20  21
ENDBRANCH  17  20
ENDBRANCH   2  16
TORSDOF 5
ENDMDL
MODEL 6
REMARK VINA RESULT:      -7.6      1.982      2.272
REMARK  Name = 
REMARK  6 active torsions:
REMARK  status: ('A' for Active; 'I' for Inactive)
REMARK    1  A    between atoms: C_1  and  C_2
REMARK    2  A    between atoms: C_5  and  C_6
REMARK    3  A    between atoms: C_9  and  C_10
REMARK    4  A    between atoms: N_11  and  N_12
REMARK    5  A    between atoms: C_13  and  C_15
REMARK    6  A    between atoms: C_15  and  C_16
REMARK                            x       y       z     vdW  Elec       q    Type
REMARK                         _______ _______ _______ _____ _____    ______ ____
ROOT
ATOM      1  C   UNL     1       7.758   8.488  17.557  0.00  0.00    +0.000 C 
ATOM      2  N   UNL     1       8.545   9.207  18.295  0.00  0.00    +0.000 NA
ENDROOT
BRANCH   1   6
ATOM      3  C   UNL     1       6.048   5.488  18.492  0.00  0.00    +0.000 A 
ATOM      4  C   UNL     1       7.273   5.195  19.062  0.00  0.00    +0.000 A 
ATOM      5  C   UNL     1       8.118   6.289  18.794  0.00  0.00    +0.000 A 
ATOM      6  C   UNL     1       7.377   7.197  18.065  0.00  0.00    +0.000 A 
ATOM      7  O   UNL     1       6.113   6.710  17.866  0.00  0.00    +0.000 OA
BRANCH   3  12
ATOM      8  C   UNL     1       0.848   2.910  18.401  0.00  0.00    +0.000 C 
ATOM      9  C   UNL     1       2.210   3.543  18.462  0.00  0.00    +0.000 A 
ATOM     10  C   UNL     1       3.147   3.284  17.452  0.00  0.00    +0.000 A 
ATOM     11  C   UNL     1       4.408   3.897  17.463  0.00  0.00    +0.000 A 
ATOM     12  C   UNL     1       4.765   4.785  18.484  0.00  0.00    +0.000 A 
ATOM     13  C   UNL     1       3.835   5.017  19.510  0.00  0.00    +0.000 A 
ATOM     14  C   UNL     1       2.574   4.410  19.498  0.00  0.00    +0.000 A 
ATOM     15 CL   UNL     1       1.488   4.787  20.789  0.00  0.00    +0.000 Cl
ENDBRANCH   3  12
ENDBRANCH   1   6
BRANCH   2  16
ATOM     16  N   UNL     1       8.925  10.434  17.858  0.00  0.00    +0.000 N 
ATOM     17  C   UNL     1       9.365  11.351  18.806  0.00  0.00    +0.000 C 
ATOM     18  O   UNL     1       9.467  11.094  20.009  0.00  0.00    +0.000 OA
ATOM     19  H   UNL     1       8.825  10.689  16.874  0.00  0.00    +0.000 HD
BRANCH  17  20
ATOM     20  C   UNL     1       9.831  12.700  18.296  0.00  0.00    +0.000 C 
BRANCH  20  21
ATOM     21  C   UNL     1       8.727  13.690  18.229  0.00  0.00    +0.000 A 
ATOM     22  N   UNL     1       7.597  13.498  17.579  0.00  0.00    +0.000 NA
ATOM     23  N   UNL     1       6.751  14.580  17.682  0.00  0.00    +0.000 NA
ATOM     24  C   UNL     1       7.272  15.566  18.379  0.00  0.00    +0.000 A 
ATOM     25  N   UNL     1       6.658  16.736  18.623  0.00  0.00    +0.000 N 
ATOM     26  S   UNL     1       8.840  15.223  18.992  0.00  0.00    +0.000 S 
ATOM     27  H   UNL     1       5.656  16.761  18.463  0.00  0.00    +0.000 HD
ATOM     28  H   UNL     1       6.974  17.298  19.403  0.00  0.00    +0.000 HD
ENDBRANCH  20  21
ENDBRANCH  17  20
ENDBRANCH   2  16
TORSDOF 5
ENDMDL
MODEL 7
REMARK VINA RESULT:      -7.6      9.029     10.005
REMARK  Name = 
REMARK  6 active torsions:
REMARK  status: ('A' for Active; 'I' for Inactive)
REMARK    1  A    between atoms: C_1  and  C_2
REMARK    2  A    between atoms: C_5  and  C_6
REMARK    3  A    between atoms: C_9  and  C_10
REMARK    4  A    between atoms: N_11  and  N_12
REMARK    5  A    between atoms: C_13  and  C_15
REMARK    6  A    between atoms: C_15  and  C_16
REMARK                            x       y       z     vdW  Elec       q    Type
REMARK                         _______ _______ _______ _____ _____    ______ ____
ROOT
ATOM      1  C   UNL     1       0.833  11.059  20.175  0.00  0.00    +0.000 C 
ATOM      2  N   UNL     1      -0.430  11.073  20.466  0.00  0.00    +0.000 NA
ENDROOT
BRANCH   1   6
ATOM      3  C   UNL     1       1.988   7.887  18.990  0.00  0.00    +0.000 A 
ATOM      4  C   UNL     1       2.114   8.590  17.806  0.00  0.00    +0.000 A 
ATOM      5  C   UNL     1       1.691   9.908  18.070  0.00  0.00    +0.000 A 
ATOM      6  C   UNL     1       1.318   9.950  19.397  0.00  0.00    +0.000 A 
ATOM      7  O   UNL     1       1.486   8.715  19.965  0.00  0.00    +0.000 OA
BRANCH   3  12
ATOM      8  C   UNL     1       3.538   2.517  20.556  0.00  0.00    +0.000 C 
ATOM      9  C   UNL     1       3.106   3.886  20.113  0.00  0.00    +0.000 A 
ATOM     10  C   UNL     1       2.170   4.604  20.871  0.00  0.00    +0.000 A 
ATOM     11  C   UNL     1       1.784   5.901  20.503  0.00  0.00    +0.000 A 
ATOM     12  C   UNL     1       2.323   6.514  19.367  0.00  0.00    +0.000 A 
ATOM     13  C   UNL     1       3.236   5.780  18.593  0.00  0.00    +0.000 A 
ATOM     14  C   UNL     1       3.627   4.488  18.962  0.00  0.00    +0.000 A 
ATOM     15 CL   UNL     1       4.783   3.681  17.961  0.00  0.00    +0.000 Cl
ENDBRANCH   3  12
ENDBRANCH   1   6
BRANCH   2  16
ATOM     16  N   UNL     1      -0.931  12.103  21.193  0.00  0.00    +0.000 N 
ATOM     17  C   UNL     1      -0.916  11.985  22.578  0.00  0.00    +0.000 C 
ATOM     18  O   UNL     1      -0.437  11.018  23.176  0.00  0.00    +0.000 OA
ATOM     19  H   UNL     1      -1.362  12.905  20.729  0.00  0.00    +0.000 HD
BRANCH  17  20
ATOM     20  C   UNL     1      -1.436  13.164  23.376  0.00  0.00    +0.000 C 
BRANCH  20  21
ATOM     21  C   UNL     1      -2.918  13.180  23.460  0.00  0.00    +0.000 A 
ATOM     22  N   UNL     1      -3.701  12.251  22.950  0.00  0.00    +0.000 NA
ATOM     23  N   UNL     1      -5.033  12.517  23.174  0.00  0.00    +0.000 NA
ATOM     24  C   UNL     1      -5.223  13.648  23.817  0.00  0.00    +0.000 A 
ATOM     25  N   UNL     1      -6.426  14.143  24.153  0.00  0.00    +0.000 N 
ATOM     26  S   UNL     1      -3.766  14.460  24.228  0.00  0.00    +0.000 S 
ATOM     27  H   UNL     1      -7.206  13.494  24.118  0.00  0.00    +0.000 HD
ATOM     28  H   UNL     1      -6.481  14.826  24.898  0.00  0.00    +0.000 HD
ENDBRANCH  20  21
ENDBRANCH  17  20
ENDBRANCH   2  16
TORSDOF 5
ENDMDL
MODEL 8
REMARK VINA RESULT:      -7.5      7.174      9.168
REMARK  Name = 
REMARK  6 active torsions:
REMARK  status: ('A' for Active; 'I' for Inactive)
REMARK    1  A    between atoms: C_1  and  C_2
REMARK    2  A    between atoms: C_5  and  C_6
REMARK    3  A    between atoms: C_9  and  C_10
REMARK    4  A    between atoms: N_11  and  N_12
REMARK    5  A    between atoms: C_13  and  C_15
REMARK    6  A    between atoms: C_15  and  C_16
REMARK                            x       y       z     vdW  Elec       q    Type
REMARK                         _______ _______ _______ _____ _____    ______ ____
ROOT
ATOM      1  C   UNL     1       2.394   8.286  17.599  0.00  0.00    +0.000 C 
ATOM      2  N   UNL     1       2.841   7.485  18.515  0.00  0.00    +0.000 NA
ENDROOT
BRANCH   1   6
ATOM      3  C   UNL     1      -0.304  10.544  18.251  0.00  0.00    +0.000 A 
ATOM      4  C   UNL     1       0.703  11.268  18.862  0.00  0.00    +0.000 A 
ATOM      5  C   UNL     1       1.888  10.521  18.713  0.00  0.00    +0.000 A 
ATOM      6  C   UNL     1       1.553   9.372  18.027  0.00  0.00    +0.000 A 
ATOM      7  O   UNL     1       0.212   9.373  17.750  0.00  0.00    +0.000 OA
BRANCH   3  12
ATOM      8  C   UNL     1      -5.874  11.873  17.300  0.00  0.00    +0.000 C 
ATOM      9  C   UNL     1      -4.447  11.491  17.579  0.00  0.00    +0.000 A 
ATOM     10  C   UNL     1      -3.721  10.760  16.628  0.00  0.00    +0.000 A 
ATOM     11  C   UNL     1      -2.375  10.429  16.846  0.00  0.00    +0.000 A 
ATOM     12  C   UNL     1      -1.722  10.820  18.020  0.00  0.00    +0.000 A 
ATOM     13  C   UNL     1      -2.463  11.524  18.983  0.00  0.00    +0.000 A 
ATOM     14  C   UNL     1      -3.803  11.860  18.765  0.00  0.00    +0.000 A 
ATOM     15 CL   UNL     1      -4.617  12.758  19.998  0.00  0.00    +0.000 Cl
ENDBRANCH   3  12
ENDBRANCH   1   6
BRANCH   2  16
ATOM     16  N   UNL     1       3.642   6.451  18.156  0.00  0.00    +0.000 N 
ATOM     17  C   UNL     1       3.810   5.416  19.069  0.00  0.00    +0.000 C 
ATOM     18  O   UNL     1       3.239   5.370  20.163  0.00  0.00    +0.000 OA
ATOM     19  H   UNL     1       4.153   6.471  17.272  0.00  0.00    +0.000 HD
BRANCH  17  20
ATOM     20  C   UNL     1       4.670   4.246  18.635  0.00  0.00    +0.000 C 
BRANCH  20  21
ATOM     21  C   UNL     1       5.303   4.469  17.311  0.00  0.00    +0.000 A 
ATOM     22  N   UNL     1       4.698   4.272  16.157  0.00  0.00    +0.000 NA
ATOM     23  N   UNL     1       5.519   4.557  15.089  0.00  0.00    +0.000 NA
ATOM     24  C   UNL     1       6.722   4.933  15.460  0.00  0.00    +0.000 A 
ATOM     25  N   UNL     1       7.715   5.261  14.616  0.00  0.00    +0.000 N 
ATOM     26  S   UNL     1       6.930   4.996  17.165  0.00  0.00    +0.000 S 
ATOM     27  H   UNL     1       7.444   5.456  13.657  0.00  0.00    +0.000 HD
ATOM     28  H   UNL     1       8.480   5.827  14.960  0.00  0.00    +0.000 HD
ENDBRANCH  20  21
ENDBRANCH  17  20
ENDBRANCH   2  16
TORSDOF 5
ENDMDL
MODEL 9
REMARK VINA RESULT:      -7.5      7.655      8.403
REMARK  Name = 
REMARK  6 active torsions:
REMARK  status: ('A' for Active; 'I' for Inactive)
REMARK    1  A    between atoms: C_1  and  C_2
REMARK    2  A    between atoms: C_5  and  C_6
REMARK    3  A    between atoms: C_9  and  C_10
REMARK    4  A    between atoms: N_11  and  N_12
REMARK    5  A    between atoms: C_13  and  C_15
REMARK    6  A    between atoms: C_15  and  C_16
REMARK                            x       y       z     vdW  Elec       q    Type
REMARK                         _______ _______ _______ _____ _____    ______ ____
ROOT
ATOM      1  C   UNL     1       0.612  10.338  19.622  0.00  0.00    +0.000 C 
ATOM      2  N   UNL     1      -0.135   9.942  20.604  0.00  0.00    +0.000 NA
ENDROOT
BRANCH   1   6
ATOM      3  C   UNL     1       2.503   7.433  18.736  0.00  0.00    +0.000 A 
ATOM      4  C   UNL     1       2.771   8.186  17.608  0.00  0.00    +0.000 A 
ATOM      5  C   UNL     1       2.091   9.410  17.766  0.00  0.00    +0.000 A 
ATOM      6  C   UNL     1       1.431   9.347  18.976  0.00  0.00    +0.000 A 
ATOM      7  O   UNL     1       1.669   8.137  19.572  0.00  0.00    +0.000 OA
BRANCH   3  12
ATOM      8  C   UNL     1       4.187   2.118  20.349  0.00  0.00    +0.000 C 
ATOM      9  C   UNL     1       3.761   3.511  19.981  0.00  0.00    +0.000 A 
ATOM     10  C   UNL     1       4.621   4.332  19.240  0.00  0.00    +0.000 A 
ATOM     11  C   UNL     1       4.229   5.620  18.846  0.00  0.00    +0.000 A 
ATOM     12  C   UNL     1       2.966   6.120  19.184  0.00  0.00    +0.000 A 
ATOM     13  C   UNL     1       2.120   5.305  19.952  0.00  0.00    +0.000 A 
ATOM     14  C   UNL     1       2.507   4.018  20.341  0.00  0.00    +0.000 A 
ATOM     15 CL   UNL     1       1.379   3.081  21.258  0.00  0.00    +0.000 Cl
ENDBRANCH   3  12
ENDBRANCH   1   6
BRANCH   2  16
ATOM     16  N   UNL     1      -0.928  10.842  21.238  0.00  0.00    +0.000 N 
ATOM     17  C   UNL     1      -0.809  10.949  22.619  0.00  0.00    +0.000 C 
ATOM     18  O   UNL     1       0.003  10.304  23.287  0.00  0.00    +0.000 OA
ATOM     19  H   UNL     1      -1.632  11.371  20.719  0.00  0.00    +0.000 HD
BRANCH  17  20
ATOM     20  C   UNL     1      -1.668  11.992  23.306  0.00  0.00    +0.000 C 
BRANCH  20  21
ATOM     21  C   UNL     1      -1.108  13.360  23.178  0.00  0.00    +0.000 A 
ATOM     22  N   UNL     1      -0.002  13.651  22.522  0.00  0.00    +0.000 NA
ATOM     23  N   UNL     1       0.284  14.998  22.563  0.00  0.00    +0.000 NA
ATOM     24  C   UNL     1      -0.589  15.680  23.269  0.00  0.00    +0.000 A 
ATOM     25  N   UNL     1      -0.537  17.007  23.473  0.00  0.00    +0.000 N 
ATOM     26  S   UNL     1      -1.859  14.718  23.913  0.00  0.00    +0.000 S 
ATOM     27  H   UNL     1       0.072  17.534  22.855  0.00  0.00    +0.000 HD
ATOM     28  H   UNL     1      -1.383  17.492  23.745  0.00  0.00    +0.000 HD
ENDBRANCH  20  21
ENDBRANCH  17  20
ENDBRANCH   2  16
TORSDOF 5
ENDMDL
