MODEL 1
REMARK VINA RESULT:      -8.2      0.000      0.000
REMARK  Name = 
REMARK  5 active torsions:
REMARK  status: ('A' for Active; 'I' for Inactive)
REMARK    1  A    between atoms: C_2  and  C_3
REMARK    2  A    between atoms: C_7  and  S_8
REMARK    3  A    between atoms: S_8  and  N_11
REMARK    4  A    between atoms: N_11  and  C_12
REMARK    5  A    between atoms: C_12  and  C_13
REMARK                            x       y       z     vdW  Elec       q    Type
REMARK                         _______ _______ _______ _____ _____    ______ ____
ROOT
ATOM      1  C   UNL     1       3.100   5.201  17.783  0.00  0.00    +0.000 A 
ATOM      2  C   UNL     1       2.811   6.569  17.840  0.00  0.00    +0.000 A 
ATOM      3  C   UNL     1       3.755   7.514  17.448  0.00  0.00    +0.000 A 
ATOM      4  C   UNL     1       5.035   7.104  17.098  0.00  0.00    +0.000 A 
ATOM      5  C   UNL     1       5.371   5.746  17.142  0.00  0.00    +0.000 A 
ATOM      6  C   UNL     1       4.399   4.782  17.457  0.00  0.00    +0.000 A 
ENDROOT
BRANCH   1   8
ATOM      7  O   UNL     1       1.197   3.937  17.323  0.00  0.00    +0.000 OA
ATOM      8  C   UNL     1       2.063   4.200  18.159  0.00  0.00    +0.000 C 
ATOM      9  N   UNL     1       2.114   3.599  19.413  0.00  0.00    +0.000 N 
ATOM     10  C   UNL     1       1.193   2.530  19.771  0.00  0.00    +0.000 C 
ATOM     11  C   UNL     1       1.012   2.669  21.276  0.00  0.00    +0.000 C 
ATOM     12  C   UNL     1       2.361   3.190  21.741  0.00  0.00    +0.000 C 
ATOM     13  C   UNL     1       2.818   4.086  20.598  0.00  0.00    +0.000 C 
ENDBRANCH   1   8
BRANCH   5  14
ATOM     14  S   UNL     1       7.047   5.280  16.750  0.00  0.00    +0.000 S 
ATOM     15  O   UNL     1       7.745   6.484  16.356  0.00  0.00    +0.000 OA
ATOM     16  O   UNL     1       7.515   4.445  17.834  0.00  0.00    +0.000 OA
BRANCH  14  17
ATOM     17  N   UNL     1       6.879   4.264  15.416  0.00  0.00    +0.000 NA
ATOM     18  H   UNL     1       6.264   3.470  15.594  0.00  0.00    +0.000 HD
BRANCH  17  19
ATOM     19  C   UNL     1       6.609   4.925  14.131  0.00  0.00    +0.000 C 
BRANCH  19  20
ATOM     20  C   UNL     1       6.199   3.938  13.066  0.00  0.00    +0.000 A 
ATOM     21  C   UNL     1       4.857   3.835  12.671  0.00  0.00    +0.000 A 
ATOM     22  C   UNL     1       4.483   2.947  11.661  0.00  0.00    +0.000 A 
ATOM     23  C   UNL     1       5.444   2.154  11.037  0.00  0.00    +0.000 A 
ATOM     24  C   UNL     1       6.781   2.247  11.421  0.00  0.00    +0.000 A 
ATOM     25  C   UNL     1       7.157   3.134  12.430  0.00  0.00    +0.000 A 
ENDBRANCH  19  20
ENDBRANCH  17  19
ENDBRANCH  14  17
ENDBRANCH   5  14
TORSDOF 5
ENDMDL
MODEL 2
REMARK VINA RESULT:      -8.1      0.918      1.338
REMARK  Name = 
REMARK  5 active torsions:
REMARK  status: ('A' for Active; 'I' for Inactive)
REMARK    1  A    between atoms: C_2  and  C_3
REMARK    2  A    between atoms: C_7  and  S_8
REMARK    3  A    between atoms: S_8  and  N_11
REMARK    4  A    between atoms: N_11  and  C_12
REMARK    5  A    between atoms: C_12  and  C_13
REMARK                            x       y       z     vdW  Elec       q    Type
REMARK                         _______ _______ _______ _____ _____    ______ ____
ROOT
ATOM      1  C   UNL     1       3.054   5.023  17.659  0.00  0.00    +0.000 A 
ATOM      2  C   UNL     1       3.047   6.400  17.907  0.00  0.00    +0.000 A 
ATOM      3  C   UNL     1       4.052   7.220  17.403  0.00  0.00    +0.000 A 
ATOM      4  C   UNL     1       5.133   6.655  16.738  0.00  0.00    +0.000 A 
ATOM      5  C   UNL     1       5.208   5.267  16.579  0.00  0.00    +0.000 A 
ATOM      6  C   UNL     1       4.156   4.443  17.012  0.00  0.00    +0.000 A 
ENDROOT
BRANCH   1   8
ATOM      7  O   UNL     1       0.945   4.055  17.453  0.00  0.00    +0.000 OA
ATOM      8  C   UNL     1       1.945   4.165  18.163  0.00  0.00    +0.000 C 
ATOM      9  N   UNL     1       2.080   3.522  19.389  0.00  0.00    +0.000 N 
ATOM     10  C   UNL     1       1.073   2.582  19.859  0.00  0.00    +0.000 C 
ATOM     11  C   UNL     1       1.121   2.695  21.375  0.00  0.00    +0.000 C 
ATOM     12  C   UNL     1       2.582   3.006  21.654  0.00  0.00    +0.000 C 
ATOM     13  C   UNL     1       3.002   3.866  20.470  0.00  0.00    +0.000 C 
ENDBRANCH   1   8
BRANCH   5  14
ATOM     14  S   UNL     1       6.649   4.588  15.779  0.00  0.00    +0.000 S 
ATOM     15  O   UNL     1       7.796   4.947  16.583  0.00  0.00    +0.000 OA
ATOM     16  O   UNL     1       6.342   3.211  15.459  0.00  0.00    +0.000 OA
BRANCH  14  17
ATOM     17  N   UNL     1       6.715   5.406  14.306  0.00  0.00    +0.000 NA
ATOM     18  H   UNL     1       6.961   6.390  14.408  0.00  0.00    +0.000 HD
BRANCH  17  19
ATOM     19  C   UNL     1       7.456   4.735  13.228  0.00  0.00    +0.000 C 
BRANCH  19  20
ATOM     20  C   UNL     1       6.574   3.801  12.438  0.00  0.00    +0.000 A 
ATOM     21  C   UNL     1       7.120   2.682  11.792  0.00  0.00    +0.000 A 
ATOM     22  C   UNL     1       6.299   1.798  11.090  0.00  0.00    +0.000 A 
ATOM     23  C   UNL     1       4.925   2.023  11.025  0.00  0.00    +0.000 A 
ATOM     24  C   UNL     1       4.370   3.131  11.661  0.00  0.00    +0.000 A 
ATOM     25  C   UNL     1       5.189   4.016  12.364  0.00  0.00    +0.000 A 
ENDBRANCH  19  20
ENDBRANCH  17  19
ENDBRANCH  14  17
ENDBRANCH   5  14
TORSDOF 5
ENDMDL
MODEL 3
REMARK VINA RESULT:      -8.1      3.375      5.839
REMARK  Name = 
REMARK  5 active torsions:
REMARK  status: ('A' for Active; 'I' for Inactive)
REMARK    1  A    between atoms: C_2  and  C_3
REMARK    2  A    between atoms: C_7  and  S_8
REMARK    3  A    between atoms: S_8  and  N_11
REMARK    4  A    between atoms: N_11  and  C_12
REMARK    5  A    between atoms: C_12  and  C_13
REMARK                            x       y       z     vdW  Elec       q    Type
REMARK                         _______ _______ _______ _____ _____    ______ ____
ROOT
ATOM      1  C   UNL     1       3.272   5.242  17.813  0.00  0.00    +0.000 A 
ATOM      2  C   UNL     1       2.620   6.481  17.811  0.00  0.00    +0.000 A 
ATOM      3  C   UNL     1       3.307   7.647  17.489  0.00  0.00    +0.000 A 
ATOM      4  C   UNL     1       4.679   7.600  17.272  0.00  0.00    +0.000 A 
ATOM      5  C   UNL     1       5.363   6.384  17.380  0.00  0.00    +0.000 A 
ATOM      6  C   UNL     1       4.661   5.192  17.622  0.00  0.00    +0.000 A 
ENDROOT
BRANCH   1   8
ATOM      7  O   UNL     1       1.991   3.407  17.163  0.00  0.00    +0.000 OA
ATOM      8  C   UNL     1       2.512   3.996  18.111  0.00  0.00    +0.000 C 
ATOM      9  N   UNL     1       2.427   3.543  19.424  0.00  0.00    +0.000 N 
ATOM     10  C   UNL     1       1.799   2.269  19.740  0.00  0.00    +0.000 C 
ATOM     11  C   UNL     1       1.224   2.461  21.135  0.00  0.00    +0.000 C 
ATOM     12  C   UNL     1       2.206   3.418  21.787  0.00  0.00    +0.000 C 
ATOM     13  C   UNL     1       2.648   4.320  20.643  0.00  0.00    +0.000 C 
ENDBRANCH   1   8
BRANCH   5  14
ATOM     14  S   UNL     1       7.132   6.391  17.160  0.00  0.00    +0.000 S 
ATOM     15  O   UNL     1       7.701   5.604  18.232  0.00  0.00    +0.000 OA
ATOM     16  O   UNL     1       7.383   6.083  15.769  0.00  0.00    +0.000 OA
BRANCH  14  17
ATOM     17  N   UNL     1       7.556   8.010  17.364  0.00  0.00    +0.000 NA
ATOM     18  H   UNL     1       6.754   8.639  17.340  0.00  0.00    +0.000 HD
BRANCH  17  19
ATOM     19  C   UNL     1       8.483   8.299  18.468  0.00  0.00    +0.000 C 
BRANCH  19  20
ATOM     20  C   UNL     1       8.774   9.775  18.585  0.00  0.00    +0.000 A 
ATOM     21  C   UNL     1       8.337  10.667  17.595  0.00  0.00    +0.000 A 
ATOM     22  C   UNL     1       8.574  12.037  17.722  0.00  0.00    +0.000 A 
ATOM     23  C   UNL     1       9.251  12.528  18.837  0.00  0.00    +0.000 A 
ATOM     24  C   UNL     1       9.691  11.652  19.827  0.00  0.00    +0.000 A 
ATOM     25  C   UNL     1       9.454  10.282  19.703  0.00  0.00    +0.000 A 
ENDBRANCH  19  20
ENDBRANCH  17  19
ENDBRANCH  14  17
ENDBRANCH   5  14
TORSDOF 5
ENDMDL
MODEL 4
REMARK VINA RESULT:      -8.0      1.967      3.345
REMARK  Name = 
REMARK  5 active torsions:
REMARK  status: ('A' for Active; 'I' for Inactive)
REMARK    1  A    between atoms: C_2  and  C_3
REMARK    2  A    between atoms: C_7  and  S_8
REMARK    3  A    between atoms: S_8  and  N_11
REMARK    4  A    between atoms: N_11  and  C_12
REMARK    5  A    between atoms: C_12  and  C_13
REMARK                            x       y       z     vdW  Elec       q    Type
REMARK                         _______ _______ _______ _____ _____    ______ ____
ROOT
ATOM      1  C   UNL     1       3.291   5.442  18.562  0.00  0.00    +0.000 A 
ATOM      2  C   UNL     1       2.664   4.405  17.862  0.00  0.00    +0.000 A 
ATOM      3  C   UNL     1       3.399   3.550  17.045  0.00  0.00    +0.000 A 
ATOM      4  C   UNL     1       4.750   3.792  16.835  0.00  0.00    +0.000 A 
ATOM      5  C   UNL     1       5.367   4.892  17.441  0.00  0.00    +0.000 A 
ATOM      6  C   UNL     1       4.650   5.708  18.331  0.00  0.00    +0.000 A 
ENDROOT
BRANCH   1   8
ATOM      7  O   UNL     1       2.084   5.822  20.518  0.00  0.00    +0.000 OA
ATOM      8  C   UNL     1       2.500   6.318  19.470  0.00  0.00    +0.000 C 
ATOM      9  N   UNL     1       2.273   7.644  19.117  0.00  0.00    +0.000 N 
ATOM     10  C   UNL     1       1.611   8.563  20.031  0.00  0.00    +0.000 C 
ATOM     11  C   UNL     1       0.888   9.550  19.127  0.00  0.00    +0.000 C 
ATOM     12  C   UNL     1       1.797   9.638  17.913  0.00  0.00    +0.000 C 
ATOM     13  C   UNL     1       2.362   8.230  17.780  0.00  0.00    +0.000 C 
ENDBRANCH   1   8
BRANCH   5  14
ATOM     14  S   UNL     1       7.086   5.197  17.083  0.00  0.00    +0.000 S 
ATOM     15  O   UNL     1       7.241   6.623  16.903  0.00  0.00    +0.000 OA
ATOM     16  O   UNL     1       7.856   4.463  18.064  0.00  0.00    +0.000 OA
BRANCH  14  17
ATOM     17  N   UNL     1       7.336   4.412  15.612  0.00  0.00    +0.000 NA
ATOM     18  H   UNL     1       7.014   3.445  15.616  0.00  0.00    +0.000 HD
BRANCH  17  19
ATOM     19  C   UNL     1       6.925   5.152  14.409  0.00  0.00    +0.000 C 
BRANCH  19  20
ATOM     20  C   UNL     1       6.417   4.229  13.329  0.00  0.00    +0.000 A 
ATOM     21  C   UNL     1       7.314   3.569  12.477  0.00  0.00    +0.000 A 
ATOM     22  C   UNL     1       6.846   2.688  11.501  0.00  0.00    +0.000 A 
ATOM     23  C   UNL     1       5.478   2.459  11.365  0.00  0.00    +0.000 A 
ATOM     24  C   UNL     1       4.576   3.110  12.205  0.00  0.00    +0.000 A 
ATOM     25  C   UNL     1       5.042   3.991  13.182  0.00  0.00    +0.000 A 
ENDBRANCH  19  20
ENDBRANCH  17  19
ENDBRANCH  14  17
ENDBRANCH   5  14
TORSDOF 5
ENDMDL
MODEL 5
REMARK VINA RESULT:      -8.0      0.858      1.418
REMARK  Name = 
REMARK  5 active torsions:
REMARK  status: ('A' for Active; 'I' for Inactive)
REMARK    1  A    between atoms: C_2  and  C_3
REMARK    2  A    between atoms: C_7  and  S_8
REMARK    3  A    between atoms: S_8  and  N_11
REMARK    4  A    between atoms: N_11  and  C_12
REMARK    5  A    between atoms: C_12  and  C_13
REMARK                            x       y       z     vdW  Elec       q    Type
REMARK                         _______ _______ _______ _____ _____    ______ ____
ROOT
ATOM      1  C   UNL     1       3.059   5.241  17.967  0.00  0.00    +0.000 A 
ATOM      2  C   UNL     1       2.663   6.575  17.817  0.00  0.00    +0.000 A 
ATOM      3  C   UNL     1       3.582   7.555  17.451  0.00  0.00    +0.000 A 
ATOM      4  C   UNL     1       4.928   7.227  17.338  0.00  0.00    +0.000 A 
ATOM      5  C   UNL     1       5.353   5.920  17.594  0.00  0.00    +0.000 A 
ATOM      6  C   UNL     1       4.420   4.910  17.881  0.00  0.00    +0.000 A 
ENDROOT
BRANCH   1   8
ATOM      7  O   UNL     1       1.187   3.945  17.473  0.00  0.00    +0.000 OA
ATOM      8  C   UNL     1       2.054   4.196  18.310  0.00  0.00    +0.000 C 
ATOM      9  N   UNL     1       2.136   3.545  19.537  0.00  0.00    +0.000 N 
ATOM     10  C   UNL     1       1.249   2.436  19.859  0.00  0.00    +0.000 C 
ATOM     11  C   UNL     1       1.081   2.506  21.370  0.00  0.00    +0.000 C 
ATOM     12  C   UNL     1       2.420   3.045  21.843  0.00  0.00    +0.000 C 
ATOM     13  C   UNL     1       2.840   4.001  20.735  0.00  0.00    +0.000 C 
ENDBRANCH   1   8
BRANCH   5  14
ATOM     14  S   UNL     1       7.099   5.569  17.502  0.00  0.00    +0.000 S 
ATOM     15  O   UNL     1       7.727   6.690  16.838  0.00  0.00    +0.000 OA
ATOM     16  O   UNL     1       7.510   5.133  18.819  0.00  0.00    +0.000 OA
BRANCH  14  17
ATOM     17  N   UNL     1       7.184   4.207  16.512  0.00  0.00    +0.000 NA
ATOM     18  H   UNL     1       7.440   3.361  17.019  0.00  0.00    +0.000 HD
BRANCH  17  19
ATOM     19  C   UNL     1       6.056   4.009  15.590  0.00  0.00    +0.000 C 
BRANCH  19  20
ATOM     20  C   UNL     1       6.474   4.164  14.149  0.00  0.00    +0.000 A 
ATOM     21  C   UNL     1       7.422   5.130  13.783  0.00  0.00    +0.000 A 
ATOM     22  C   UNL     1       7.835   5.250  12.455  0.00  0.00    +0.000 A 
ATOM     23  C   UNL     1       7.305   4.406  11.480  0.00  0.00    +0.000 A 
ATOM     24  C   UNL     1       6.361   3.442  11.831  0.00  0.00    +0.000 A 
ATOM     25  C   UNL     1       5.947   3.321  13.158  0.00  0.00    +0.000 A 
ENDBRANCH  19  20
ENDBRANCH  17  19
ENDBRANCH  14  17
ENDBRANCH   5  14
TORSDOF 5
ENDMDL
MODEL 6
REMARK VINA RESULT:      -7.9      3.169      5.573
REMARK  Name = 
REMARK  5 active torsions:
REMARK  status: ('A' for Active; 'I' for Inactive)
REMARK    1  A    between atoms: C_2  and  C_3
REMARK    2  A    between atoms: C_7  and  S_8
REMARK    3  A    between atoms: S_8  and  N_11
REMARK    4  A    between atoms: N_11  and  C_12
REMARK    5  A    between atoms: C_12  and  C_13
REMARK                            x       y       z     vdW  Elec       q    Type
REMARK                         _______ _______ _______ _____ _____    ______ ____
ROOT
ATOM      1  C   UNL     1       3.329   5.081  17.748  0.00  0.00    +0.000 A 
ATOM      2  C   UNL     1       2.795   6.372  17.840  0.00  0.00    +0.000 A 
ATOM      3  C   UNL     1       3.547   7.482  17.465  0.00  0.00    +0.000 A 
ATOM      4  C   UNL     1       4.877   7.320  17.097  0.00  0.00    +0.000 A 
ATOM      5  C   UNL     1       5.455   6.047  17.106  0.00  0.00    +0.000 A 
ATOM      6  C   UNL     1       4.679   4.915  17.403  0.00  0.00    +0.000 A 
ENDROOT
BRANCH   1   8
ATOM      7  O   UNL     1       1.917   3.313  17.190  0.00  0.00    +0.000 OA
ATOM      8  C   UNL     1       2.495   3.900  18.106  0.00  0.00    +0.000 C 
ATOM      9  N   UNL     1       2.410   3.500  19.436  0.00  0.00    +0.000 N 
ATOM     10  C   UNL     1       1.706   2.282  19.810  0.00  0.00    +0.000 C 
ATOM     11  C   UNL     1       1.175   2.561  21.208  0.00  0.00    +0.000 C 
ATOM     12  C   UNL     1       2.231   3.474  21.806  0.00  0.00    +0.000 C 
ATOM     13  C   UNL     1       2.706   4.303  20.621  0.00  0.00    +0.000 C 
ENDBRANCH   1   8
BRANCH   5  14
ATOM     14  S   UNL     1       7.183   5.903  16.692  0.00  0.00    +0.000 S 
ATOM     15  O   UNL     1       7.786   5.020  17.666  0.00  0.00    +0.000 OA
ATOM     16  O   UNL     1       7.254   5.637  15.272  0.00  0.00    +0.000 OA
BRANCH  14  17
ATOM     17  N   UNL     1       7.779   7.466  16.904  0.00  0.00    +0.000 NA
ATOM     18  H   UNL     1       7.214   8.175  16.436  0.00  0.00    +0.000 HD
BRANCH  17  19
ATOM     19  C   UNL     1       8.143   7.836  18.280  0.00  0.00    +0.000 C 
BRANCH  19  20
ATOM     20  C   UNL     1       8.507   9.296  18.391  0.00  0.00    +0.000 A 
ATOM     21  C   UNL     1       9.400   9.732  19.381  0.00  0.00    +0.000 A 
ATOM     22  C   UNL     1       9.764  11.077  19.462  0.00  0.00    +0.000 A 
ATOM     23  C   UNL     1       9.240  11.999  18.557  0.00  0.00    +0.000 A 
ATOM     24  C   UNL     1       8.352  11.578  17.570  0.00  0.00    +0.000 A 
ATOM     25  C   UNL     1       7.986  10.233  17.487  0.00  0.00    +0.000 A 
ENDBRANCH  19  20
ENDBRANCH  17  19
ENDBRANCH  14  17
ENDBRANCH   5  14
TORSDOF 5
ENDMDL
MODEL 7
REMARK VINA RESULT:      -7.8      2.099      3.459
REMARK  Name = 
REMARK  5 active torsions:
REMARK  status: ('A' for Active; 'I' for Inactive)
REMARK    1  A    between atoms: C_2  and  C_3
REMARK    2  A    between atoms: C_7  and  S_8
REMARK    3  A    between atoms: S_8  and  N_11
REMARK    4  A    between atoms: N_11  and  C_12
REMARK    5  A    between atoms: C_12  and  C_13
REMARK                            x       y       z     vdW  Elec       q    Type
REMARK                         _______ _______ _______ _____ _____    ______ ____
ROOT
ATOM      1  C   UNL     1       3.509   5.317  19.133  0.00  0.00    +0.000 A 
ATOM      2  C   UNL     1       3.084   4.065  18.674  0.00  0.00    +0.000 A 
ATOM      3  C   UNL     1       3.985   3.174  18.098  0.00  0.00    +0.000 A 
ATOM      4  C   UNL     1       5.298   3.570  17.876  0.00  0.00    +0.000 A 
ATOM      5  C   UNL     1       5.709   4.859  18.230  0.00  0.00    +0.000 A 
ATOM      6  C   UNL     1       4.827   5.732  18.887  0.00  0.00    +0.000 A 
ENDROOT
BRANCH   1   8
ATOM      7  O   UNL     1       1.948   5.823  20.787  0.00  0.00    +0.000 OA
ATOM      8  C   UNL     1       2.544   6.240  19.792  0.00  0.00    +0.000 C 
ATOM      9  N   UNL     1       2.361   7.520  19.279  0.00  0.00    +0.000 N 
ATOM     10  C   UNL     1       1.519   8.491  19.964  0.00  0.00    +0.000 C 
ATOM     11  C   UNL     1       0.960   9.365  18.852  0.00  0.00    +0.000 C 
ATOM     12  C   UNL     1       2.079   9.379  17.824  0.00  0.00    +0.000 C 
ATOM     13  C   UNL     1       2.687   7.987  17.933  0.00  0.00    +0.000 C 
ENDBRANCH   1   8
BRANCH   5  14
ATOM     14  S   UNL     1       7.386   5.340  17.861  0.00  0.00    +0.000 S 
ATOM     15  O   UNL     1       7.759   6.361  18.814  0.00  0.00    +0.000 OA
ATOM     16  O   UNL     1       8.149   4.120  17.710  0.00  0.00    +0.000 OA
BRANCH  14  17
ATOM     17  N   UNL     1       7.281   6.018  16.321  0.00  0.00    +0.000 NA
ATOM     18  H   UNL     1       8.123   5.876  15.764  0.00  0.00    +0.000 HD
BRANCH  17  19
ATOM     19  C   UNL     1       6.044   5.738  15.577  0.00  0.00    +0.000 C 
BRANCH  19  20
ATOM     20  C   UNL     1       6.315   4.982  14.300  0.00  0.00    +0.000 A 
ATOM     21  C   UNL     1       5.402   4.025  13.833  0.00  0.00    +0.000 A 
ATOM     22  C   UNL     1       5.635   3.350  12.634  0.00  0.00    +0.000 A 
ATOM     23  C   UNL     1       6.782   3.623  11.890  0.00  0.00    +0.000 A 
ATOM     24  C   UNL     1       7.697   4.572  12.344  0.00  0.00    +0.000 A 
ATOM     25  C   UNL     1       7.466   5.247  13.543  0.00  0.00    +0.000 A 
ENDBRANCH  19  20
ENDBRANCH  17  19
ENDBRANCH  14  17
ENDBRANCH   5  14
TORSDOF 5
ENDMDL
MODEL 8
REMARK VINA RESULT:      -7.8      3.475      6.332
REMARK  Name = 
REMARK  5 active torsions:
REMARK  status: ('A' for Active; 'I' for Inactive)
REMARK    1  A    between atoms: C_2  and  C_3
REMARK    2  A    between atoms: C_7  and  S_8
REMARK    3  A    between atoms: S_8  and  N_11
REMARK    4  A    between atoms: N_11  and  C_12
REMARK    5  A    between atoms: C_12  and  C_13
REMARK                            x       y       z     vdW  Elec       q    Type
REMARK                         _______ _______ _______ _____ _____    ______ ____
ROOT
ATOM      1  C   UNL     1       3.392   5.607  18.623  0.00  0.00    +0.000 A 
ATOM      2  C   UNL     1       2.842   4.585  17.840  0.00  0.00    +0.000 A 
ATOM      3  C   UNL     1       3.655   3.774  17.054  0.00  0.00    +0.000 A 
ATOM      4  C   UNL     1       5.014   4.047  16.959  0.00  0.00    +0.000 A 
ATOM      5  C   UNL     1       5.558   5.135  17.650  0.00  0.00    +0.000 A 
ATOM      6  C   UNL     1       4.758   5.905  18.510  0.00  0.00    +0.000 A 
ENDROOT
BRANCH   1   8
ATOM      7  O   UNL     1       2.042   5.898  20.500  0.00  0.00    +0.000 OA
ATOM      8  C   UNL     1       2.515   6.435  19.498  0.00  0.00    +0.000 C 
ATOM      9  N   UNL     1       2.274   7.764  19.164  0.00  0.00    +0.000 N 
ATOM     10  C   UNL     1       1.523   8.638  20.054  0.00  0.00    +0.000 C 
ATOM     11  C   UNL     1       0.836   9.630  19.128  0.00  0.00    +0.000 C 
ATOM     12  C   UNL     1       1.824   9.777  17.983  0.00  0.00    +0.000 C 
ATOM     13  C   UNL     1       2.437   8.390  17.853  0.00  0.00    +0.000 C 
ENDBRANCH   1   8
BRANCH   5  14
ATOM     14  S   UNL     1       7.294   5.482  17.440  0.00  0.00    +0.000 S 
ATOM     15  O   UNL     1       8.027   4.444  18.130  0.00  0.00    +0.000 OA
ATOM     16  O   UNL     1       7.500   5.757  16.034  0.00  0.00    +0.000 OA
BRANCH  14  17
ATOM     17  N   UNL     1       7.510   6.951  18.239  0.00  0.00    +0.000 NA
ATOM     18  H   UNL     1       8.315   6.949  18.865  0.00  0.00    +0.000 HD
BRANCH  17  19
ATOM     19  C   UNL     1       7.433   8.158  17.403  0.00  0.00    +0.000 C 
BRANCH  19  20
ATOM     20  C   UNL     1       8.202   9.308  18.003  0.00  0.00    +0.000 A 
ATOM     21  C   UNL     1       8.188  10.569  17.391  0.00  0.00    +0.000 A 
ATOM     22  C   UNL     1       8.871  11.643  17.966  0.00  0.00    +0.000 A 
ATOM     23  C   UNL     1       9.574  11.467  19.157  0.00  0.00    +0.000 A 
ATOM     24  C   UNL     1       9.596  10.218  19.774  0.00  0.00    +0.000 A 
ATOM     25  C   UNL     1       8.914   9.143  19.201  0.00  0.00    +0.000 A 
ENDBRANCH  19  20
ENDBRANCH  17  19
ENDBRANCH  14  17
ENDBRANCH   5  14
TORSDOF 5
ENDMDL
MODEL 9
REMARK VINA RESULT:      -7.7      5.136      8.302
REMARK  Name = 
REMARK  5 active torsions:
REMARK  status: ('A' for Active; 'I' for Inactive)
REMARK    1  A    between atoms: C_2  and  C_3
REMARK    2  A    between atoms: C_7  and  S_8
REMARK    3  A    between atoms: S_8  and  N_11
REMARK    4  A    between atoms: N_11  and  C_12
REMARK    5  A    between atoms: C_12  and  C_13
REMARK                            x       y       z     vdW  Elec       q    Type
REMARK                         _______ _______ _______ _____ _____    ______ ____
ROOT
ATOM      1  C   UNL     1       2.847   6.642  19.162  0.00  0.00    +0.000 A 
ATOM      2  C   UNL     1       2.958   7.175  17.872  0.00  0.00    +0.000 A 
ATOM      3  C   UNL     1       2.462   8.442  17.580  0.00  0.00    +0.000 A 
ATOM      4  C   UNL     1       1.753   9.143  18.546  0.00  0.00    +0.000 A 
ATOM      5  C   UNL     1       1.538   8.575  19.807  0.00  0.00    +0.000 A 
ATOM      6  C   UNL     1       2.108   7.334  20.134  0.00  0.00    +0.000 A 
ENDROOT
BRANCH   1   8
ATOM      7  O   UNL     1       4.627   5.256  19.746  0.00  0.00    +0.000 OA
ATOM      8  C   UNL     1       3.427   5.306  19.473  0.00  0.00    +0.000 C 
ATOM      9  N   UNL     1       2.606   4.182  19.454  0.00  0.00    +0.000 N 
ATOM     10  C   UNL     1       3.107   2.880  19.870  0.00  0.00    +0.000 C 
ATOM     11  C   UNL     1       2.306   1.882  19.047  0.00  0.00    +0.000 C 
ATOM     12  C   UNL     1       0.960   2.566  18.885  0.00  0.00    +0.000 C 
ATOM     13  C   UNL     1       1.313   4.043  18.788  0.00  0.00    +0.000 C 
ENDBRANCH   1   8
BRANCH   5  14
ATOM     14  S   UNL     1       0.564   9.488  20.988  0.00  0.00    +0.000 S 
ATOM     15  O   UNL     1      -0.628   8.713  21.251  0.00  0.00    +0.000 OA
ATOM     16  O   UNL     1       1.461   9.895  22.047  0.00  0.00    +0.000 OA
BRANCH  14  17
ATOM     17  N   UNL     1       0.147  10.897  20.161  0.00  0.00    +0.000 NA
ATOM     18  H   UNL     1       0.517  10.927  19.211  0.00  0.00    +0.000 HD
BRANCH  17  19
ATOM     19  C   UNL     1      -1.265  11.299  20.242  0.00  0.00    +0.000 C 
BRANCH  19  20
ATOM     20  C   UNL     1      -1.986  11.085  18.935  0.00  0.00    +0.000 A 
ATOM     21  C   UNL     1      -1.455  10.227  17.962  0.00  0.00    +0.000 A 
ATOM     22  C   UNL     1      -2.139  10.001  16.766  0.00  0.00    +0.000 A 
ATOM     23  C   UNL     1      -3.360  10.631  16.531  0.00  0.00    +0.000 A 
ATOM     24  C   UNL     1      -3.899  11.487  17.490  0.00  0.00    +0.000 A 
ATOM     25  C   UNL     1      -3.216  11.714  18.686  0.00  0.00    +0.000 A 
ENDBRANCH  19  20
ENDBRANCH  17  19
ENDBRANCH  14  17
ENDBRANCH   5  14
TORSDOF 5
ENDMDL
