MODEL 1
REMARK VINA RESULT:      -8.6      0.000      0.000
REMARK  Name = 
REMARK  6 active torsions:
REMARK  status: ('A' for Active; 'I' for Inactive)
REMARK    1  A    between atoms: C_1  and  O_2
REMARK    2  A    between atoms: O_2  and  C_3
REMARK    3  A    between atoms: C_6  and  C_7
REMARK    4  A    between atoms: C_10  and  C_11
REMARK    5  A    between atoms: C_19  and  O_20
REMARK    6  A    between atoms: O_20  and  C_21
REMARK                            x       y       z     vdW  Elec       q    Type
REMARK                         _______ _______ _______ _____ _____    ______ ____
ROOT
ATOM      1  C   UNL     1       4.413   4.673  17.092  0.00  0.00    +0.000 A 
ATOM      2  C   UNL     1       4.889   5.990  16.953  0.00  0.00    +0.000 A 
ATOM      3  C   UNL     1       4.139   7.080  17.398  0.00  0.00    +0.000 A 
ATOM      4  C   UNL     1       2.883   6.881  17.965  0.00  0.00    +0.000 A 
ATOM      5  C   UNL     1       2.363   5.579  17.991  0.00  0.00    +0.000 A 
ATOM      6  C   UNL     1       3.107   4.472  17.548  0.00  0.00    +0.000 A 
ENDROOT
BRANCH   4   7
ATOM      7  C   UNL     1       2.134   8.001  18.517  0.00  0.00    +0.000 A 
ATOM      8  N   UNL     1       1.831   9.110  17.827  0.00  0.00    +0.000 NA
ATOM      9  O   UNL     1       1.104   9.876  18.730  0.00  0.00    +0.000 OA
ATOM     10  C   UNL     1       1.030   9.155  19.887  0.00  0.00    +0.000 A 
ATOM     11  N   UNL     1       1.632   7.989  19.804  0.00  0.00    +0.000 NA
BRANCH  10  12
ATOM     12  C   UNL     1       0.339   9.778  20.999  0.00  0.00    +0.000 A 
ATOM     13  C   UNL     1      -0.595  10.804  20.829  0.00  0.00    +0.000 A 
ATOM     14  C   UNL     1      -1.203  11.385  21.941  0.00  0.00    +0.000 A 
ATOM     15  C   UNL     1      -0.861  10.916  23.197  0.00  0.00    +0.000 A 
ATOM     16  N   UNL     1       0.029   9.923  23.407  0.00  0.00    +0.000 NA
ATOM     17  C   UNL     1       0.607   9.379  22.306  0.00  0.00    +0.000 A 
ENDBRANCH  10  12
ENDBRANCH   4   7
BRANCH   1  19
ATOM     18  C   UNL     1       6.008   3.807  15.600  0.00  0.00    +0.000 C 
ATOM     19  O   UNL     1       5.202   3.605  16.762  0.00  0.00    +0.000 OA
ENDBRANCH   1  19
BRANCH   6  20
ATOM     20  O   UNL     1       2.377   3.323  17.618  0.00  0.00    +0.000 OA
BRANCH  20  21
ATOM     21  C   UNL     1       2.200   2.592  18.824  0.00  0.00    +0.000 C 
ATOM     22  C   UNL     1       3.352   2.828  19.795  0.00  0.00    +0.000 C 
ATOM     23  C   UNL     1       2.740   2.762  21.185  0.00  0.00    +0.000 C 
ATOM     24  C   UNL     1       1.285   3.180  21.032  0.00  0.00    +0.000 C 
ATOM     25  C   UNL     1       0.990   3.208  19.540  0.00  0.00    +0.000 C 
ENDBRANCH  20  21
ENDBRANCH   6  20
TORSDOF 5
ENDMDL
MODEL 2
REMARK VINA RESULT:      -8.4      1.614      3.669
REMARK  Name = 
REMARK  6 active torsions:
REMARK  status: ('A' for Active; 'I' for Inactive)
REMARK    1  A    between atoms: C_1  and  O_2
REMARK    2  A    between atoms: O_2  and  C_3
REMARK    3  A    between atoms: C_6  and  C_7
REMARK    4  A    between atoms: C_10  and  C_11
REMARK    5  A    between atoms: C_19  and  O_20
REMARK    6  A    between atoms: O_20  and  C_21
REMARK                            x       y       z     vdW  Elec       q    Type
REMARK                         _______ _______ _______ _____ _____    ______ ____
ROOT
ATOM      1  C   UNL     1       3.521   3.348  19.866  0.00  0.00    +0.000 A 
ATOM      2  C   UNL     1       2.373   3.633  20.627  0.00  0.00    +0.000 A 
ATOM      3  C   UNL     1       1.854   4.927  20.696  0.00  0.00    +0.000 A 
ATOM      4  C   UNL     1       2.488   5.972  20.030  0.00  0.00    +0.000 A 
ATOM      5  C   UNL     1       3.698   5.706  19.373  0.00  0.00    +0.000 A 
ATOM      6  C   UNL     1       4.232   4.407  19.293  0.00  0.00    +0.000 A 
ENDROOT
BRANCH   4   7
ATOM      7  C   UNL     1       1.904   7.305  20.018  0.00  0.00    +0.000 A 
ATOM      8  N   UNL     1       2.104   8.199  19.039  0.00  0.00    +0.000 NA
ATOM      9  O   UNL     1       1.347   9.297  19.431  0.00  0.00    +0.000 OA
ATOM     10  C   UNL     1       0.752   8.963  20.613  0.00  0.00    +0.000 A 
ATOM     11  N   UNL     1       1.047   7.744  21.009  0.00  0.00    +0.000 NA
BRANCH  10  12
ATOM     12  C   UNL     1      -0.071   9.979  21.239  0.00  0.00    +0.000 A 
ATOM     13  C   UNL     1      -0.339   9.994  22.610  0.00  0.00    +0.000 A 
ATOM     14  C   UNL     1      -1.165  10.980  23.149  0.00  0.00    +0.000 A 
ATOM     15  C   UNL     1      -1.696  11.931  22.296  0.00  0.00    +0.000 A 
ATOM     16  N   UNL     1      -1.457  11.959  20.967  0.00  0.00    +0.000 NA
ATOM     17  C   UNL     1      -0.653  10.984  20.471  0.00  0.00    +0.000 A 
ENDBRANCH  10  12
ENDBRANCH   4   7
BRANCH   1  19
ATOM     18  C   UNL     1       3.520   1.439  18.497  0.00  0.00    +0.000 C 
ATOM     19  O   UNL     1       3.955   2.060  19.708  0.00  0.00    +0.000 OA
ENDBRANCH   1  19
BRANCH   6  20
ATOM     20  O   UNL     1       5.436   4.404  18.656  0.00  0.00    +0.000 OA
BRANCH  20  21
ATOM     21  C   UNL     1       5.645   5.024  17.394  0.00  0.00    +0.000 C 
ATOM     22  C   UNL     1       7.112   4.969  16.980  0.00  0.00    +0.000 C 
ATOM     23  C   UNL     1       7.108   4.843  15.465  0.00  0.00    +0.000 C 
ATOM     24  C   UNL     1       5.801   4.156  15.096  0.00  0.00    +0.000 C 
ATOM     25  C   UNL     1       4.940   4.148  16.350  0.00  0.00    +0.000 C 
ENDBRANCH  20  21
ENDBRANCH   6  20
TORSDOF 5
ENDMDL
MODEL 3
REMARK VINA RESULT:      -8.2      1.613      3.661
REMARK  Name = 
REMARK  6 active torsions:
REMARK  status: ('A' for Active; 'I' for Inactive)
REMARK    1  A    between atoms: C_1  and  O_2
REMARK    2  A    between atoms: O_2  and  C_3
REMARK    3  A    between atoms: C_6  and  C_7
REMARK    4  A    between atoms: C_10  and  C_11
REMARK    5  A    between atoms: C_19  and  O_20
REMARK    6  A    between atoms: O_20  and  C_21
REMARK                            x       y       z     vdW  Elec       q    Type
REMARK                         _______ _______ _______ _____ _____    ______ ____
ROOT
ATOM      1  C   UNL     1       3.563   3.608  19.665  0.00  0.00    +0.000 A 
ATOM      2  C   UNL     1       2.388   3.860  20.397  0.00  0.00    +0.000 A 
ATOM      3  C   UNL     1       1.866   5.150  20.505  0.00  0.00    +0.000 A 
ATOM      4  C   UNL     1       2.523   6.223  19.908  0.00  0.00    +0.000 A 
ATOM      5  C   UNL     1       3.755   5.984  19.282  0.00  0.00    +0.000 A 
ATOM      6  C   UNL     1       4.292   4.690  19.163  0.00  0.00    +0.000 A 
ENDROOT
BRANCH   4   7
ATOM      7  C   UNL     1       1.939   7.556  19.934  0.00  0.00    +0.000 A 
ATOM      8  N   UNL     1       1.868   8.361  18.865  0.00  0.00    +0.000 NA
ATOM      9  O   UNL     1       1.224   9.495  19.344  0.00  0.00    +0.000 OA
ATOM     10  C   UNL     1       0.959   9.269  20.664  0.00  0.00    +0.000 A 
ATOM     11  N   UNL     1       1.362   8.086  21.072  0.00  0.00    +0.000 NA
BRANCH  10  12
ATOM     12  C   UNL     1       0.314  10.344  21.392  0.00  0.00    +0.000 A 
ATOM     13  C   UNL     1      -0.651  10.115  22.377  0.00  0.00    +0.000 A 
ATOM     14  C   UNL     1      -1.260  11.191  23.021  0.00  0.00    +0.000 A 
ATOM     15  C   UNL     1      -0.879  12.472  22.663  0.00  0.00    +0.000 A 
ATOM     16  N   UNL     1       0.054  12.739  21.724  0.00  0.00    +0.000 NA
ATOM     17  C   UNL     1       0.626  11.672  21.112  0.00  0.00    +0.000 A 
ENDBRANCH  10  12
ENDBRANCH   4   7
BRANCH   1  19
ATOM     18  C   UNL     1       3.247   1.591  18.502  0.00  0.00    +0.000 C 
ATOM     19  O   UNL     1       4.002   2.328  19.465  0.00  0.00    +0.000 OA
ENDBRANCH   1  19
BRANCH   6  20
ATOM     20  O   UNL     1       5.518   4.714  18.570  0.00  0.00    +0.000 OA
BRANCH  20  21
ATOM     21  C   UNL     1       5.794   4.055  17.340  0.00  0.00    +0.000 C 
ATOM     22  C   UNL     1       4.758   4.401  16.276  0.00  0.00    +0.000 C 
ATOM     23  C   UNL     1       5.508   4.400  14.954  0.00  0.00    +0.000 C 
ATOM     24  C   UNL     1       6.953   4.746  15.282  0.00  0.00    +0.000 C 
ATOM     25  C   UNL     1       7.092   4.664  16.795  0.00  0.00    +0.000 C 
ENDBRANCH  20  21
ENDBRANCH   6  20
TORSDOF 5
ENDMDL
MODEL 4
REMARK VINA RESULT:      -8.1      1.743      2.227
REMARK  Name = 
REMARK  6 active torsions:
REMARK  status: ('A' for Active; 'I' for Inactive)
REMARK    1  A    between atoms: C_1  and  O_2
REMARK    2  A    between atoms: O_2  and  C_3
REMARK    3  A    between atoms: C_6  and  C_7
REMARK    4  A    between atoms: C_10  and  C_11
REMARK    5  A    between atoms: C_19  and  O_20
REMARK    6  A    between atoms: O_20  and  C_21
REMARK                            x       y       z     vdW  Elec       q    Type
REMARK                         _______ _______ _______ _____ _____    ______ ____
ROOT
ATOM      1  C   UNL     1       4.330   4.577  16.956  0.00  0.00    +0.000 A 
ATOM      2  C   UNL     1       4.784   5.898  16.784  0.00  0.00    +0.000 A 
ATOM      3  C   UNL     1       4.080   6.979  17.317  0.00  0.00    +0.000 A 
ATOM      4  C   UNL     1       2.891   6.767  18.009  0.00  0.00    +0.000 A 
ATOM      5  C   UNL     1       2.381   5.463  18.075  0.00  0.00    +0.000 A 
ATOM      6  C   UNL     1       3.080   4.364  17.544  0.00  0.00    +0.000 A 
ENDROOT
BRANCH   4   7
ATOM      7  C   UNL     1       2.199   7.877  18.650  0.00  0.00    +0.000 A 
ATOM      8  N   UNL     1       1.863   7.899  19.947  0.00  0.00    +0.000 NA
ATOM      9  O   UNL     1       1.257   9.138  20.114  0.00  0.00    +0.000 OA
ATOM     10  C   UNL     1       1.287   9.757  18.898  0.00  0.00    +0.000 A 
ATOM     11  N   UNL     1       1.870   9.033  17.968  0.00  0.00    +0.000 NA
BRANCH  10  12
ATOM     12  C   UNL     1       0.671  11.067  18.818  0.00  0.00    +0.000 A 
ATOM     13  C   UNL     1      -0.715  11.249  18.778  0.00  0.00    +0.000 A 
ATOM     14  C   UNL     1      -1.247  12.533  18.669  0.00  0.00    +0.000 A 
ATOM     15  C   UNL     1      -0.373  13.603  18.608  0.00  0.00    +0.000 A 
ATOM     16  N   UNL     1       0.970  13.475  18.651  0.00  0.00    +0.000 NA
ATOM     17  C   UNL     1       1.459  12.213  18.753  0.00  0.00    +0.000 A 
ENDBRANCH  10  12
ENDBRANCH   4   7
BRANCH   1  19
ATOM     18  C   UNL     1       6.164   3.872  15.668  0.00  0.00    +0.000 C 
ATOM     19  O   UNL     1       5.084   3.517  16.534  0.00  0.00    +0.000 OA
ENDBRANCH   1  19
BRANCH   6  20
ATOM     20  O   UNL     1       2.365   3.211  17.676  0.00  0.00    +0.000 OA
BRANCH  20  21
ATOM     21  C   UNL     1       2.322   2.463  18.885  0.00  0.00    +0.000 C 
ATOM     22  C   UNL     1       3.370   2.948  19.881  0.00  0.00    +0.000 C 
ATOM     23  C   UNL     1       2.753   2.755  21.256  0.00  0.00    +0.000 C 
ATOM     24  C   UNL     1       1.246   2.845  21.065  0.00  0.00    +0.000 C 
ATOM     25  C   UNL     1       0.990   2.802  19.566  0.00  0.00    +0.000 C 
ENDBRANCH  20  21
ENDBRANCH   6  20
TORSDOF 5
ENDMDL
MODEL 5
REMARK VINA RESULT:      -8.1      1.009      1.266
REMARK  Name = 
REMARK  6 active torsions:
REMARK  status: ('A' for Active; 'I' for Inactive)
REMARK    1  A    between atoms: C_1  and  O_2
REMARK    2  A    between atoms: O_2  and  C_3
REMARK    3  A    between atoms: C_6  and  C_7
REMARK    4  A    between atoms: C_10  and  C_11
REMARK    5  A    between atoms: C_19  and  O_20
REMARK    6  A    between atoms: O_20  and  C_21
REMARK                            x       y       z     vdW  Elec       q    Type
REMARK                         _______ _______ _______ _____ _____    ______ ____
ROOT
ATOM      1  C   UNL     1       5.125   5.079  17.482  0.00  0.00    +0.000 A 
ATOM      2  C   UNL     1       4.808   6.155  16.634  0.00  0.00    +0.000 A 
ATOM      3  C   UNL     1       3.864   7.114  17.006  0.00  0.00    +0.000 A 
ATOM      4  C   UNL     1       3.194   7.002  18.221  0.00  0.00    +0.000 A 
ATOM      5  C   UNL     1       3.426   5.864  19.007  0.00  0.00    +0.000 A 
ATOM      6  C   UNL     1       4.375   4.892  18.647  0.00  0.00    +0.000 A 
ENDROOT
BRANCH   4   7
ATOM      7  C   UNL     1       2.277   8.045  18.660  0.00  0.00    +0.000 A 
ATOM      8  N   UNL     1       1.749   8.967  17.843  0.00  0.00    +0.000 NA
ATOM      9  O   UNL     1       0.934   9.723  18.676  0.00  0.00    +0.000 OA
ATOM     10  C   UNL     1       1.040   9.183  19.925  0.00  0.00    +0.000 A 
ATOM     11  N   UNL     1       1.840   8.140  19.967  0.00  0.00    +0.000 NA
BRANCH  10  12
ATOM     12  C   UNL     1       0.295   9.836  20.984  0.00  0.00    +0.000 A 
ATOM     13  C   UNL     1      -0.604  10.879  20.741  0.00  0.00    +0.000 A 
ATOM     14  C   UNL     1      -1.268  11.490  21.805  0.00  0.00    +0.000 A 
ATOM     15  C   UNL     1      -1.015  11.032  23.086  0.00  0.00    +0.000 A 
ATOM     16  N   UNL     1      -0.162  10.025  23.365  0.00  0.00    +0.000 NA
ATOM     17  C   UNL     1       0.473   9.452  22.310  0.00  0.00    +0.000 A 
ENDBRANCH  10  12
ENDBRANCH   4   7
BRANCH   1  19
ATOM     18  C   UNL     1       7.447   4.745  17.345  0.00  0.00    +0.000 C 
ATOM     19  O   UNL     1       6.134   4.211  17.164  0.00  0.00    +0.000 OA
ENDBRANCH   1  19
BRANCH   6  20
ATOM     20  O   UNL     1       4.384   3.856  19.532  0.00  0.00    +0.000 OA
BRANCH  20  21
ATOM     21  C   UNL     1       3.394   2.835  19.537  0.00  0.00    +0.000 C 
ATOM     22  C   UNL     1       2.399   3.029  20.677  0.00  0.00    +0.000 C 
ATOM     23  C   UNL     1       1.066   2.523  20.150  0.00  0.00    +0.000 C 
ATOM     24  C   UNL     1       1.107   2.702  18.639  0.00  0.00    +0.000 C 
ATOM     25  C   UNL     1       2.546   3.037  18.275  0.00  0.00    +0.000 C 
ENDBRANCH  20  21
ENDBRANCH   6  20
TORSDOF 5
ENDMDL
MODEL 6
REMARK VINA RESULT:      -8.0      1.574      3.540
REMARK  Name = 
REMARK  6 active torsions:
REMARK  status: ('A' for Active; 'I' for Inactive)
REMARK    1  A    between atoms: C_1  and  O_2
REMARK    2  A    between atoms: O_2  and  C_3
REMARK    3  A    between atoms: C_6  and  C_7
REMARK    4  A    between atoms: C_10  and  C_11
REMARK    5  A    between atoms: C_19  and  O_20
REMARK    6  A    between atoms: O_20  and  C_21
REMARK                            x       y       z     vdW  Elec       q    Type
REMARK                         _______ _______ _______ _____ _____    ______ ____
ROOT
ATOM      1  C   UNL     1       3.494   3.189  19.736  0.00  0.00    +0.000 A 
ATOM      2  C   UNL     1       2.198   3.453  20.217  0.00  0.00    +0.000 A 
ATOM      3  C   UNL     1       1.713   4.759  20.306  0.00  0.00    +0.000 A 
ATOM      4  C   UNL     1       2.523   5.832  19.945  0.00  0.00    +0.000 A 
ATOM      5  C   UNL     1       3.851   5.572  19.581  0.00  0.00    +0.000 A 
ATOM      6  C   UNL     1       4.353   4.262  19.484  0.00  0.00    +0.000 A 
ENDROOT
BRANCH   4   7
ATOM      7  C   UNL     1       1.996   7.190  19.944  0.00  0.00    +0.000 A 
ATOM      8  N   UNL     1       2.127   8.041  18.917  0.00  0.00    +0.000 NA
ATOM      9  O   UNL     1       1.462   9.184  19.345  0.00  0.00    +0.000 OA
ATOM     10  C   UNL     1       0.983   8.916  20.594  0.00  0.00    +0.000 A 
ATOM     11  N   UNL     1       1.269   7.699  21.003  0.00  0.00    +0.000 NA
BRANCH  10  12
ATOM     12  C   UNL     1       0.275   9.989  21.265  0.00  0.00    +0.000 A 
ATOM     13  C   UNL     1      -0.112  11.162  20.611  0.00  0.00    +0.000 A 
ATOM     14  C   UNL     1      -0.763  12.172  21.318  0.00  0.00    +0.000 A 
ATOM     15  C   UNL     1      -1.013  11.975  22.665  0.00  0.00    +0.000 A 
ATOM     16  N   UNL     1      -0.664  10.856  23.334  0.00  0.00    +0.000 NA
ATOM     17  C   UNL     1      -0.029   9.892  22.620  0.00  0.00    +0.000 A 
ENDBRANCH  10  12
ENDBRANCH   4   7
BRANCH   1  19
ATOM     18  C   UNL     1       3.617   1.375  18.248  0.00  0.00    +0.000 C 
ATOM     19  O   UNL     1       3.919   1.903  19.540  0.00  0.00    +0.000 OA
ENDBRANCH   1  19
BRANCH   6  20
ATOM     20  O   UNL     1       5.679   4.260  19.170  0.00  0.00    +0.000 OA
BRANCH  20  21
ATOM     21  C   UNL     1       6.157   4.382  17.836  0.00  0.00    +0.000 C 
ATOM     22  C   UNL     1       5.017   4.629  16.854  0.00  0.00    +0.000 C 
ATOM     23  C   UNL     1       5.594   5.522  15.768  0.00  0.00    +0.000 C 
ATOM     24  C   UNL     1       6.719   6.313  16.418  0.00  0.00    +0.000 C 
ATOM     25  C   UNL     1       6.974   5.679  17.777  0.00  0.00    +0.000 C 
ENDBRANCH  20  21
ENDBRANCH   6  20
TORSDOF 5
ENDMDL
MODEL 7
REMARK VINA RESULT:      -8.0      1.521      3.599
REMARK  Name = 
REMARK  6 active torsions:
REMARK  status: ('A' for Active; 'I' for Inactive)
REMARK    1  A    between atoms: C_1  and  O_2
REMARK    2  A    between atoms: O_2  and  C_3
REMARK    3  A    between atoms: C_6  and  C_7
REMARK    4  A    between atoms: C_10  and  C_11
REMARK    5  A    between atoms: C_19  and  O_20
REMARK    6  A    between atoms: O_20  and  C_21
REMARK                            x       y       z     vdW  Elec       q    Type
REMARK                         _______ _______ _______ _____ _____    ______ ____
ROOT
ATOM      1  C   UNL     1       3.440   3.661  19.635  0.00  0.00    +0.000 A 
ATOM      2  C   UNL     1       2.296   3.942  20.404  0.00  0.00    +0.000 A 
ATOM      3  C   UNL     1       1.796   5.242  20.508  0.00  0.00    +0.000 A 
ATOM      4  C   UNL     1       2.447   6.294  19.871  0.00  0.00    +0.000 A 
ATOM      5  C   UNL     1       3.653   6.027  19.206  0.00  0.00    +0.000 A 
ATOM      6  C   UNL     1       4.166   4.723  19.091  0.00  0.00    +0.000 A 
ENDROOT
BRANCH   4   7
ATOM      7  C   UNL     1       1.883   7.636  19.895  0.00  0.00    +0.000 A 
ATOM      8  N   UNL     1       1.878   8.463  18.839  0.00  0.00    +0.000 NA
ATOM      9  O   UNL     1       1.229   9.598  19.309  0.00  0.00    +0.000 OA
ATOM     10  C   UNL     1       0.897   9.352  20.609  0.00  0.00    +0.000 A 
ATOM     11  N   UNL     1       1.260   8.154  21.013  0.00  0.00    +0.000 NA
BRANCH  10  12
ATOM     12  C   UNL     1       0.233  10.423  21.327  0.00  0.00    +0.000 A 
ATOM     13  C   UNL     1       0.210  11.742  20.863  0.00  0.00    +0.000 A 
ATOM     14  C   UNL     1      -0.417  12.734  21.615  0.00  0.00    +0.000 A 
ATOM     15  C   UNL     1      -1.010  12.376  22.812  0.00  0.00    +0.000 A 
ATOM     16  N   UNL     1      -1.019  11.115  23.294  0.00  0.00    +0.000 NA
ATOM     17  C   UNL     1      -0.397  10.171  22.542  0.00  0.00    +0.000 A 
ENDBRANCH  10  12
ENDBRANCH   4   7
BRANCH   1  19
ATOM     18  C   UNL     1       4.762   1.890  20.434  0.00  0.00    +0.000 C 
ATOM     19  O   UNL     1       3.853   2.371  19.442  0.00  0.00    +0.000 OA
ENDBRANCH   1  19
BRANCH   6  20
ATOM     20  O   UNL     1       5.371   4.719  18.454  0.00  0.00    +0.000 OA
BRANCH  20  21
ATOM     21  C   UNL     1       5.537   5.159  17.112  0.00  0.00    +0.000 C 
ATOM     22  C   UNL     1       7.012   5.281  16.743  0.00  0.00    +0.000 C 
ATOM     23  C   UNL     1       7.099   4.920  15.269  0.00  0.00    +0.000 C 
ATOM     24  C   UNL     1       5.936   3.979  14.989  0.00  0.00    +0.000 C 
ATOM     25  C   UNL     1       5.030   4.026  16.210  0.00  0.00    +0.000 C 
ENDBRANCH  20  21
ENDBRANCH   6  20
TORSDOF 5
ENDMDL
MODEL 8
REMARK VINA RESULT:      -7.9      2.139      3.955
REMARK  Name = 
REMARK  6 active torsions:
REMARK  status: ('A' for Active; 'I' for Inactive)
REMARK    1  A    between atoms: C_1  and  O_2
REMARK    2  A    between atoms: O_2  and  C_3
REMARK    3  A    between atoms: C_6  and  C_7
REMARK    4  A    between atoms: C_10  and  C_11
REMARK    5  A    between atoms: C_19  and  O_20
REMARK    6  A    between atoms: O_20  and  C_21
REMARK                            x       y       z     vdW  Elec       q    Type
REMARK                         _______ _______ _______ _____ _____    ______ ____
ROOT
ATOM      1  C   UNL     1       3.523   4.058  19.640  0.00  0.00    +0.000 A 
ATOM      2  C   UNL     1       2.538   4.716  20.400  0.00  0.00    +0.000 A 
ATOM      3  C   UNL     1       2.132   6.015  20.086  0.00  0.00    +0.000 A 
ATOM      4  C   UNL     1       2.722   6.695  19.025  0.00  0.00    +0.000 A 
ATOM      5  C   UNL     1       3.784   6.081  18.347  0.00  0.00    +0.000 A 
ATOM      6  C   UNL     1       4.203   4.773  18.651  0.00  0.00    +0.000 A 
ENDROOT
BRANCH   4   7
ATOM      7  C   UNL     1       2.240   8.012  18.631  0.00  0.00    +0.000 A 
ATOM      8  N   UNL     1       2.515   8.585  17.450  0.00  0.00    +0.000 NA
ATOM      9  O   UNL     1       1.841   9.799  17.504  0.00  0.00    +0.000 OA
ATOM     10  C   UNL     1       1.214   9.847  18.716  0.00  0.00    +0.000 A 
ATOM     11  N   UNL     1       1.412   8.767  19.439  0.00  0.00    +0.000 NA
BRANCH  10  12
ATOM     12  C   UNL     1       0.466  11.052  19.015  0.00  0.00    +0.000 A 
ATOM     13  C   UNL     1      -0.925  11.127  18.900  0.00  0.00    +0.000 A 
ATOM     14  C   UNL     1      -1.584  12.325  19.171  0.00  0.00    +0.000 A 
ATOM     15  C   UNL     1      -0.829  13.417  19.559  0.00  0.00    +0.000 A 
ATOM     16  N   UNL     1       0.514  13.388  19.691  0.00  0.00    +0.000 NA
ATOM     17  C   UNL     1       1.129  12.210  19.416  0.00  0.00    +0.000 A 
ENDBRANCH  10  12
ENDBRANCH   4   7
BRANCH   1  19
ATOM     18  C   UNL     1       3.327   1.837  18.900  0.00  0.00    +0.000 C 
ATOM     19  O   UNL     1       3.830   2.747  19.879  0.00  0.00    +0.000 OA
ENDBRANCH   1  19
BRANCH   6  20
ATOM     20  O   UNL     1       5.283   4.412  17.903  0.00  0.00    +0.000 OA
BRANCH  20  21
ATOM     21  C   UNL     1       5.571   4.986  16.634  0.00  0.00    +0.000 C 
ATOM     22  C   UNL     1       7.071   5.002  16.355  0.00  0.00    +0.000 C 
ATOM     23  C   UNL     1       7.213   4.806  14.855  0.00  0.00    +0.000 C 
ATOM     24  C   UNL     1       5.987   4.025  14.406  0.00  0.00    +0.000 C 
ATOM     25  C   UNL     1       5.016   4.021  15.578  0.00  0.00    +0.000 C 
ENDBRANCH  20  21
ENDBRANCH   6  20
TORSDOF 5
ENDMDL
MODEL 9
REMARK VINA RESULT:      -7.9      1.646      3.630
REMARK  Name = 
REMARK  6 active torsions:
REMARK  status: ('A' for Active; 'I' for Inactive)
REMARK    1  A    between atoms: C_1  and  O_2
REMARK    2  A    between atoms: O_2  and  C_3
REMARK    3  A    between atoms: C_6  and  C_7
REMARK    4  A    between atoms: C_10  and  C_11
REMARK    5  A    between atoms: C_19  and  O_20
REMARK    6  A    between atoms: O_20  and  C_21
REMARK                            x       y       z     vdW  Elec       q    Type
REMARK                         _______ _______ _______ _____ _____    ______ ____
ROOT
ATOM      1  C   UNL     1       3.425   3.664  19.763  0.00  0.00    +0.000 A 
ATOM      2  C   UNL     1       2.299   4.094  20.488  0.00  0.00    +0.000 A 
ATOM      3  C   UNL     1       1.850   5.414  20.412  0.00  0.00    +0.000 A 
ATOM      4  C   UNL     1       2.535   6.342  19.632  0.00  0.00    +0.000 A 
ATOM      5  C   UNL     1       3.724   5.938  19.007  0.00  0.00    +0.000 A 
ATOM      6  C   UNL     1       4.187   4.612  19.074  0.00  0.00    +0.000 A 
ENDROOT
BRANCH   4   7
ATOM      7  C   UNL     1       2.023   7.695  19.470  0.00  0.00    +0.000 A 
ATOM      8  N   UNL     1       2.052   8.371  18.313  0.00  0.00    +0.000 NA
ATOM      9  O   UNL     1       1.446   9.583  18.621  0.00  0.00    +0.000 OA
ATOM     10  C   UNL     1       1.101   9.527  19.940  0.00  0.00    +0.000 A 
ATOM     11  N   UNL     1       1.417   8.382  20.504  0.00  0.00    +0.000 NA
BRANCH  10  12
ATOM     12  C   UNL     1       0.477  10.709  20.502  0.00  0.00    +0.000 A 
ATOM     13  C   UNL     1      -0.908  10.838  20.643  0.00  0.00    +0.000 A 
ATOM     14  C   UNL     1      -1.451  12.013  21.160  0.00  0.00    +0.000 A 
ATOM     15  C   UNL     1      -0.587  13.029  21.529  0.00  0.00    +0.000 A 
ATOM     16  N   UNL     1       0.756  12.945  21.418  0.00  0.00    +0.000 NA
ATOM     17  C   UNL     1       1.255  11.791  20.907  0.00  0.00    +0.000 A 
ENDBRANCH  10  12
ENDBRANCH   4   7
BRANCH   1  19
ATOM     18  C   UNL     1       3.388   1.638  18.574  0.00  0.00    +0.000 C 
ATOM     19  O   UNL     1       3.787   2.345  19.750  0.00  0.00    +0.000 OA
ENDBRANCH   1  19
BRANCH   6  20
ATOM     20  O   UNL     1       5.385   4.473  18.440  0.00  0.00    +0.000 OA
BRANCH  20  21
ATOM     21  C   UNL     1       5.652   5.030  17.159  0.00  0.00    +0.000 C 
ATOM     22  C   UNL     1       7.116   4.858  16.769  0.00  0.00    +0.000 C 
ATOM     23  C   UNL     1       7.122   4.676  15.260  0.00  0.00    +0.000 C 
ATOM     24  C   UNL     1       5.775   4.068  14.897  0.00  0.00    +0.000 C 
ATOM     25  C   UNL     1       4.900   4.166  16.138  0.00  0.00    +0.000 C 
ENDBRANCH  20  21
ENDBRANCH   6  20
TORSDOF 5
ENDMDL
