MODEL 1
REMARK VINA RESULT:      -2.8      0.000      0.000
REMARK  Name = 
REMARK  1 active torsions:
REMARK  status: ('A' for Active; 'I' for Inactive)
REMARK    1  A    between atoms: C_2  and  C_3
REMARK                            x       y       z     vdW  Elec       q    Type
REMARK                         _______ _______ _______ _____ _____    ______ ____
ROOT
ATOM      1  C   UNL     1       6.944   5.438  16.559  0.00  0.00    +0.000 C 
ATOM      2  C   UNL     1       7.375   4.781  17.846  0.00  0.00    +0.000 C 
ATOM      3  O   UNL     1       7.944   4.411  16.585  0.00  0.00    +0.000 OA
ENDROOT
BRANCH   1   5
ATOM      4 BR   UNL     1       6.131   4.107  14.217  0.00  0.00    +0.000 Br
ATOM      5  C   UNL     1       5.691   5.055  15.860  0.00  0.00    +0.000 C 
ENDBRANCH   1   5
TORSDOF 1
ENDMDL
MODEL 2
REMARK VINA RESULT:      -2.8      2.504      2.835
REMARK  Name = 
REMARK  1 active torsions:
REMARK  status: ('A' for Active; 'I' for Inactive)
REMARK    1  A    between atoms: C_2  and  C_3
REMARK                            x       y       z     vdW  Elec       q    Type
REMARK                         _______ _______ _______ _____ _____    ______ ____
ROOT
ATOM      1  C   UNL     1       6.930   4.798  15.818  0.00  0.00    +0.000 C 
ATOM      2  C   UNL     1       6.604   4.477  14.382  0.00  0.00    +0.000 C 
ATOM      3  O   UNL     1       7.678   5.358  14.731  0.00  0.00    +0.000 OA
ENDROOT
BRANCH   1   5
ATOM      4 BR   UNL     1       7.372   6.985  17.533  0.00  0.00    +0.000 Br
ATOM      5  C   UNL     1       6.149   5.791  16.601  0.00  0.00    +0.000 C 
ENDBRANCH   1   5
TORSDOF 1
ENDMDL
MODEL 3
REMARK VINA RESULT:      -2.8      6.966      7.029
REMARK  Name = 
REMARK  1 active torsions:
REMARK  status: ('A' for Active; 'I' for Inactive)
REMARK    1  A    between atoms: C_2  and  C_3
REMARK                            x       y       z     vdW  Elec       q    Type
REMARK                         _______ _______ _______ _____ _____    ______ ____
ROOT
ATOM      1  C   UNL     1       1.496   2.650  20.643  0.00  0.00    +0.000 C 
ATOM      2  C   UNL     1       2.721   2.632  21.521  0.00  0.00    +0.000 C 
ATOM      3  O   UNL     1       1.399   2.626  22.073  0.00  0.00    +0.000 OA
ENDROOT
BRANCH   1   5
ATOM      4 BR   UNL     1       1.576   3.970  18.159  0.00  0.00    +0.000 Br
ATOM      5  C   UNL     1       0.993   3.899  20.015  0.00  0.00    +0.000 C 
ENDBRANCH   1   5
TORSDOF 1
ENDMDL
MODEL 4
REMARK VINA RESULT:      -2.8      1.059      1.210
REMARK  Name = 
REMARK  1 active torsions:
REMARK  status: ('A' for Active; 'I' for Inactive)
REMARK    1  A    between atoms: C_2  and  C_3
REMARK                            x       y       z     vdW  Elec       q    Type
REMARK                         _______ _______ _______ _____ _____    ______ ____
ROOT
ATOM      1  C   UNL     1       7.076   4.866  15.443  0.00  0.00    +0.000 C 
ATOM      2  C   UNL     1       6.973   5.562  16.776  0.00  0.00    +0.000 C 
ATOM      3  O   UNL     1       7.865   4.460  16.569  0.00  0.00    +0.000 OA
ENDROOT
BRANCH   1   5
ATOM      4 BR   UNL     1       6.119   3.717  13.059  0.00  0.00    +0.000 Br
ATOM      5  C   UNL     1       6.076   3.860  15.000  0.00  0.00    +0.000 C 
ENDBRANCH   1   5
TORSDOF 1
ENDMDL
MODEL 5
REMARK VINA RESULT:      -2.7      6.312      6.564
REMARK  Name = 
REMARK  1 active torsions:
REMARK  status: ('A' for Active; 'I' for Inactive)
REMARK    1  A    between atoms: C_2  and  C_3
REMARK                            x       y       z     vdW  Elec       q    Type
REMARK                         _______ _______ _______ _____ _____    ______ ____
ROOT
ATOM      1  C   UNL     1       2.146   3.243  18.736  0.00  0.00    +0.000 C 
ATOM      2  C   UNL     1       2.710   2.242  17.761  0.00  0.00    +0.000 C 
ATOM      3  O   UNL     1       1.839   3.297  17.337  0.00  0.00    +0.000 OA
ENDROOT
BRANCH   1   5
ATOM      4 BR   UNL     1       1.580   2.789  21.456  0.00  0.00    +0.000 Br
ATOM      5  C   UNL     1       0.984   2.928  19.607  0.00  0.00    +0.000 C 
ENDBRANCH   1   5
TORSDOF 1
ENDMDL
MODEL 6
REMARK VINA RESULT:      -2.7      6.346      6.641
REMARK  Name = 
REMARK  1 active torsions:
REMARK  status: ('A' for Active; 'I' for Inactive)
REMARK    1  A    between atoms: C_2  and  C_3
REMARK                            x       y       z     vdW  Elec       q    Type
REMARK                         _______ _______ _______ _____ _____    ______ ____
ROOT
ATOM      1  C   UNL     1       1.373   3.880  18.884  0.00  0.00    +0.000 C 
ATOM      2  C   UNL     1       2.365   4.536  17.958  0.00  0.00    +0.000 C 
ATOM      3  O   UNL     1       1.215   3.843  17.460  0.00  0.00    +0.000 OA
ENDROOT
BRANCH   1   5
ATOM      4 BR   UNL     1       1.660   2.747  21.444  0.00  0.00    +0.000 Br
ATOM      5  C   UNL     1       1.631   2.556  19.506  0.00  0.00    +0.000 C 
ENDBRANCH   1   5
TORSDOF 1
ENDMDL
MODEL 7
REMARK VINA RESULT:      -2.7      1.567      1.690
REMARK  Name = 
REMARK  1 active torsions:
REMARK  status: ('A' for Active; 'I' for Inactive)
REMARK    1  A    between atoms: C_2  and  C_3
REMARK                            x       y       z     vdW  Elec       q    Type
REMARK                         _______ _______ _______ _____ _____    ______ ____
ROOT
ATOM      1  C   UNL     1       6.743   5.938  17.097  0.00  0.00    +0.000 C 
ATOM      2  C   UNL     1       7.631   6.722  18.030  0.00  0.00    +0.000 C 
ATOM      3  O   UNL     1       7.648   6.939  16.614  0.00  0.00    +0.000 OA
ENDROOT
BRANCH   1   5
ATOM      4 BR   UNL     1       6.262   4.202  14.934  0.00  0.00    +0.000 Br
ATOM      5  C   UNL     1       7.074   4.555  16.669  0.00  0.00    +0.000 C 
ENDBRANCH   1   5
TORSDOF 1
ENDMDL
MODEL 8
REMARK VINA RESULT:      -2.7      5.672      5.872
REMARK  Name = 
REMARK  1 active torsions:
REMARK  status: ('A' for Active; 'I' for Inactive)
REMARK    1  A    between atoms: C_2  and  C_3
REMARK                            x       y       z     vdW  Elec       q    Type
REMARK                         _______ _______ _______ _____ _____    ______ ____
ROOT
ATOM      1  C   UNL     1       3.533   2.529  19.819  0.00  0.00    +0.000 C 
ATOM      2  C   UNL     1       4.672   3.401  19.355  0.00  0.00    +0.000 C 
ATOM      3  O   UNL     1       4.895   2.233  20.154  0.00  0.00    +0.000 OA
ENDROOT
BRANCH   1   5
ATOM      4 BR   UNL     1       1.052   3.751  20.344  0.00  0.00    +0.000 Br
ATOM      5  C   UNL     1       2.682   2.895  20.980  0.00  0.00    +0.000 C 
ENDBRANCH   1   5
TORSDOF 1
ENDMDL
MODEL 9
REMARK VINA RESULT:      -2.7      1.132      1.144
REMARK  Name = 
REMARK  1 active torsions:
REMARK  status: ('A' for Active; 'I' for Inactive)
REMARK    1  A    between atoms: C_2  and  C_3
REMARK                            x       y       z     vdW  Elec       q    Type
REMARK                         _______ _______ _______ _____ _____    ______ ____
ROOT
ATOM      1  C   UNL     1       7.341   4.674  16.971  0.00  0.00    +0.000 C 
ATOM      2  C   UNL     1       7.430   5.793  17.978  0.00  0.00    +0.000 C 
ATOM      3  O   UNL     1       7.506   4.417  18.372  0.00  0.00    +0.000 OA
ENDROOT
BRANCH   1   5
ATOM      4 BR   UNL     1       6.178   4.100  14.473  0.00  0.00    +0.000 Br
ATOM      5  C   UNL     1       6.043   4.217  16.412  0.00  0.00    +0.000 C 
ENDBRANCH   1   5
TORSDOF 1
ENDMDL
