MODEL 1
REMARK VINA RESULT:      -8.1      0.000      0.000
REMARK  Name = 
REMARK  7 active torsions:
REMARK  status: ('A' for Active; 'I' for Inactive)
REMARK    1  A    between atoms: C_1  and  O_2
REMARK    2  A    between atoms: O_2  and  C_3
REMARK    3  A    between atoms: C_6  and  C_7
REMARK    4  A    between atoms: C_7  and  C_9
REMARK    5  A    between atoms: C_9  and  C_10
REMARK    6  A    between atoms: C_10  and  C_11
REMARK    7  A    between atoms: C_10  and  C_17
REMARK                            x       y       z     vdW  Elec       q    Type
REMARK                         _______ _______ _______ _____ _____    ______ ____
ROOT
ATOM      1  C   UNL     1       3.084   5.893  19.186  0.00  0.00    +0.000 C 
ENDROOT
BRANCH   1   2
ATOM      2  C   UNL     1       2.509   7.114  19.972  0.00  0.00    +0.000 C 
ATOM      3  C   UNL     1       1.360   6.766  20.958  0.00  0.00    +0.000 C 
ATOM      4  C   UNL     1       0.908   8.040  21.676  0.00  0.00    +0.000 C 
ATOM      5  C   UNL     1       0.277   9.039  20.689  0.00  0.00    +0.000 C 
ATOM      6  C   UNL     1       1.058   9.133  19.412  0.00  0.00    +0.000 A 
ATOM      7 SE   UNL     1       0.732  10.348  18.113  0.00  0.00    +0.000 Se
ATOM      8  N   UNL     1       2.118   9.587  17.266  0.00  0.00    +0.000 NA
ATOM      9  N   UNL     1       2.662   8.560  17.900  0.00  0.00    +0.000 NA
ATOM     10  C   UNL     1       2.083   8.266  19.076  0.00  0.00    +0.000 A 
ENDBRANCH   1   2
BRANCH   1  11
ATOM     11  C   UNL     1       2.266   4.607  19.346  0.00  0.00    +0.000 A 
ATOM     12  C   UNL     1       1.578   4.016  18.261  0.00  0.00    +0.000 A 
ATOM     13  C   UNL     1       0.793   2.873  18.451  0.00  0.00    +0.000 A 
ATOM     14  C   UNL     1       0.703   2.287  19.713  0.00  0.00    +0.000 A 
ATOM     15  C   UNL     1       1.382   2.850  20.793  0.00  0.00    +0.000 A 
ATOM     16  C   UNL     1       2.146   4.008  20.616  0.00  0.00    +0.000 A 
ENDBRANCH   1  11
BRANCH   1  17
ATOM     17  C   UNL     1       4.601   5.655  19.486  0.00  0.00    +0.000 C 
BRANCH  17  18
ATOM     18  C   UNL     1       5.160   4.416  18.804  0.00  0.00    +0.000 C 
ATOM     19  O   UNL     1       5.245   3.380  19.441  0.00  0.00    +0.000 OA
BRANCH  18  23
ATOM     20  C   UNL     1       6.472   4.461  14.683  0.00  0.00    +0.000 A 
ATOM     21  C   UNL     1       7.303   4.912  15.725  0.00  0.00    +0.000 A 
ATOM     22  C   UNL     1       6.858   4.897  17.043  0.00  0.00    +0.000 A 
ATOM     23  C   UNL     1       5.581   4.409  17.369  0.00  0.00    +0.000 A 
ATOM     24  C   UNL     1       4.754   3.943  16.331  0.00  0.00    +0.000 A 
ATOM     25  C   UNL     1       5.193   3.980  15.001  0.00  0.00    +0.000 A 
BRANCH  20  27
ATOM     26  C   UNL     1       6.380   3.641  12.393  0.00  0.00    +0.000 C 
ATOM     27  O   UNL     1       6.871   4.473  13.384  0.00  0.00    +0.000 OA
ENDBRANCH  20  27
ENDBRANCH  18  23
ENDBRANCH  17  18
ENDBRANCH   1  17
TORSDOF 6
ENDMDL
MODEL 2
REMARK VINA RESULT:      -8.0      2.570      4.364
REMARK  Name = 
REMARK  7 active torsions:
REMARK  status: ('A' for Active; 'I' for Inactive)
REMARK    1  A    between atoms: C_1  and  O_2
REMARK    2  A    between atoms: O_2  and  C_3
REMARK    3  A    between atoms: C_6  and  C_7
REMARK    4  A    between atoms: C_7  and  C_9
REMARK    5  A    between atoms: C_9  and  C_10
REMARK    6  A    between atoms: C_10  and  C_11
REMARK    7  A    between atoms: C_10  and  C_17
REMARK                            x       y       z     vdW  Elec       q    Type
REMARK                         _______ _______ _______ _____ _____    ______ ____
ROOT
ATOM      1  C   UNL     1       3.665   6.215  19.234  0.00  0.00    +0.000 C 
ENDROOT
BRANCH   1   2
ATOM      2  C   UNL     1       3.050   4.830  18.854  0.00  0.00    +0.000 C 
ATOM      3  C   UNL     1       1.923   4.893  17.787  0.00  0.00    +0.000 C 
ATOM      4  C   UNL     1       1.428   3.475  17.492  0.00  0.00    +0.000 C 
ATOM      5  C   UNL     1       0.752   2.854  18.728  0.00  0.00    +0.000 C 
ATOM      6  C   UNL     1       1.518   3.136  19.986  0.00  0.00    +0.000 A 
ATOM      7 SE   UNL     1       1.136   2.398  21.591  0.00  0.00    +0.000 Se
ATOM      8  N   UNL     1       2.544   3.337  22.186  0.00  0.00    +0.000 NA
ATOM      9  N   UNL     1       3.132   4.096  21.275  0.00  0.00    +0.000 NA
ATOM     10  C   UNL     1       2.573   4.030  20.055  0.00  0.00    +0.000 A 
ENDBRANCH   1   2
BRANCH   1  11
ATOM     11  C   UNL     1       2.691   7.390  19.093  0.00  0.00    +0.000 A 
ATOM     12  C   UNL     1       2.615   8.163  17.911  0.00  0.00    +0.000 A 
ATOM     13  C   UNL     1       1.756   9.264  17.833  0.00  0.00    +0.000 A 
ATOM     14  C   UNL     1       0.943   9.597  18.916  0.00  0.00    +0.000 A 
ATOM     15  C   UNL     1       0.997   8.841  20.086  0.00  0.00    +0.000 A 
ATOM     16  C   UNL     1       1.873   7.755  20.181  0.00  0.00    +0.000 A 
ENDBRANCH   1  11
BRANCH   1  17
ATOM     17  C   UNL     1       5.013   6.490  18.488  0.00  0.00    +0.000 C 
BRANCH  17  18
ATOM     18  C   UNL     1       5.754   5.220  18.100  0.00  0.00    +0.000 C 
ATOM     19  O   UNL     1       6.205   4.508  18.980  0.00  0.00    +0.000 OA
BRANCH  18  23
ATOM     20  C   UNL     1       6.333   4.061  13.973  0.00  0.00    +0.000 A 
ATOM     21  C   UNL     1       7.249   4.897  14.638  0.00  0.00    +0.000 A 
ATOM     22  C   UNL     1       7.039   5.265  15.964  0.00  0.00    +0.000 A 
ATOM     23  C   UNL     1       5.925   4.792  16.677  0.00  0.00    +0.000 A 
ATOM     24  C   UNL     1       5.015   3.944  16.019  0.00  0.00    +0.000 A 
ATOM     25  C   UNL     1       5.213   3.593  14.677  0.00  0.00    +0.000 A 
BRANCH  20  27
ATOM     26  C   UNL     1       5.530   3.108  11.883  0.00  0.00    +0.000 C 
ATOM     27  O   UNL     1       6.501   3.693  12.676  0.00  0.00    +0.000 OA
ENDBRANCH  20  27
ENDBRANCH  18  23
ENDBRANCH  17  18
ENDBRANCH   1  17
TORSDOF 6
ENDMDL
MODEL 3
REMARK VINA RESULT:      -7.9      0.481      1.048
REMARK  Name = 
REMARK  7 active torsions:
REMARK  status: ('A' for Active; 'I' for Inactive)
REMARK    1  A    between atoms: C_1  and  O_2
REMARK    2  A    between atoms: O_2  and  C_3
REMARK    3  A    between atoms: C_6  and  C_7
REMARK    4  A    between atoms: C_7  and  C_9
REMARK    5  A    between atoms: C_9  and  C_10
REMARK    6  A    between atoms: C_10  and  C_11
REMARK    7  A    between atoms: C_10  and  C_17
REMARK                            x       y       z     vdW  Elec       q    Type
REMARK                         _______ _______ _______ _____ _____    ______ ____
ROOT
ATOM      1  C   UNL     1       3.031   5.914  19.264  0.00  0.00    +0.000 C 
ENDROOT
BRANCH   1   2
ATOM      2  C   UNL     1       2.476   7.156  20.031  0.00  0.00    +0.000 C 
ATOM      3  C   UNL     1       1.316   6.843  21.016  0.00  0.00    +0.000 C 
ATOM      4  C   UNL     1       0.885   8.135  21.713  0.00  0.00    +0.000 C 
ATOM      5  C   UNL     1       0.276   9.132  20.710  0.00  0.00    +0.000 C 
ATOM      6  C   UNL     1       1.064   9.193  19.435  0.00  0.00    +0.000 A 
ATOM      7 SE   UNL     1       0.766  10.395  18.118  0.00  0.00    +0.000 Se
ATOM      8  N   UNL     1       2.142   9.596  17.288  0.00  0.00    +0.000 NA
ATOM      9  N   UNL     1       2.664   8.569  17.939  0.00  0.00    +0.000 NA
ATOM     10  C   UNL     1       2.074   8.302  19.116  0.00  0.00    +0.000 A 
ENDBRANCH   1   2
BRANCH   1  11
ATOM     11  C   UNL     1       2.216   4.633  19.477  0.00  0.00    +0.000 A 
ATOM     12  C   UNL     1       2.107   4.016  20.745  0.00  0.00    +0.000 A 
ATOM     13  C   UNL     1       1.403   2.817  20.897  0.00  0.00    +0.000 A 
ATOM     14  C   UNL     1       0.775   2.229  19.799  0.00  0.00    +0.000 A 
ATOM     15  C   UNL     1       0.863   2.828  18.543  0.00  0.00    +0.000 A 
ATOM     16  C   UNL     1       1.589   4.013  18.378  0.00  0.00    +0.000 A 
ENDBRANCH   1  11
BRANCH   1  17
ATOM     17  C   UNL     1       4.554   5.680  19.537  0.00  0.00    +0.000 C 
BRANCH  17  18
ATOM     18  C   UNL     1       5.110   4.456  18.828  0.00  0.00    +0.000 C 
ATOM     19  O   UNL     1       5.173   3.401  19.436  0.00  0.00    +0.000 OA
BRANCH  18  23
ATOM     20  C   UNL     1       6.494   4.597  14.732  0.00  0.00    +0.000 A 
ATOM     21  C   UNL     1       7.343   4.917  15.808  0.00  0.00    +0.000 A 
ATOM     22  C   UNL     1       6.875   4.873  17.118  0.00  0.00    +0.000 A 
ATOM     23  C   UNL     1       5.555   4.485  17.400  0.00  0.00    +0.000 A 
ATOM     24  C   UNL     1       4.707   4.151  16.328  0.00  0.00    +0.000 A 
ATOM     25  C   UNL     1       5.172   4.217  15.008  0.00  0.00    +0.000 A 
BRANCH  20  27
ATOM     26  C   UNL     1       8.035   5.317  12.992  0.00  0.00    +0.000 C 
ATOM     27  O   UNL     1       6.915   4.641  13.442  0.00  0.00    +0.000 OA
ENDBRANCH  20  27
ENDBRANCH  18  23
ENDBRANCH  17  18
ENDBRANCH   1  17
TORSDOF 6
ENDMDL
MODEL 4
REMARK VINA RESULT:      -7.9      0.147      1.313
REMARK  Name = 
REMARK  7 active torsions:
REMARK  status: ('A' for Active; 'I' for Inactive)
REMARK    1  A    between atoms: C_1  and  O_2
REMARK    2  A    between atoms: O_2  and  C_3
REMARK    3  A    between atoms: C_6  and  C_7
REMARK    4  A    between atoms: C_7  and  C_9
REMARK    5  A    between atoms: C_9  and  C_10
REMARK    6  A    between atoms: C_10  and  C_11
REMARK    7  A    between atoms: C_10  and  C_17
REMARK                            x       y       z     vdW  Elec       q    Type
REMARK                         _______ _______ _______ _____ _____    ______ ____
ROOT
ATOM      1  C   UNL     1       3.054   5.942  19.244  0.00  0.00    +0.000 C 
ENDROOT
BRANCH   1   2
ATOM      2  C   UNL     1       2.492   7.173  20.023  0.00  0.00    +0.000 C 
ATOM      3  C   UNL     1       1.352   6.841  21.024  0.00  0.00    +0.000 C 
ATOM      4  C   UNL     1       0.913   8.124  21.733  0.00  0.00    +0.000 C 
ATOM      5  C   UNL     1       0.275   9.115  20.742  0.00  0.00    +0.000 C 
ATOM      6  C   UNL     1       1.043   9.192  19.456  0.00  0.00    +0.000 A 
ATOM      7 SE   UNL     1       0.709  10.394  18.147  0.00  0.00    +0.000 Se
ATOM      8  N   UNL     1       2.083   9.618  17.294  0.00  0.00    +0.000 NA
ATOM      9  N   UNL     1       2.630   8.596  17.934  0.00  0.00    +0.000 NA
ATOM     10  C   UNL     1       2.061   8.317  19.119  0.00  0.00    +0.000 A 
ENDBRANCH   1   2
BRANCH   1  11
ATOM     11  C   UNL     1       2.224   4.665  19.414  0.00  0.00    +0.000 A 
ATOM     12  C   UNL     1       2.019   4.067  20.679  0.00  0.00    +0.000 A 
ATOM     13  C   UNL     1       1.304   2.870  20.796  0.00  0.00    +0.000 A 
ATOM     14  C   UNL     1       0.761   2.265  19.663  0.00  0.00    +0.000 A 
ATOM     15  C   UNL     1       0.945   2.844  18.408  0.00  0.00    +0.000 A 
ATOM     16  C   UNL     1       1.683   4.026  18.281  0.00  0.00    +0.000 A 
ENDBRANCH   1  11
BRANCH   1  17
ATOM     17  C   UNL     1       4.569   5.690  19.544  0.00  0.00    +0.000 C 
BRANCH  17  18
ATOM     18  C   UNL     1       5.120   4.451  18.857  0.00  0.00    +0.000 C 
ATOM     19  O   UNL     1       5.141   3.398  19.470  0.00  0.00    +0.000 OA
BRANCH  18  23
ATOM     20  C   UNL     1       6.457   4.405  14.743  0.00  0.00    +0.000 A 
ATOM     21  C   UNL     1       5.312   3.697  15.153  0.00  0.00    +0.000 A 
ATOM     22  C   UNL     1       4.904   3.718  16.484  0.00  0.00    +0.000 A 
ATOM     23  C   UNL     1       5.608   4.465  17.443  0.00  0.00    +0.000 A 
ATOM     24  C   UNL     1       6.745   5.186  17.034  0.00  0.00    +0.000 A 
ATOM     25  C   UNL     1       7.169   5.145  15.699  0.00  0.00    +0.000 A 
BRANCH  20  27
ATOM     26  C   UNL     1       6.335   3.645  12.435  0.00  0.00    +0.000 C 
ATOM     27  O   UNL     1       6.890   4.396  13.456  0.00  0.00    +0.000 OA
ENDBRANCH  20  27
ENDBRANCH  18  23
ENDBRANCH  17  18
ENDBRANCH   1  17
TORSDOF 6
ENDMDL
MODEL 5
REMARK VINA RESULT:      -7.9      3.491      7.349
REMARK  Name = 
REMARK  7 active torsions:
REMARK  status: ('A' for Active; 'I' for Inactive)
REMARK    1  A    between atoms: C_1  and  O_2
REMARK    2  A    between atoms: O_2  and  C_3
REMARK    3  A    between atoms: C_6  and  C_7
REMARK    4  A    between atoms: C_7  and  C_9
REMARK    5  A    between atoms: C_9  and  C_10
REMARK    6  A    between atoms: C_10  and  C_11
REMARK    7  A    between atoms: C_10  and  C_17
REMARK                            x       y       z     vdW  Elec       q    Type
REMARK                         _______ _______ _______ _____ _____    ______ ____
ROOT
ATOM      1  C   UNL     1       3.411   5.377  17.360  0.00  0.00    +0.000 C 
ENDROOT
BRANCH   1   2
ATOM      2  C   UNL     1       2.753   4.030  17.798  0.00  0.00    +0.000 C 
ATOM      3  C   UNL     1       1.243   4.130  18.146  0.00  0.00    +0.000 C 
ATOM      4  C   UNL     1       0.721   2.744  18.534  0.00  0.00    +0.000 C 
ATOM      5  C   UNL     1       1.381   2.245  19.832  0.00  0.00    +0.000 C 
ATOM      6  C   UNL     1       2.854   2.527  19.855  0.00  0.00    +0.000 A 
ATOM      7 SE   UNL     1       3.985   1.907  21.122  0.00  0.00    +0.000 Se
ATOM      8  N   UNL     1       5.257   2.757  20.186  0.00  0.00    +0.000 NA
ATOM      9  N   UNL     1       4.820   3.417  19.125  0.00  0.00    +0.000 NA
ATOM     10  C   UNL     1       3.493   3.334  18.929  0.00  0.00    +0.000 A 
ENDBRANCH   1   2
BRANCH   1  11
ATOM     11  C   UNL     1       4.777   5.213  16.685  0.00  0.00    +0.000 A 
ATOM     12  C   UNL     1       5.005   4.244  15.680  0.00  0.00    +0.000 A 
ATOM     13  C   UNL     1       6.277   4.079  15.122  0.00  0.00    +0.000 A 
ATOM     14  C   UNL     1       7.334   4.892  15.535  0.00  0.00    +0.000 A 
ATOM     15  C   UNL     1       7.126   5.859  16.518  0.00  0.00    +0.000 A 
ATOM     16  C   UNL     1       5.863   6.010  17.099  0.00  0.00    +0.000 A 
ENDBRANCH   1  11
BRANCH   1  17
ATOM     17  C   UNL     1       3.464   6.419  18.526  0.00  0.00    +0.000 C 
BRANCH  17  18
ATOM     18  C   UNL     1       2.746   7.719  18.203  0.00  0.00    +0.000 C 
ATOM     19  O   UNL     1       2.895   8.216  17.100  0.00  0.00    +0.000 OA
BRANCH  18  23
ATOM     20  C   UNL     1       0.102   9.773  20.941  0.00  0.00    +0.000 A 
ATOM     21  C   UNL     1       0.290  10.224  19.622  0.00  0.00    +0.000 A 
ATOM     22  C   UNL     1       1.152   9.553  18.760  0.00  0.00    +0.000 A 
ATOM     23  C   UNL     1       1.834   8.398  19.176  0.00  0.00    +0.000 A 
ATOM     24  C   UNL     1       1.638   7.936  20.490  0.00  0.00    +0.000 A 
ATOM     25  C   UNL     1       0.788   8.625  21.365  0.00  0.00    +0.000 A 
BRANCH  20  27
ATOM     26  C   UNL     1      -0.779  10.174  23.174  0.00  0.00    +0.000 C 
ATOM     27  O   UNL     1      -0.722  10.411  21.812  0.00  0.00    +0.000 OA
ENDBRANCH  20  27
ENDBRANCH  18  23
ENDBRANCH  17  18
ENDBRANCH   1  17
TORSDOF 6
ENDMDL
MODEL 6
REMARK VINA RESULT:      -7.9      0.457      1.032
REMARK  Name = 
REMARK  7 active torsions:
REMARK  status: ('A' for Active; 'I' for Inactive)
REMARK    1  A    between atoms: C_1  and  O_2
REMARK    2  A    between atoms: O_2  and  C_3
REMARK    3  A    between atoms: C_6  and  C_7
REMARK    4  A    between atoms: C_7  and  C_9
REMARK    5  A    between atoms: C_9  and  C_10
REMARK    6  A    between atoms: C_10  and  C_11
REMARK    7  A    between atoms: C_10  and  C_17
REMARK                            x       y       z     vdW  Elec       q    Type
REMARK                         _______ _______ _______ _____ _____    ______ ____
ROOT
ATOM      1  C   UNL     1       3.102   5.857  19.221  0.00  0.00    +0.000 C 
ENDROOT
BRANCH   1   2
ATOM      2  C   UNL     1       2.526   7.081  20.003  0.00  0.00    +0.000 C 
ATOM      3  C   UNL     1       1.362   6.739  20.973  0.00  0.00    +0.000 C 
ATOM      4  C   UNL     1       0.910   8.015  21.688  0.00  0.00    +0.000 C 
ATOM      5  C   UNL     1       0.299   9.021  20.695  0.00  0.00    +0.000 C 
ATOM      6  C   UNL     1       1.098   9.112  19.429  0.00  0.00    +0.000 A 
ATOM      7 SE   UNL     1       0.798  10.332  18.129  0.00  0.00    +0.000 Se
ATOM      8  N   UNL     1       2.190   9.562  17.298  0.00  0.00    +0.000 NA
ATOM      9  N   UNL     1       2.718   8.530  17.937  0.00  0.00    +0.000 NA
ATOM     10  C   UNL     1       2.121   8.237  19.104  0.00  0.00    +0.000 A 
ENDBRANCH   1   2
BRANCH   1  11
ATOM     11  C   UNL     1       2.290   4.569  19.394  0.00  0.00    +0.000 A 
ATOM     12  C   UNL     1       1.585   3.979  18.320  0.00  0.00    +0.000 A 
ATOM     13  C   UNL     1       0.806   2.834  18.521  0.00  0.00    +0.000 A 
ATOM     14  C   UNL     1       0.739   2.244  19.783  0.00  0.00    +0.000 A 
ATOM     15  C   UNL     1       1.435   2.807  20.852  0.00  0.00    +0.000 A 
ATOM     16  C   UNL     1       2.194   3.967  20.664  0.00  0.00    +0.000 A 
ENDBRANCH   1  11
BRANCH   1  17
ATOM     17  C   UNL     1       4.622   5.627  19.516  0.00  0.00    +0.000 C 
BRANCH  17  18
ATOM     18  C   UNL     1       5.194   4.413  18.800  0.00  0.00    +0.000 C 
ATOM     19  O   UNL     1       5.246   3.350  19.393  0.00  0.00    +0.000 OA
BRANCH  18  23
ATOM     20  C   UNL     1       6.461   4.513  14.666  0.00  0.00    +0.000 A 
ATOM     21  C   UNL     1       5.135   4.209  15.022  0.00  0.00    +0.000 A 
ATOM     22  C   UNL     1       4.750   4.173  16.359  0.00  0.00    +0.000 A 
ATOM     23  C   UNL     1       5.668   4.465  17.382  0.00  0.00    +0.000 A 
ATOM     24  C   UNL     1       6.991   4.784  17.029  0.00  0.00    +0.000 A 
ATOM     25  C   UNL     1       7.384   4.796  15.684  0.00  0.00    +0.000 A 
BRANCH  20  27
ATOM     26  C   UNL     1       7.935   5.289  12.892  0.00  0.00    +0.000 C 
ATOM     27  O   UNL     1       6.873   4.544  13.372  0.00  0.00    +0.000 OA
ENDBRANCH  20  27
ENDBRANCH  18  23
ENDBRANCH  17  18
ENDBRANCH   1  17
TORSDOF 6
ENDMDL
MODEL 7
REMARK VINA RESULT:      -7.8      3.423      7.143
REMARK  Name = 
REMARK  7 active torsions:
REMARK  status: ('A' for Active; 'I' for Inactive)
REMARK    1  A    between atoms: C_1  and  O_2
REMARK    2  A    between atoms: O_2  and  C_3
REMARK    3  A    between atoms: C_6  and  C_7
REMARK    4  A    between atoms: C_7  and  C_9
REMARK    5  A    between atoms: C_9  and  C_10
REMARK    6  A    between atoms: C_10  and  C_11
REMARK    7  A    between atoms: C_10  and  C_17
REMARK                            x       y       z     vdW  Elec       q    Type
REMARK                         _______ _______ _______ _____ _____    ______ ____
ROOT
ATOM      1  C   UNL     1       3.195   5.777  18.342  0.00  0.00    +0.000 C 
ENDROOT
BRANCH   1   2
ATOM      2  C   UNL     1       4.438   5.763  17.397  0.00  0.00    +0.000 C 
ATOM      3  C   UNL     1       4.314   4.807  16.179  0.00  0.00    +0.000 C 
ATOM      4  C   UNL     1       5.581   4.908  15.327  0.00  0.00    +0.000 C 
ATOM      5  C   UNL     1       6.810   4.390  16.096  0.00  0.00    +0.000 C 
ATOM      6  C   UNL     1       6.821   4.866  17.519  0.00  0.00    +0.000 A 
ATOM      7 SE   UNL     1       8.205   4.626  18.656  0.00  0.00    +0.000 Se
ATOM      8  N   UNL     1       7.189   5.515  19.838  0.00  0.00    +0.000 NA
ATOM      9  N   UNL     1       5.994   5.867  19.390  0.00  0.00    +0.000 NA
ATOM     10  C   UNL     1       5.748   5.499  18.122  0.00  0.00    +0.000 A 
ENDBRANCH   1   2
BRANCH   1  11
ATOM     11  C   UNL     1       2.711   4.383  18.757  0.00  0.00    +0.000 A 
ATOM     12  C   UNL     1       3.502   3.520  19.550  0.00  0.00    +0.000 A 
ATOM     13  C   UNL     1       3.057   2.231  19.865  0.00  0.00    +0.000 A 
ATOM     14  C   UNL     1       1.811   1.792  19.419  0.00  0.00    +0.000 A 
ATOM     15  C   UNL     1       1.013   2.631  18.642  0.00  0.00    +0.000 A 
ATOM     16  C   UNL     1       1.463   3.911  18.301  0.00  0.00    +0.000 A 
ENDBRANCH   1  11
BRANCH   1  17
ATOM     17  C   UNL     1       2.026   6.649  17.774  0.00  0.00    +0.000 C 
BRANCH  17  18
ATOM     18  C   UNL     1       2.192   8.133  18.059  0.00  0.00    +0.000 C 
ATOM     19  O   UNL     1       2.767   8.829  17.240  0.00  0.00    +0.000 OA
BRANCH  18  23
ATOM     20  C   UNL     1       0.619  10.113  21.569  0.00  0.00    +0.000 A 
ATOM     21  C   UNL     1       0.689  10.765  20.324  0.00  0.00    +0.000 A 
ATOM     22  C   UNL     1       1.207  10.113  19.209  0.00  0.00    +0.000 A 
ATOM     23  C   UNL     1       1.648   8.782  19.292  0.00  0.00    +0.000 A 
ATOM     24  C   UNL     1       1.567   8.121  20.531  0.00  0.00    +0.000 A 
ATOM     25  C   UNL     1       1.067   8.786  21.659  0.00  0.00    +0.000 A 
BRANCH  20  27
ATOM     26  C   UNL     1      -1.119  10.499  23.227  0.00  0.00    +0.000 C 
ATOM     27  O   UNL     1       0.132  10.724  22.679  0.00  0.00    +0.000 OA
ENDBRANCH  20  27
ENDBRANCH  18  23
ENDBRANCH  17  18
ENDBRANCH   1  17
TORSDOF 6
ENDMDL
MODEL 8
REMARK VINA RESULT:      -7.8      2.900      4.784
REMARK  Name = 
REMARK  7 active torsions:
REMARK  status: ('A' for Active; 'I' for Inactive)
REMARK    1  A    between atoms: C_1  and  O_2
REMARK    2  A    between atoms: O_2  and  C_3
REMARK    3  A    between atoms: C_6  and  C_7
REMARK    4  A    between atoms: C_7  and  C_9
REMARK    5  A    between atoms: C_9  and  C_10
REMARK    6  A    between atoms: C_10  and  C_11
REMARK    7  A    between atoms: C_10  and  C_17
REMARK                            x       y       z     vdW  Elec       q    Type
REMARK                         _______ _______ _______ _____ _____    ______ ____
ROOT
ATOM      1  C   UNL     1       3.842   6.370  17.930  0.00  0.00    +0.000 C 
ENDROOT
BRANCH   1   2
ATOM      2  C   UNL     1       3.243   4.934  17.789  0.00  0.00    +0.000 C 
ATOM      3  C   UNL     1       1.694   4.867  17.877  0.00  0.00    +0.000 C 
ATOM      4  C   UNL     1       1.240   3.416  17.700  0.00  0.00    +0.000 C 
ATOM      5  C   UNL     1       1.728   2.536  18.865  0.00  0.00    +0.000 C 
ATOM      6  C   UNL     1       3.149   2.839  19.238  0.00  0.00    +0.000 A 
ATOM      7 SE   UNL     1       4.115   1.869  20.418  0.00  0.00    +0.000 Se
ATOM      8  N   UNL     1       5.440   3.019  20.046  0.00  0.00    +0.000 NA
ATOM      9  N   UNL     1       5.120   3.980  19.193  0.00  0.00    +0.000 NA
ATOM     10  C   UNL     1       3.853   3.926  18.749  0.00  0.00    +0.000 A 
ENDBRANCH   1   2
BRANCH   1  11
ATOM     11  C   UNL     1       2.845   7.413  18.447  0.00  0.00    +0.000 A 
ATOM     12  C   UNL     1       2.424   8.505  17.653  0.00  0.00    +0.000 A 
ATOM     13  C   UNL     1       1.557   9.473  18.172  0.00  0.00    +0.000 A 
ATOM     14  C   UNL     1       1.075   9.355  19.476  0.00  0.00    +0.000 A 
ATOM     15  C   UNL     1       1.472   8.280  20.271  0.00  0.00    +0.000 A 
ATOM     16  C   UNL     1       2.360   7.324  19.767  0.00  0.00    +0.000 A 
ENDBRANCH   1  11
BRANCH   1  17
ATOM     17  C   UNL     1       4.552   6.848  16.620  0.00  0.00    +0.000 C 
BRANCH  17  18
ATOM     18  C   UNL     1       5.848   6.107  16.335  0.00  0.00    +0.000 C 
ATOM     19  O   UNL     1       6.742   6.143  17.163  0.00  0.00    +0.000 OA
BRANCH  18  23
ATOM     20  C   UNL     1       6.357   3.730  12.756  0.00  0.00    +0.000 A 
ATOM     21  C   UNL     1       5.150   3.723  13.480  0.00  0.00    +0.000 A 
ATOM     22  C   UNL     1       5.011   4.488  14.634  0.00  0.00    +0.000 A 
ATOM     23  C   UNL     1       6.059   5.305  15.090  0.00  0.00    +0.000 A 
ATOM     24  C   UNL     1       7.262   5.326  14.361  0.00  0.00    +0.000 A 
ATOM     25  C   UNL     1       7.410   4.538  13.212  0.00  0.00    +0.000 A 
BRANCH  20  27
ATOM     26  C   UNL     1       6.275   1.631  11.529  0.00  0.00    +0.000 C 
ATOM     27  O   UNL     1       6.531   2.987  11.634  0.00  0.00    +0.000 OA
ENDBRANCH  20  27
ENDBRANCH  18  23
ENDBRANCH  17  18
ENDBRANCH   1  17
TORSDOF 6
ENDMDL
MODEL 9
REMARK VINA RESULT:      -7.7      3.436      7.206
REMARK  Name = 
REMARK  7 active torsions:
REMARK  status: ('A' for Active; 'I' for Inactive)
REMARK    1  A    between atoms: C_1  and  O_2
REMARK    2  A    between atoms: O_2  and  C_3
REMARK    3  A    between atoms: C_6  and  C_7
REMARK    4  A    between atoms: C_7  and  C_9
REMARK    5  A    between atoms: C_9  and  C_10
REMARK    6  A    between atoms: C_10  and  C_11
REMARK    7  A    between atoms: C_10  and  C_17
REMARK                            x       y       z     vdW  Elec       q    Type
REMARK                         _______ _______ _______ _____ _____    ______ ____
ROOT
ATOM      1  C   UNL     1       3.268   5.898  18.317  0.00  0.00    +0.000 C 
ENDROOT
BRANCH   1   2
ATOM      2  C   UNL     1       4.519   5.859  17.383  0.00  0.00    +0.000 C 
ATOM      3  C   UNL     1       4.386   4.907  16.162  0.00  0.00    +0.000 C 
ATOM      4  C   UNL     1       5.663   4.982  15.323  0.00  0.00    +0.000 C 
ATOM      5  C   UNL     1       6.873   4.437  16.103  0.00  0.00    +0.000 C 
ATOM      6  C   UNL     1       6.881   4.911  17.526  0.00  0.00    +0.000 A 
ATOM      7 SE   UNL     1       8.249   4.641  18.676  0.00  0.00    +0.000 Se
ATOM      8  N   UNL     1       7.241   5.550  19.849  0.00  0.00    +0.000 NA
ATOM      9  N   UNL     1       6.058   5.928  19.391  0.00  0.00    +0.000 NA
ATOM     10  C   UNL     1       5.816   5.567  18.120  0.00  0.00    +0.000 A 
ENDBRANCH   1   2
BRANCH   1  11
ATOM     11  C   UNL     1       2.745   4.514  18.717  0.00  0.00    +0.000 A 
ATOM     12  C   UNL     1       1.521   4.005  18.226  0.00  0.00    +0.000 A 
ATOM     13  C   UNL     1       1.041   2.762  18.654  0.00  0.00    +0.000 A 
ATOM     14  C   UNL     1       1.783   1.997  19.554  0.00  0.00    +0.000 A 
ATOM     15  C   UNL     1       2.997   2.479  20.042  0.00  0.00    +0.000 A 
ATOM     16  C   UNL     1       3.469   3.733  19.640  0.00  0.00    +0.000 A 
ENDBRANCH   1  11
BRANCH   1  17
ATOM     17  C   UNL     1       2.127   6.803  17.744  0.00  0.00    +0.000 C 
BRANCH  17  18
ATOM     18  C   UNL     1       2.194   8.239  18.238  0.00  0.00    +0.000 C 
ATOM     19  O   UNL     1       2.895   9.036  17.638  0.00  0.00    +0.000 OA
BRANCH  18  23
ATOM     20  C   UNL     1      -0.116   9.730  21.577  0.00  0.00    +0.000 A 
ATOM     21  C   UNL     1      -0.269  10.258  20.281  0.00  0.00    +0.000 A 
ATOM     22  C   UNL     1       0.491   9.769  19.223  0.00  0.00    +0.000 A 
ATOM     23  C   UNL     1       1.408   8.723  19.415  0.00  0.00    +0.000 A 
ATOM     24  C   UNL     1       1.553   8.183  20.706  0.00  0.00    +0.000 A 
ATOM     25  C   UNL     1       0.805   8.690  21.776  0.00  0.00    +0.000 A 
BRANCH  20  27
ATOM     26  C   UNL     1      -1.070  11.525  22.914  0.00  0.00    +0.000 C 
ATOM     27  O   UNL     1      -0.833  10.191  22.634  0.00  0.00    +0.000 OA
ENDBRANCH  20  27
ENDBRANCH  18  23
ENDBRANCH  17  18
ENDBRANCH   1  17
TORSDOF 6
ENDMDL
