MODEL 1
REMARK VINA RESULT:      -8.6      0.000      0.000
REMARK  Name = 
REMARK  10 active torsions:
REMARK  status: ('A' for Active; 'I' for Inactive)
REMARK    1  A    between atoms: C_1  and  C_2
REMARK    2  A    between atoms: C_2  and  C_3
REMARK    3  A    between atoms: C_2  and  N_10
REMARK    4  A    between atoms: C_3  and  C_4
REMARK    5  A    between atoms: N_10  and  C_11
REMARK    6  A    between atoms: N_19  and  C_20
REMARK    7  A    between atoms: C_22  and  C_23
REMARK    8  A    between atoms: C_23  and  O_25
REMARK    9  A    between atoms: C_26  and  O_27
REMARK   10  A    between atoms: C_28  and  O_29
REMARK                            x       y       z     vdW  Elec       q    Type
REMARK                         _______ _______ _______ _____ _____    ______ ____
ROOT
ATOM      1  C   UNL     1       6.721   6.775  16.760  0.00  0.00    +0.000 A 
ATOM      2  N   UNL     1       7.429   5.713  16.291  0.00  0.00    +0.000 NA
ATOM      3  C   UNL     1       6.886   4.478  16.368  0.00  0.00    +0.000 A 
ATOM      4  N   UNL     1       5.674   4.125  16.838  0.00  0.00    +0.000 NA
ATOM      5  C   UNL     1       5.012   5.197  17.299  0.00  0.00    +0.000 A 
ATOM      6  C   UNL     1       5.445   6.513  17.303  0.00  0.00    +0.000 A 
ATOM      7  N   UNL     1       4.484   7.338  17.852  0.00  0.00    +0.000 NA
ATOM      8  C   UNL     1       3.499   6.533  18.188  0.00  0.00    +0.000 A 
ATOM      9  N   UNL     1       3.764   5.230  17.863  0.00  0.00    +0.000 N 
ENDROOT
BRANCH   9  10
ATOM     10  C   UNL     1       2.907   4.076  18.057  0.00  0.00    +0.000 C 
ATOM     11  O   UNL     1       1.799   4.438  18.931  0.00  0.00    +0.000 OA
ATOM     12  C   UNL     1       1.615   3.374  19.895  0.00  0.00    +0.000 C 
ATOM     13  C   UNL     1       2.478   2.206  19.451  0.00  0.00    +0.000 C 
ATOM     14  C   UNL     1       3.612   2.877  18.694  0.00  0.00    +0.000 C 
BRANCH  12  15
ATOM     15  C   UNL     1       1.982   3.879  21.285  0.00  0.00    +0.000 C 
ATOM     16  O   UNL     1       2.040   3.189  22.289  0.00  0.00    +0.000 OA
BRANCH  15  17
ATOM     17  O   UNL     1       2.221   5.214  21.295  0.00  0.00    +0.000 OA
ATOM     18  H   UNL     1       1.777   5.658  20.539  0.00  0.00    +0.000 HD
ENDBRANCH  15  17
ENDBRANCH  12  15
BRANCH  13  19
ATOM     19  O   UNL     1       1.770   1.336  18.545  0.00  0.00    +0.000 OA
ATOM     20  H   UNL     1       2.325   0.566  18.318  0.00  0.00    +0.000 HD
ENDBRANCH  13  19
BRANCH  14  21
ATOM     21  O   UNL     1       4.185   1.985  17.743  0.00  0.00    +0.000 OA
ATOM     22  H   UNL     1       4.498   2.531  16.991  0.00  0.00    +0.000 HD
ENDBRANCH  14  21
ENDBRANCH   9  10
BRANCH   1  23
ATOM     23  N   UNL     1       7.246   8.075  16.710  0.00  0.00    +0.000 N 
ATOM     24  H   UNL     1       7.504   8.276  15.742  0.00  0.00    +0.000 HD
BRANCH  23  26
ATOM     25  C   UNL     1       8.251   7.356  18.830  0.00  0.00    +0.000 C 
ATOM     26  C   UNL     1       8.273   8.398  17.706  0.00  0.00    +0.000 C 
BRANCH  26  27
ATOM     27  C   UNL     1       8.008   9.797  18.320  0.00  0.00    +0.000 C 
BRANCH  27  28
ATOM     28  C   UNL     1       9.252  10.543  18.752  0.00  0.00    +0.000 A 
ATOM     29  C   UNL     1      10.186  10.970  17.797  0.00  0.00    +0.000 A 
ATOM     30  C   UNL     1      11.339  11.652  18.189  0.00  0.00    +0.000 A 
ATOM     31  C   UNL     1      11.569  11.918  19.537  0.00  0.00    +0.000 A 
ATOM     32  C   UNL     1      10.642  11.513  20.493  0.00  0.00    +0.000 A 
ATOM     33  C   UNL     1       9.486  10.835  20.103  0.00  0.00    +0.000 A 
ENDBRANCH  27  28
ENDBRANCH  26  27
ENDBRANCH  23  26
ENDBRANCH   1  23
TORSDOF 9
ENDMDL
MODEL 2
REMARK VINA RESULT:      -8.2      5.742      8.324
REMARK  Name = 
REMARK  10 active torsions:
REMARK  status: ('A' for Active; 'I' for Inactive)
REMARK    1  A    between atoms: C_1  and  C_2
REMARK    2  A    between atoms: C_2  and  C_3
REMARK    3  A    between atoms: C_2  and  N_10
REMARK    4  A    between atoms: C_3  and  C_4
REMARK    5  A    between atoms: N_10  and  C_11
REMARK    6  A    between atoms: N_19  and  C_20
REMARK    7  A    between atoms: C_22  and  C_23
REMARK    8  A    between atoms: C_23  and  O_25
REMARK    9  A    between atoms: C_26  and  O_27
REMARK   10  A    between atoms: C_28  and  O_29
REMARK                            x       y       z     vdW  Elec       q    Type
REMARK                         _______ _______ _______ _____ _____    ______ ____
ROOT
ATOM      1  C   UNL     1       2.269   7.124  19.695  0.00  0.00    +0.000 A 
ATOM      2  N   UNL     1       2.553   7.288  18.376  0.00  0.00    +0.000 NA
ATOM      3  C   UNL     1       2.192   8.438  17.766  0.00  0.00    +0.000 A 
ATOM      4  N   UNL     1       1.587   9.515  18.303  0.00  0.00    +0.000 NA
ATOM      5  C   UNL     1       1.316   9.311  19.600  0.00  0.00    +0.000 A 
ATOM      6  C   UNL     1       1.607   8.183  20.351  0.00  0.00    +0.000 A 
ATOM      7  N   UNL     1       1.181   8.345  21.655  0.00  0.00    +0.000 NA
ATOM      8  C   UNL     1       0.628   9.539  21.683  0.00  0.00    +0.000 A 
ATOM      9  N   UNL     1       0.695  10.169  20.470  0.00  0.00    +0.000 N 
ENDROOT
BRANCH   9  10
ATOM     10  C   UNL     1       0.217  11.496  20.133  0.00  0.00    +0.000 C 
ATOM     11  O   UNL     1      -0.036  12.244  21.356  0.00  0.00    +0.000 OA
ATOM     12  C   UNL     1      -1.298  12.938  21.211  0.00  0.00    +0.000 C 
ATOM     13  C   UNL     1      -1.722  12.809  19.758  0.00  0.00    +0.000 C 
ATOM     14  C   UNL     1      -1.080  11.502  19.322  0.00  0.00    +0.000 C 
BRANCH  12  15
ATOM     15  C   UNL     1      -2.319  12.342  22.173  0.00  0.00    +0.000 C 
ATOM     16  O   UNL     1      -3.528  12.471  22.081  0.00  0.00    +0.000 OA
BRANCH  15  17
ATOM     17  O   UNL     1      -1.727  11.656  23.182  0.00  0.00    +0.000 OA
ATOM     18  H   UNL     1      -1.154  10.939  22.833  0.00  0.00    +0.000 HD
ENDBRANCH  15  17
ENDBRANCH  12  15
BRANCH  13  19
ATOM     19  O   UNL     1      -1.186  13.877  18.951  0.00  0.00    +0.000 OA
ATOM     20  H   UNL     1      -0.486  14.348  19.441  0.00  0.00    +0.000 HD
ENDBRANCH  13  19
BRANCH  14  21
ATOM     21  O   UNL     1      -0.868  11.486  17.913  0.00  0.00    +0.000 OA
ATOM     22  H   UNL     1      -0.182  10.809  17.734  0.00  0.00    +0.000 HD
ENDBRANCH  14  21
ENDBRANCH   9  10
BRANCH   1  23
ATOM     23  N   UNL     1       2.615   5.943  20.369  0.00  0.00    +0.000 N 
ATOM     24  H   UNL     1       3.585   6.028  20.681  0.00  0.00    +0.000 HD
BRANCH  23  26
ATOM     25  C   UNL     1       1.175   3.959  20.444  0.00  0.00    +0.000 C 
ATOM     26  C   UNL     1       2.291   4.686  19.686  0.00  0.00    +0.000 C 
BRANCH  26  27
ATOM     27  C   UNL     1       3.536   3.765  19.632  0.00  0.00    +0.000 C 
BRANCH  27  28
ATOM     28  C   UNL     1       4.487   4.054  18.490  0.00  0.00    +0.000 A 
ATOM     29  C   UNL     1       4.060   3.905  17.162  0.00  0.00    +0.000 A 
ATOM     30  C   UNL     1       4.934   4.163  16.104  0.00  0.00    +0.000 A 
ATOM     31  C   UNL     1       6.239   4.576  16.361  0.00  0.00    +0.000 A 
ATOM     32  C   UNL     1       6.669   4.743  17.675  0.00  0.00    +0.000 A 
ATOM     33  C   UNL     1       5.796   4.490  18.734  0.00  0.00    +0.000 A 
ENDBRANCH  27  28
ENDBRANCH  26  27
ENDBRANCH  23  26
ENDBRANCH   1  23
TORSDOF 9
ENDMDL
MODEL 3
REMARK VINA RESULT:      -8.2      5.136      7.973
REMARK  Name = 
REMARK  10 active torsions:
REMARK  status: ('A' for Active; 'I' for Inactive)
REMARK    1  A    between atoms: C_1  and  C_2
REMARK    2  A    between atoms: C_2  and  C_3
REMARK    3  A    between atoms: C_2  and  N_10
REMARK    4  A    between atoms: C_3  and  C_4
REMARK    5  A    between atoms: N_10  and  C_11
REMARK    6  A    between atoms: N_19  and  C_20
REMARK    7  A    between atoms: C_22  and  C_23
REMARK    8  A    between atoms: C_23  and  O_25
REMARK    9  A    between atoms: C_26  and  O_27
REMARK   10  A    between atoms: C_28  and  O_29
REMARK                            x       y       z     vdW  Elec       q    Type
REMARK                         _______ _______ _______ _____ _____    ______ ____
ROOT
ATOM      1  C   UNL     1       2.311   7.341  19.590  0.00  0.00    +0.000 A 
ATOM      2  N   UNL     1       2.428   7.490  18.244  0.00  0.00    +0.000 NA
ATOM      3  C   UNL     1       1.863   8.565  17.652  0.00  0.00    +0.000 A 
ATOM      4  N   UNL     1       1.190   9.580  18.229  0.00  0.00    +0.000 NA
ATOM      5  C   UNL     1       1.087   9.390  19.553  0.00  0.00    +0.000 A 
ATOM      6  C   UNL     1       1.596   8.334  20.292  0.00  0.00    +0.000 A 
ATOM      7  N   UNL     1       1.297   8.491  21.630  0.00  0.00    +0.000 NA
ATOM      8  C   UNL     1       0.605   9.608  21.694  0.00  0.00    +0.000 A 
ATOM      9  N   UNL     1       0.462  10.197  20.467  0.00  0.00    +0.000 N 
ENDROOT
BRANCH   9  10
ATOM     10  C   UNL     1      -0.212  11.443  20.155  0.00  0.00    +0.000 C 
ATOM     11  O   UNL     1      -1.586  11.164  19.762  0.00  0.00    +0.000 OA
ATOM     12  C   UNL     1      -1.898  11.967  18.599  0.00  0.00    +0.000 C 
ATOM     13  C   UNL     1      -0.759  12.955  18.412  0.00  0.00    +0.000 C 
ATOM     14  C   UNL     1       0.434  12.231  19.014  0.00  0.00    +0.000 C 
BRANCH  12  15
ATOM     15  C   UNL     1      -2.089  11.059  17.391  0.00  0.00    +0.000 C 
ATOM     16  O   UNL     1      -2.137   9.841  17.431  0.00  0.00    +0.000 OA
BRANCH  15  17
ATOM     17  O   UNL     1      -2.177  11.762  16.235  0.00  0.00    +0.000 OA
ATOM     18  H   UNL     1      -2.965  11.489  15.715  0.00  0.00    +0.000 HD
ENDBRANCH  15  17
ENDBRANCH  12  15
BRANCH  13  19
ATOM     19  O   UNL     1      -0.983  14.171  19.155  0.00  0.00    +0.000 OA
ATOM     20  H   UNL     1      -0.193  14.391  19.684  0.00  0.00    +0.000 HD
ENDBRANCH  13  19
BRANCH  14  21
ATOM     21  O   UNL     1       1.422  13.158  19.453  0.00  0.00    +0.000 OA
ATOM     22  H   UNL     1       1.119  14.050  19.182  0.00  0.00    +0.000 HD
ENDBRANCH  14  21
ENDBRANCH   9  10
BRANCH   1  23
ATOM     23  N   UNL     1       2.873   6.236  20.248  0.00  0.00    +0.000 N 
ATOM     24  H   UNL     1       3.843   6.463  20.478  0.00  0.00    +0.000 HD
BRANCH  23  26
ATOM     25  C   UNL     1       1.722   4.080  20.454  0.00  0.00    +0.000 C 
ATOM     26  C   UNL     1       2.676   4.931  19.609  0.00  0.00    +0.000 C 
BRANCH  26  27
ATOM     27  C   UNL     1       4.027   4.183  19.482  0.00  0.00    +0.000 C 
BRANCH  27  28
ATOM     28  C   UNL     1       5.082   4.916  18.680  0.00  0.00    +0.000 A 
ATOM     29  C   UNL     1       6.288   5.300  19.284  0.00  0.00    +0.000 A 
ATOM     30  C   UNL     1       7.261   5.983  18.552  0.00  0.00    +0.000 A 
ATOM     31  C   UNL     1       7.042   6.284  17.211  0.00  0.00    +0.000 A 
ATOM     32  C   UNL     1       5.856   5.894  16.595  0.00  0.00    +0.000 A 
ATOM     33  C   UNL     1       4.883   5.207  17.323  0.00  0.00    +0.000 A 
ENDBRANCH  27  28
ENDBRANCH  26  27
ENDBRANCH  23  26
ENDBRANCH   1  23
TORSDOF 9
ENDMDL
MODEL 4
REMARK VINA RESULT:      -8.2      6.239      8.915
REMARK  Name = 
REMARK  10 active torsions:
REMARK  status: ('A' for Active; 'I' for Inactive)
REMARK    1  A    between atoms: C_1  and  C_2
REMARK    2  A    between atoms: C_2  and  C_3
REMARK    3  A    between atoms: C_2  and  N_10
REMARK    4  A    between atoms: C_3  and  C_4
REMARK    5  A    between atoms: N_10  and  C_11
REMARK    6  A    between atoms: N_19  and  C_20
REMARK    7  A    between atoms: C_22  and  C_23
REMARK    8  A    between atoms: C_23  and  O_25
REMARK    9  A    between atoms: C_26  and  O_27
REMARK   10  A    between atoms: C_28  and  O_29
REMARK                            x       y       z     vdW  Elec       q    Type
REMARK                         _______ _______ _______ _____ _____    ______ ____
ROOT
ATOM      1  C   UNL     1       1.656   8.171  20.012  0.00  0.00    +0.000 A 
ATOM      2  N   UNL     1       1.938   8.525  18.730  0.00  0.00    +0.000 NA
ATOM      3  C   UNL     1       1.463   9.696  18.254  0.00  0.00    +0.000 A 
ATOM      4  N   UNL     1       0.737  10.629  18.900  0.00  0.00    +0.000 NA
ATOM      5  C   UNL     1       0.471  10.239  20.155  0.00  0.00    +0.000 A 
ATOM      6  C   UNL     1       0.873   9.066  20.773  0.00  0.00    +0.000 A 
ATOM      7  N   UNL     1       0.415   9.021  22.074  0.00  0.00    +0.000 NA
ATOM      8  C   UNL     1      -0.266  10.136  22.231  0.00  0.00    +0.000 A 
ATOM      9  N   UNL     1      -0.251  10.914  21.105  0.00  0.00    +0.000 N 
ENDROOT
BRANCH   9  10
ATOM     10  C   UNL     1      -0.866  12.213  20.917  0.00  0.00    +0.000 C 
ATOM     11  O   UNL     1      -1.279  12.744  22.208  0.00  0.00    +0.000 OA
ATOM     12  C   UNL     1      -2.606  13.306  22.065  0.00  0.00    +0.000 C 
ATOM     13  C   UNL     1      -2.925  13.341  20.580  0.00  0.00    +0.000 C 
ATOM     14  C   UNL     1      -2.104  12.191  20.019  0.00  0.00    +0.000 C 
BRANCH  12  15
ATOM     15  C   UNL     1      -3.601  12.467  22.857  0.00  0.00    +0.000 C 
ATOM     16  O   UNL     1      -3.331  11.810  23.849  0.00  0.00    +0.000 OA
BRANCH  15  17
ATOM     17  O   UNL     1      -4.844  12.508  22.318  0.00  0.00    +0.000 OA
ATOM     18  H   UNL     1      -5.528  12.617  23.014  0.00  0.00    +0.000 HD
ENDBRANCH  15  17
ENDBRANCH  12  15
BRANCH  13  19
ATOM     19  O   UNL     1      -2.476  14.568  19.969  0.00  0.00    +0.000 OA
ATOM     20  H   UNL     1      -2.699  14.570  19.019  0.00  0.00    +0.000 HD
ENDBRANCH  13  19
BRANCH  14  21
ATOM     21  O   UNL     1      -1.810  12.402  18.641  0.00  0.00    +0.000 OA
ATOM     22  H   UNL     1      -2.666  12.421  18.165  0.00  0.00    +0.000 HD
ENDBRANCH  14  21
ENDBRANCH   9  10
BRANCH   1  23
ATOM     23  N   UNL     1       2.120   6.961  20.549  0.00  0.00    +0.000 N 
ATOM     24  H   UNL     1       2.922   7.166  21.148  0.00  0.00    +0.000 HD
BRANCH  23  26
ATOM     25  C   UNL     1       1.555   4.622  20.070  0.00  0.00    +0.000 C 
ATOM     26  C   UNL     1       2.320   5.863  19.597  0.00  0.00    +0.000 C 
BRANCH  26  27
ATOM     27  C   UNL     1       3.825   5.508  19.492  0.00  0.00    +0.000 C 
BRANCH  27  28
ATOM     28  C   UNL     1       4.360   5.436  18.077  0.00  0.00    +0.000 A 
ATOM     29  C   UNL     1       4.675   6.612  17.381  0.00  0.00    +0.000 A 
ATOM     30  C   UNL     1       5.161   6.554  16.074  0.00  0.00    +0.000 A 
ATOM     31  C   UNL     1       5.341   5.322  15.451  0.00  0.00    +0.000 A 
ATOM     32  C   UNL     1       5.047   4.146  16.137  0.00  0.00    +0.000 A 
ATOM     33  C   UNL     1       4.565   4.202  17.446  0.00  0.00    +0.000 A 
ENDBRANCH  27  28
ENDBRANCH  26  27
ENDBRANCH  23  26
ENDBRANCH   1  23
TORSDOF 9
ENDMDL
MODEL 5
REMARK VINA RESULT:      -8.2      5.563      8.116
REMARK  Name = 
REMARK  10 active torsions:
REMARK  status: ('A' for Active; 'I' for Inactive)
REMARK    1  A    between atoms: C_1  and  C_2
REMARK    2  A    between atoms: C_2  and  C_3
REMARK    3  A    between atoms: C_2  and  N_10
REMARK    4  A    between atoms: C_3  and  C_4
REMARK    5  A    between atoms: N_10  and  C_11
REMARK    6  A    between atoms: N_19  and  C_20
REMARK    7  A    between atoms: C_22  and  C_23
REMARK    8  A    between atoms: C_23  and  O_25
REMARK    9  A    between atoms: C_26  and  O_27
REMARK   10  A    between atoms: C_28  and  O_29
REMARK                            x       y       z     vdW  Elec       q    Type
REMARK                         _______ _______ _______ _____ _____    ______ ____
ROOT
ATOM      1  C   UNL     1       2.545   6.801  19.534  0.00  0.00    +0.000 A 
ATOM      2  N   UNL     1       2.998   6.962  18.262  0.00  0.00    +0.000 NA
ATOM      3  C   UNL     1       2.714   8.108  17.605  0.00  0.00    +0.000 A 
ATOM      4  N   UNL     1       2.039   9.183  18.053  0.00  0.00    +0.000 NA
ATOM      5  C   UNL     1       1.601   8.982  19.305  0.00  0.00    +0.000 A 
ATOM      6  C   UNL     1       1.797   7.859  20.093  0.00  0.00    +0.000 A 
ATOM      7  N   UNL     1       1.204   8.024  21.328  0.00  0.00    +0.000 NA
ATOM      8  C   UNL     1       0.645   9.214  21.279  0.00  0.00    +0.000 A 
ATOM      9  N   UNL     1       0.868   9.840  20.083  0.00  0.00    +0.000 N 
ENDROOT
BRANCH   9  10
ATOM     10  C   UNL     1       0.431  11.163  19.680  0.00  0.00    +0.000 C 
ATOM     11  O   UNL     1       0.507  12.066  20.820  0.00  0.00    +0.000 OA
ATOM     12  C   UNL     1      -0.699  12.865  20.848  0.00  0.00    +0.000 C 
ATOM     13  C   UNL     1      -1.437  12.618  19.543  0.00  0.00    +0.000 C 
ATOM     14  C   UNL     1      -1.007  11.212  19.160  0.00  0.00    +0.000 C 
BRANCH  12  15
ATOM     15  C   UNL     1      -1.529  12.489  22.069  0.00  0.00    +0.000 C 
ATOM     16  O   UNL     1      -2.740  12.600  22.155  0.00  0.00    +0.000 OA
BRANCH  15  17
ATOM     17  O   UNL     1      -0.758  12.029  23.086  0.00  0.00    +0.000 OA
ATOM     18  H   UNL     1      -0.611  11.061  23.008  0.00  0.00    +0.000 HD
ENDBRANCH  15  17
ENDBRANCH  12  15
BRANCH  13  19
ATOM     19  O   UNL     1      -1.008  13.529  18.510  0.00  0.00    +0.000 OA
ATOM     20  H   UNL     1      -0.082  13.347  18.267  0.00  0.00    +0.000 HD
ENDBRANCH  13  19
BRANCH  14  21
ATOM     21  O   UNL     1      -1.108  11.017  17.752  0.00  0.00    +0.000 OA
ATOM     22  H   UNL     1      -2.061  11.042  17.527  0.00  0.00    +0.000 HD
ENDBRANCH  14  21
ENDBRANCH   9  10
BRANCH   1  23
ATOM     23  N   UNL     1       2.806   5.625  20.253  0.00  0.00    +0.000 N 
ATOM     24  H   UNL     1       3.768   5.669  20.595  0.00  0.00    +0.000 HD
BRANCH  23  26
ATOM     25  C   UNL     1       1.397   3.626  20.442  0.00  0.00    +0.000 C 
ATOM     26  C   UNL     1       2.438   4.367  19.595  0.00  0.00    +0.000 C 
BRANCH  26  27
ATOM     27  C   UNL     1       3.684   3.458  19.433  0.00  0.00    +0.000 C 
BRANCH  27  28
ATOM     28  C   UNL     1       4.628   3.874  18.325  0.00  0.00    +0.000 A 
ATOM     29  C   UNL     1       5.877   4.431  18.635  0.00  0.00    +0.000 A 
ATOM     30  C   UNL     1       6.750   4.824  17.619  0.00  0.00    +0.000 A 
ATOM     31  C   UNL     1       6.387   4.659  16.285  0.00  0.00    +0.000 A 
ATOM     32  C   UNL     1       5.157   4.092  15.964  0.00  0.00    +0.000 A 
ATOM     33  C   UNL     1       4.284   3.695  16.979  0.00  0.00    +0.000 A 
ENDBRANCH  27  28
ENDBRANCH  26  27
ENDBRANCH  23  26
ENDBRANCH   1  23
TORSDOF 9
ENDMDL
MODEL 6
REMARK VINA RESULT:      -8.2      5.582      8.272
REMARK  Name = 
REMARK  10 active torsions:
REMARK  status: ('A' for Active; 'I' for Inactive)
REMARK    1  A    between atoms: C_1  and  C_2
REMARK    2  A    between atoms: C_2  and  C_3
REMARK    3  A    between atoms: C_2  and  N_10
REMARK    4  A    between atoms: C_3  and  C_4
REMARK    5  A    between atoms: N_10  and  C_11
REMARK    6  A    between atoms: N_19  and  C_20
REMARK    7  A    between atoms: C_22  and  C_23
REMARK    8  A    between atoms: C_23  and  O_25
REMARK    9  A    between atoms: C_26  and  O_27
REMARK   10  A    between atoms: C_28  and  O_29
REMARK                            x       y       z     vdW  Elec       q    Type
REMARK                         _______ _______ _______ _____ _____    ______ ____
ROOT
ATOM      1  C   UNL     1       2.292   7.297  19.635  0.00  0.00    +0.000 A 
ATOM      2  N   UNL     1       2.602   7.499  18.327  0.00  0.00    +0.000 NA
ATOM      3  C   UNL     1       2.153   8.616  17.713  0.00  0.00    +0.000 A 
ATOM      4  N   UNL     1       1.431   9.625  18.236  0.00  0.00    +0.000 NA
ATOM      5  C   UNL     1       1.138   9.384  19.522  0.00  0.00    +0.000 A 
ATOM      6  C   UNL     1       1.511   8.282  20.275  0.00  0.00    +0.000 A 
ATOM      7  N   UNL     1       1.030   8.391  21.565  0.00  0.00    +0.000 NA
ATOM      8  C   UNL     1       0.365   9.526  21.583  0.00  0.00    +0.000 A 
ATOM      9  N   UNL     1       0.411  10.171  20.377  0.00  0.00    +0.000 N 
ENDROOT
BRANCH   9  10
ATOM     10  C   UNL     1      -0.180  11.449  20.032  0.00  0.00    +0.000 C 
ATOM     11  O   UNL     1      -1.596  11.265  19.742  0.00  0.00    +0.000 OA
ATOM     12  C   UNL     1      -1.919  12.025  18.553  0.00  0.00    +0.000 C 
ATOM     13  C   UNL     1      -0.719  12.903  18.237  0.00  0.00    +0.000 C 
ATOM     14  C   UNL     1       0.449  12.116  18.807  0.00  0.00    +0.000 C 
BRANCH  12  15
ATOM     15  C   UNL     1      -2.260  11.070  17.417  0.00  0.00    +0.000 C 
ATOM     16  O   UNL     1      -2.528   9.888  17.551  0.00  0.00    +0.000 OA
BRANCH  15  17
ATOM     17  O   UNL     1      -2.212  11.681  16.207  0.00  0.00    +0.000 OA
ATOM     18  H   UNL     1      -3.114  11.889  15.880  0.00  0.00    +0.000 HD
ENDBRANCH  15  17
ENDBRANCH  12  15
BRANCH  13  19
ATOM     19  O   UNL     1      -0.796  14.172  18.917  0.00  0.00    +0.000 OA
ATOM     20  H   UNL     1      -0.136  14.208  19.634  0.00  0.00    +0.000 HD
ENDBRANCH  13  19
BRANCH  14  21
ATOM     21  O   UNL     1       1.535  12.981  19.128  0.00  0.00    +0.000 OA
ATOM     22  H   UNL     1       1.171  13.889  19.182  0.00  0.00    +0.000 HD
ENDBRANCH  14  21
ENDBRANCH   9  10
BRANCH   1  23
ATOM     23  N   UNL     1       2.728   6.148  20.313  0.00  0.00    +0.000 N 
ATOM     24  H   UNL     1       3.727   6.251  20.503  0.00  0.00    +0.000 HD
BRANCH  23  26
ATOM     25  C   UNL     1       1.217   4.233  20.566  0.00  0.00    +0.000 C 
ATOM     26  C   UNL     1       2.336   4.861  19.729  0.00  0.00    +0.000 C 
BRANCH  26  27
ATOM     27  C   UNL     1       3.544   3.890  19.705  0.00  0.00    +0.000 C 
BRANCH  27  28
ATOM     28  C   UNL     1       4.525   4.130  18.577  0.00  0.00    +0.000 A 
ATOM     29  C   UNL     1       4.169   3.824  17.255  0.00  0.00    +0.000 A 
ATOM     30  C   UNL     1       5.072   4.036  16.212  0.00  0.00    +0.000 A 
ATOM     31  C   UNL     1       6.335   4.559  16.476  0.00  0.00    +0.000 A 
ATOM     32  C   UNL     1       6.694   4.882  17.782  0.00  0.00    +0.000 A 
ATOM     33  C   UNL     1       5.791   4.675  18.827  0.00  0.00    +0.000 A 
ENDBRANCH  27  28
ENDBRANCH  26  27
ENDBRANCH  23  26
ENDBRANCH   1  23
TORSDOF 9
ENDMDL
MODEL 7
REMARK VINA RESULT:      -8.2      5.913      8.303
REMARK  Name = 
REMARK  10 active torsions:
REMARK  status: ('A' for Active; 'I' for Inactive)
REMARK    1  A    between atoms: C_1  and  C_2
REMARK    2  A    between atoms: C_2  and  C_3
REMARK    3  A    between atoms: C_2  and  N_10
REMARK    4  A    between atoms: C_3  and  C_4
REMARK    5  A    between atoms: N_10  and  C_11
REMARK    6  A    between atoms: N_19  and  C_20
REMARK    7  A    between atoms: C_22  and  C_23
REMARK    8  A    between atoms: C_23  and  O_25
REMARK    9  A    between atoms: C_26  and  O_27
REMARK   10  A    between atoms: C_28  and  O_29
REMARK                            x       y       z     vdW  Elec       q    Type
REMARK                         _______ _______ _______ _____ _____    ______ ____
ROOT
ATOM      1  C   UNL     1       1.920   7.840  19.789  0.00  0.00    +0.000 A 
ATOM      2  N   UNL     1       2.224   8.198  18.513  0.00  0.00    +0.000 NA
ATOM      3  C   UNL     1       1.796   9.392  18.048  0.00  0.00    +0.000 A 
ATOM      4  N   UNL     1       1.100  10.343  18.700  0.00  0.00    +0.000 NA
ATOM      5  C   UNL     1       0.812   9.949  19.949  0.00  0.00    +0.000 A 
ATOM      6  C   UNL     1       1.166   8.754  20.555  0.00  0.00    +0.000 A 
ATOM      7  N   UNL     1       0.697   8.711  21.853  0.00  0.00    +0.000 NA
ATOM      8  C   UNL     1       0.057   9.848  22.019  0.00  0.00    +0.000 A 
ATOM      9  N   UNL     1       0.109  10.638  20.902  0.00  0.00    +0.000 N 
ENDROOT
BRANCH   9  10
ATOM     10  C   UNL     1      -0.457  11.962  20.726  0.00  0.00    +0.000 C 
ATOM     11  O   UNL     1      -0.835  12.503  22.024  0.00  0.00    +0.000 OA
ATOM     12  C   UNL     1      -2.139  13.117  21.898  0.00  0.00    +0.000 C 
ATOM     13  C   UNL     1      -2.473  13.171  20.417  0.00  0.00    +0.000 C 
ATOM     14  C   UNL     1      -1.705  11.993  19.843  0.00  0.00    +0.000 C 
BRANCH  12  15
ATOM     15  C   UNL     1      -3.158  12.315  22.698  0.00  0.00    +0.000 C 
ATOM     16  O   UNL     1      -2.896  11.601  23.652  0.00  0.00    +0.000 OA
BRANCH  15  17
ATOM     17  O   UNL     1      -4.416  12.462  22.213  0.00  0.00    +0.000 OA
ATOM     18  H   UNL     1      -4.485  13.261  21.646  0.00  0.00    +0.000 HD
ENDBRANCH  15  17
ENDBRANCH  12  15
BRANCH  13  19
ATOM     19  O   UNL     1      -1.983  14.382  19.806  0.00  0.00    +0.000 OA
ATOM     20  H   UNL     1      -1.798  15.051  20.490  0.00  0.00    +0.000 HD
ENDBRANCH  13  19
BRANCH  14  21
ATOM     21  O   UNL     1      -1.418  12.198  18.462  0.00  0.00    +0.000 OA
ATOM     22  H   UNL     1      -0.514  12.574  18.411  0.00  0.00    +0.000 HD
ENDBRANCH  14  21
ENDBRANCH   9  10
BRANCH   1  23
ATOM     23  N   UNL     1       2.335   6.607  20.313  0.00  0.00    +0.000 N 
ATOM     24  H   UNL     1       3.040   6.788  21.031  0.00  0.00    +0.000 HD
BRANCH  23  26
ATOM     25  C   UNL     1       1.669   4.436  19.386  0.00  0.00    +0.000 C 
ATOM     26  C   UNL     1       2.695   5.574  19.337  0.00  0.00    +0.000 C 
BRANCH  26  27
ATOM     27  C   UNL     1       4.096   4.993  19.656  0.00  0.00    +0.000 C 
BRANCH  27  28
ATOM     28  C   UNL     1       5.226   5.588  18.843  0.00  0.00    +0.000 A 
ATOM     29  C   UNL     1       6.553   5.463  19.281  0.00  0.00    +0.000 A 
ATOM     30  C   UNL     1       7.599   6.016  18.540  0.00  0.00    +0.000 A 
ATOM     31  C   UNL     1       7.332   6.693  17.353  0.00  0.00    +0.000 A 
ATOM     32  C   UNL     1       6.021   6.809  16.899  0.00  0.00    +0.000 A 
ATOM     33  C   UNL     1       4.973   6.254  17.636  0.00  0.00    +0.000 A 
ENDBRANCH  27  28
ENDBRANCH  26  27
ENDBRANCH  23  26
ENDBRANCH   1  23
TORSDOF 9
ENDMDL
MODEL 8
REMARK VINA RESULT:      -8.1      1.125      2.025
REMARK  Name = 
REMARK  10 active torsions:
REMARK  status: ('A' for Active; 'I' for Inactive)
REMARK    1  A    between atoms: C_1  and  C_2
REMARK    2  A    between atoms: C_2  and  C_3
REMARK    3  A    between atoms: C_2  and  N_10
REMARK    4  A    between atoms: C_3  and  C_4
REMARK    5  A    between atoms: N_10  and  C_11
REMARK    6  A    between atoms: N_19  and  C_20
REMARK    7  A    between atoms: C_22  and  C_23
REMARK    8  A    between atoms: C_23  and  O_25
REMARK    9  A    between atoms: C_26  and  O_27
REMARK   10  A    between atoms: C_28  and  O_29
REMARK                            x       y       z     vdW  Elec       q    Type
REMARK                         _______ _______ _______ _____ _____    ______ ____
ROOT
ATOM      1  C   UNL     1       6.584   6.626  17.183  0.00  0.00    +0.000 A 
ATOM      2  N   UNL     1       7.236   5.433  17.157  0.00  0.00    +0.000 NA
ATOM      3  C   UNL     1       6.586   4.322  17.566  0.00  0.00    +0.000 A 
ATOM      4  N   UNL     1       5.314   4.206  17.992  0.00  0.00    +0.000 NA
ATOM      5  C   UNL     1       4.709   5.403  18.013  0.00  0.00    +0.000 A 
ATOM      6  C   UNL     1       5.250   6.624  17.643  0.00  0.00    +0.000 A 
ATOM      7  N   UNL     1       4.319   7.632  17.793  0.00  0.00    +0.000 NA
ATOM      8  C   UNL     1       3.245   7.034  18.262  0.00  0.00    +0.000 A 
ATOM      9  N   UNL     1       3.425   5.684  18.401  0.00  0.00    +0.000 N 
ENDROOT
BRANCH   9  10
ATOM     10  C   UNL     1       2.460   4.704  18.862  0.00  0.00    +0.000 C 
ATOM     11  O   UNL     1       3.064   3.883  19.902  0.00  0.00    +0.000 OA
ATOM     12  C   UNL     1       2.716   2.501  19.649  0.00  0.00    +0.000 C 
ATOM     13  C   UNL     1       1.662   2.492  18.555  0.00  0.00    +0.000 C 
ATOM     14  C   UNL     1       1.965   3.756  17.768  0.00  0.00    +0.000 C 
BRANCH  12  15
ATOM     15  C   UNL     1       3.969   1.725  19.261  0.00  0.00    +0.000 C 
ATOM     16  O   UNL     1       4.020   0.860  18.403  0.00  0.00    +0.000 OA
BRANCH  15  17
ATOM     17  O   UNL     1       5.043   2.089  20.004  0.00  0.00    +0.000 OA
ATOM     18  H   UNL     1       5.681   2.613  19.471  0.00  0.00    +0.000 HD
ENDBRANCH  15  17
ENDBRANCH  12  15
BRANCH  13  19
ATOM     19  O   UNL     1       0.331   2.595  19.099  0.00  0.00    +0.000 OA
ATOM     20  H   UNL     1       0.345   3.122  19.920  0.00  0.00    +0.000 HD
ENDBRANCH  13  19
BRANCH  14  21
ATOM     21  O   UNL     1       0.801   4.226  17.095  0.00  0.00    +0.000 OA
ATOM     22  H   UNL     1       0.211   3.454  16.970  0.00  0.00    +0.000 HD
ENDBRANCH  14  21
ENDBRANCH   9  10
BRANCH   1  23
ATOM     23  N   UNL     1       7.219   7.809  16.776  0.00  0.00    +0.000 N 
ATOM     24  H   UNL     1       7.485   7.705  15.794  0.00  0.00    +0.000 HD
BRANCH  23  26
ATOM     25  C   UNL     1       8.351   7.452  18.923  0.00  0.00    +0.000 C 
ATOM     26  C   UNL     1       8.280   8.311  17.656  0.00  0.00    +0.000 C 
BRANCH  26  27
ATOM     27  C   UNL     1       7.990   9.778  18.067  0.00  0.00    +0.000 C 
BRANCH  27  28
ATOM     28  C   UNL     1       9.184  10.526  18.621  0.00  0.00    +0.000 A 
ATOM     29  C   UNL     1       9.302  10.744  20.001  0.00  0.00    +0.000 A 
ATOM     30  C   UNL     1      10.396  11.439  20.518  0.00  0.00    +0.000 A 
ATOM     31  C   UNL     1      11.385  11.919  19.663  0.00  0.00    +0.000 A 
ATOM     32  C   UNL     1      11.288  11.695  18.293  0.00  0.00    +0.000 A 
ATOM     33  C   UNL     1      10.197  10.996  17.774  0.00  0.00    +0.000 A 
ENDBRANCH  27  28
ENDBRANCH  26  27
ENDBRANCH  23  26
ENDBRANCH   1  23
TORSDOF 9
ENDMDL
MODEL 9
REMARK VINA RESULT:      -8.1      5.008      8.256
REMARK  Name = 
REMARK  10 active torsions:
REMARK  status: ('A' for Active; 'I' for Inactive)
REMARK    1  A    between atoms: C_1  and  C_2
REMARK    2  A    between atoms: C_2  and  C_3
REMARK    3  A    between atoms: C_2  and  N_10
REMARK    4  A    between atoms: C_3  and  C_4
REMARK    5  A    between atoms: N_10  and  C_11
REMARK    6  A    between atoms: N_19  and  C_20
REMARK    7  A    between atoms: C_22  and  C_23
REMARK    8  A    between atoms: C_23  and  O_25
REMARK    9  A    between atoms: C_26  and  O_27
REMARK   10  A    between atoms: C_28  and  O_29
REMARK                            x       y       z     vdW  Elec       q    Type
REMARK                         _______ _______ _______ _____ _____    ______ ____
ROOT
ATOM      1  C   UNL     1       1.134   9.836  20.107  0.00  0.00    +0.000 A 
ATOM      2  N   UNL     1       0.596   9.423  21.286  0.00  0.00    +0.000 NA
ATOM      3  C   UNL     1       0.724   8.127  21.647  0.00  0.00    +0.000 A 
ATOM      4  N   UNL     1       1.362   7.137  20.994  0.00  0.00    +0.000 NA
ATOM      5  C   UNL     1       1.869   7.580  19.834  0.00  0.00    +0.000 A 
ATOM      6  C   UNL     1       1.801   8.868  19.327  0.00  0.00    +0.000 A 
ATOM      7  N   UNL     1       2.448   8.944  18.109  0.00  0.00    +0.000 NA
ATOM      8  C   UNL     1       2.879   7.723  17.879  0.00  0.00    +0.000 A 
ATOM      9  N   UNL     1       2.567   6.864  18.898  0.00  0.00    +0.000 N 
ENDROOT
BRANCH   9  10
ATOM     10  C   UNL     1       2.899   5.456  19.004  0.00  0.00    +0.000 C 
ATOM     11  O   UNL     1       4.264   5.317  19.493  0.00  0.00    +0.000 OA
ATOM     12  C   UNL     1       4.926   4.297  18.708  0.00  0.00    +0.000 C 
ATOM     13  C   UNL     1       3.863   3.612  17.866  0.00  0.00    +0.000 C 
ATOM     14  C   UNL     1       2.814   4.695  17.680  0.00  0.00    +0.000 C 
BRANCH  12  15
ATOM     15  C   UNL     1       6.020   4.938  17.863  0.00  0.00    +0.000 C 
ATOM     16  O   UNL     1       5.853   5.858  17.079  0.00  0.00    +0.000 OA
BRANCH  15  17
ATOM     17  O   UNL     1       7.225   4.347  18.057  0.00  0.00    +0.000 OA
ATOM     18  H   UNL     1       7.726   4.794  18.774  0.00  0.00    +0.000 HD
ENDBRANCH  15  17
ENDBRANCH  12  15
BRANCH  13  19
ATOM     19  O   UNL     1       3.263   2.504  18.567  0.00  0.00    +0.000 OA
ATOM     20  H   UNL     1       2.808   2.822  19.369  0.00  0.00    +0.000 HD
ENDBRANCH  13  19
BRANCH  14  21
ATOM     21  O   UNL     1       1.532   4.123  17.436  0.00  0.00    +0.000 OA
ATOM     22  H   UNL     1       1.571   3.699  16.553  0.00  0.00    +0.000 HD
ENDBRANCH  14  21
ENDBRANCH   9  10
BRANCH   1  23
ATOM     23  N   UNL     1       1.018  11.169  19.686  0.00  0.00    +0.000 N 
ATOM     24  H   UNL     1       0.900  11.755  20.515  0.00  0.00    +0.000 HD
BRANCH  23  26
ATOM     25  C   UNL     1      -0.133  12.938  18.436  0.00  0.00    +0.000 C 
ATOM     26  C   UNL     1       0.065  11.427  18.602  0.00  0.00    +0.000 C 
BRANCH  26  27
ATOM     27  C   UNL     1      -1.307  10.780  18.924  0.00  0.00    +0.000 C 
BRANCH  27  28
ATOM     28  C   UNL     1      -2.265  10.715  17.754  0.00  0.00    +0.000 A 
ATOM     29  C   UNL     1      -1.981   9.892  16.655  0.00  0.00    +0.000 A 
ATOM     30  C   UNL     1      -2.856   9.833  15.569  0.00  0.00    +0.000 A 
ATOM     31  C   UNL     1      -4.024  10.590  15.571  0.00  0.00    +0.000 A 
ATOM     32  C   UNL     1      -4.325  11.399  16.664  0.00  0.00    +0.000 A 
ATOM     33  C   UNL     1      -3.454  11.457  17.753  0.00  0.00    +0.000 A 
ENDBRANCH  27  28
ENDBRANCH  26  27
ENDBRANCH  23  26
ENDBRANCH   1  23
TORSDOF 9
ENDMDL
