MODEL 1
REMARK VINA RESULT:      -8.1      0.000      0.000
REMARK  Name = 
REMARK  6 active torsions:
REMARK  status: ('A' for Active; 'I' for Inactive)
REMARK    1  A    between atoms: C_2  and  C_3
REMARK    2  A    between atoms: C_3  and  C_4
REMARK    3  A    between atoms: N_6  and  N_7
REMARK    4  A    between atoms: C_8  and  C_9
REMARK    5  A    between atoms: N_18  and  N_19
REMARK    6  A    between atoms: C_20  and  C_21
REMARK                            x       y       z     vdW  Elec       q    Type
REMARK                         _______ _______ _______ _____ _____    ______ ____
ROOT
ATOM      1  C   UNL     1       2.544   2.930  20.669  0.00  0.00    +0.000 C 
ENDROOT
BRANCH   1   3
ATOM      2  O   UNL     1       4.207   1.790  19.377  0.00  0.00    +0.000 OA
ATOM      3  C   UNL     1       3.368   2.694  19.397  0.00  0.00    +0.000 C 
ATOM      4  N   UNL     1       3.101   3.539  18.331  0.00  0.00    +0.000 N 
ATOM      5  H   UNL     1       2.382   4.260  18.445  0.00  0.00    +0.000 HD
BRANCH   4   6
ATOM      6  N   UNL     1       3.741   3.425  17.132  0.00  0.00    +0.000 NA
ATOM      7  C   UNL     1       4.686   4.292  16.960  0.00  0.00    +0.000 C 
BRANCH   7   8
ATOM      8  C   UNL     1       5.495   4.354  15.721  0.00  0.00    +0.000 A 
ATOM      9  C   UNL     1       6.665   5.140  15.720  0.00  0.00    +0.000 A 
ATOM     10  C   UNL     1       7.435   5.265  14.559  0.00  0.00    +0.000 A 
ATOM     11  C   UNL     1       7.021   4.592  13.423  0.00  0.00    +0.000 A 
ATOM     12  C   UNL     1       5.863   3.804  13.425  0.00  0.00    +0.000 A 
ATOM     13  C   UNL     1       5.089   3.675  14.567  0.00  0.00    +0.000 A 
ATOM     14  C   UNL     1       5.600   3.249  12.059  0.00  0.00    +0.000 C 
ATOM     15  C   UNL     1       6.978   3.410  11.400  0.00  0.00    +0.000 C 
ATOM     16  C   UNL     1       7.637   4.630  12.058  0.00  0.00    +0.000 C 
ENDBRANCH   7   8
ENDBRANCH   4   6
ENDBRANCH   1   3
BRANCH   1  17
ATOM     17  C   UNL     1       1.671   4.172  20.715  0.00  0.00    +0.000 C 
ATOM     18  O   UNL     1       0.480   4.135  20.392  0.00  0.00    +0.000 OA
ATOM     19  N   UNL     1       2.297   5.344  21.139  0.00  0.00    +0.000 N 
ATOM     20  H   UNL     1       3.277   5.379  21.389  0.00  0.00    +0.000 HD
BRANCH  19  21
ATOM     21  N   UNL     1       1.530   6.482  21.182  0.00  0.00    +0.000 NA
ATOM     22  C   UNL     1       1.880   7.503  20.469  0.00  0.00    +0.000 C 
BRANCH  22  23
ATOM     23  C   UNL     1       1.068   8.756  20.464  0.00  0.00    +0.000 A 
ATOM     24  C   UNL     1       0.957   9.519  19.283  0.00  0.00    +0.000 A 
ATOM     25  C   UNL     1       0.225  10.714  19.263  0.00  0.00    +0.000 A 
ATOM     26  C   UNL     1      -0.395  11.130  20.428  0.00  0.00    +0.000 A 
ATOM     27  C   UNL     1      -0.287  10.382  21.606  0.00  0.00    +0.000 A 
ATOM     28  C   UNL     1       0.437   9.193  21.640  0.00  0.00    +0.000 A 
ATOM     29  C   UNL     1      -0.975  11.093  22.735  0.00  0.00    +0.000 C 
ATOM     30  C   UNL     1      -1.891  12.066  21.973  0.00  0.00    +0.000 C 
ATOM     31  C   UNL     1      -1.174  12.391  20.655  0.00  0.00    +0.000 C 
ENDBRANCH  22  23
ENDBRANCH  19  21
ENDBRANCH   1  17
TORSDOF 6
ENDMDL
MODEL 2
REMARK VINA RESULT:      -8.0      0.587      1.426
REMARK  Name = 
REMARK  6 active torsions:
REMARK  status: ('A' for Active; 'I' for Inactive)
REMARK    1  A    between atoms: C_2  and  C_3
REMARK    2  A    between atoms: C_3  and  C_4
REMARK    3  A    between atoms: N_6  and  N_7
REMARK    4  A    between atoms: C_8  and  C_9
REMARK    5  A    between atoms: N_18  and  N_19
REMARK    6  A    between atoms: C_20  and  C_21
REMARK                            x       y       z     vdW  Elec       q    Type
REMARK                         _______ _______ _______ _____ _____    ______ ____
ROOT
ATOM      1  C   UNL     1       2.745   3.227  20.834  0.00  0.00    +0.000 C 
ENDROOT
BRANCH   1   3
ATOM      2  O   UNL     1       4.728   2.455  19.736  0.00  0.00    +0.000 OA
ATOM      3  C   UNL     1       3.645   3.033  19.608  0.00  0.00    +0.000 C 
ATOM      4  N   UNL     1       3.163   3.535  18.410  0.00  0.00    +0.000 N 
ATOM      5  H   UNL     1       2.248   3.999  18.405  0.00  0.00    +0.000 HD
BRANCH   4   6
ATOM      6  N   UNL     1       3.848   3.410  17.237  0.00  0.00    +0.000 NA
ATOM      7  C   UNL     1       4.657   4.391  16.997  0.00  0.00    +0.000 C 
BRANCH   7   8
ATOM      8  C   UNL     1       5.484   4.460  15.770  0.00  0.00    +0.000 A 
ATOM      9  C   UNL     1       6.589   5.334  15.753  0.00  0.00    +0.000 A 
ATOM     10  C   UNL     1       7.371   5.466  14.601  0.00  0.00    +0.000 A 
ATOM     11  C   UNL     1       7.033   4.714  13.490  0.00  0.00    +0.000 A 
ATOM     12  C   UNL     1       5.939   3.840  13.508  0.00  0.00    +0.000 A 
ATOM     13  C   UNL     1       5.154   3.701  14.642  0.00  0.00    +0.000 A 
ATOM     14  C   UNL     1       5.747   3.206  12.165  0.00  0.00    +0.000 C 
ATOM     15  C   UNL     1       7.122   3.444  11.522  0.00  0.00    +0.000 C 
ATOM     16  C   UNL     1       7.672   4.739  12.135  0.00  0.00    +0.000 C 
ENDBRANCH   7   8
ENDBRANCH   4   6
ENDBRANCH   1   3
BRANCH   1  17
ATOM     17  C   UNL     1       1.770   4.391  20.806  0.00  0.00    +0.000 C 
ATOM     18  O   UNL     1       0.609   4.249  20.411  0.00  0.00    +0.000 OA
ATOM     19  N   UNL     1       2.267   5.616  21.251  0.00  0.00    +0.000 N 
ATOM     20  H   UNL     1       3.223   5.737  21.561  0.00  0.00    +0.000 HD
BRANCH  19  21
ATOM     21  N   UNL     1       1.406   6.685  21.228  0.00  0.00    +0.000 NA
ATOM     22  C   UNL     1       1.785   7.785  20.665  0.00  0.00    +0.000 C 
BRANCH  22  23
ATOM     23  C   UNL     1       0.877   8.969  20.595  0.00  0.00    +0.000 A 
ATOM     24  C   UNL     1       0.293   9.481  21.772  0.00  0.00    +0.000 A 
ATOM     25  C   UNL     1      -0.585  10.572  21.727  0.00  0.00    +0.000 A 
ATOM     26  C   UNL     1      -0.867  11.144  20.498  0.00  0.00    +0.000 A 
ATOM     27  C   UNL     1      -0.297  10.640  19.323  0.00  0.00    +0.000 A 
ATOM     28  C   UNL     1       0.578   9.556  19.354  0.00  0.00    +0.000 A 
ATOM     29  C   UNL     1      -0.830  11.379  18.131  0.00  0.00    +0.000 C 
ATOM     30  C   UNL     1      -1.378  12.660  18.784  0.00  0.00    +0.000 C 
ATOM     31  C   UNL     1      -1.812  12.269  20.203  0.00  0.00    +0.000 C 
ENDBRANCH  22  23
ENDBRANCH  19  21
ENDBRANCH   1  17
TORSDOF 6
ENDMDL
MODEL 3
REMARK VINA RESULT:      -7.9      6.782     10.528
REMARK  Name = 
REMARK  6 active torsions:
REMARK  status: ('A' for Active; 'I' for Inactive)
REMARK    1  A    between atoms: C_2  and  C_3
REMARK    2  A    between atoms: C_3  and  C_4
REMARK    3  A    between atoms: N_6  and  N_7
REMARK    4  A    between atoms: C_8  and  C_9
REMARK    5  A    between atoms: N_18  and  N_19
REMARK    6  A    between atoms: C_20  and  C_21
REMARK                            x       y       z     vdW  Elec       q    Type
REMARK                         _______ _______ _______ _____ _____    ______ ____
ROOT
ATOM      1  C   UNL     1       8.778   9.166  17.409  0.00  0.00    +0.000 C 
ENDROOT
BRANCH   1   3
ATOM      2  O   UNL     1       8.604  11.475  18.020  0.00  0.00    +0.000 OA
ATOM      3  C   UNL     1       8.926  10.341  18.384  0.00  0.00    +0.000 C 
ATOM      4  N   UNL     1       9.426  10.034  19.639  0.00  0.00    +0.000 N 
ATOM      5  H   UNL     1       9.664   9.059  19.847  0.00  0.00    +0.000 HD
BRANCH   4   6
ATOM      6  N   UNL     1       9.586  10.976  20.612  0.00  0.00    +0.000 NA
ATOM      7  C   UNL     1       8.547  11.130  21.367  0.00  0.00    +0.000 C 
BRANCH   7   8
ATOM      8  C   UNL     1       8.504  12.114  22.473  0.00  0.00    +0.000 A 
ATOM      9  C   UNL     1       8.935  13.431  22.218  0.00  0.00    +0.000 A 
ATOM     10  C   UNL     1       8.955  14.382  23.243  0.00  0.00    +0.000 A 
ATOM     11  C   UNL     1       8.536  13.995  24.504  0.00  0.00    +0.000 A 
ATOM     12  C   UNL     1       8.100  12.688  24.757  0.00  0.00    +0.000 A 
ATOM     13  C   UNL     1       8.078  11.735  23.751  0.00  0.00    +0.000 A 
ATOM     14  C   UNL     1       7.775  12.511  26.208  0.00  0.00    +0.000 C 
ATOM     15  C   UNL     1       7.613  13.971  26.659  0.00  0.00    +0.000 C 
ATOM     16  C   UNL     1       8.535  14.809  25.762  0.00  0.00    +0.000 C 
ENDBRANCH   7   8
ENDBRANCH   4   6
ENDBRANCH   1   3
BRANCH   1  17
ATOM     17  C   UNL     1       7.941   7.984  17.863  0.00  0.00    +0.000 C 
ATOM     18  O   UNL     1       8.277   7.288  18.826  0.00  0.00    +0.000 OA
ATOM     19  N   UNL     1       6.780   7.738  17.129  0.00  0.00    +0.000 N 
ATOM     20  H   UNL     1       6.511   8.299  16.331  0.00  0.00    +0.000 HD
BRANCH  19  21
ATOM     21  N   UNL     1       6.010   6.670  17.517  0.00  0.00    +0.000 NA
ATOM     22  C   UNL     1       4.723   6.758  17.428  0.00  0.00    +0.000 C 
BRANCH  22  23
ATOM     23  C   UNL     1       3.843   5.616  17.816  0.00  0.00    +0.000 A 
ATOM     24  C   UNL     1       3.783   4.463  17.006  0.00  0.00    +0.000 A 
ATOM     25  C   UNL     1       2.942   3.393  17.334  0.00  0.00    +0.000 A 
ATOM     26  C   UNL     1       2.169   3.485  18.478  0.00  0.00    +0.000 A 
ATOM     27  C   UNL     1       2.217   4.627  19.287  0.00  0.00    +0.000 A 
ATOM     28  C   UNL     1       3.049   5.698  18.972  0.00  0.00    +0.000 A 
ATOM     29  C   UNL     1       1.226   4.508  20.408  0.00  0.00    +0.000 C 
ATOM     30  C   UNL     1       0.969   2.991  20.432  0.00  0.00    +0.000 C 
ATOM     31  C   UNL     1       1.163   2.499  18.991  0.00  0.00    +0.000 C 
ENDBRANCH  22  23
ENDBRANCH  19  21
ENDBRANCH   1  17
TORSDOF 6
ENDMDL
MODEL 4
REMARK VINA RESULT:      -7.7      0.935      9.760
REMARK  Name = 
REMARK  6 active torsions:
REMARK  status: ('A' for Active; 'I' for Inactive)
REMARK    1  A    between atoms: C_2  and  C_3
REMARK    2  A    between atoms: C_3  and  C_4
REMARK    3  A    between atoms: N_6  and  N_7
REMARK    4  A    between atoms: C_8  and  C_9
REMARK    5  A    between atoms: N_18  and  N_19
REMARK    6  A    between atoms: C_20  and  C_21
REMARK                            x       y       z     vdW  Elec       q    Type
REMARK                         _______ _______ _______ _____ _____    ______ ____
ROOT
ATOM      1  C   UNL     1       3.296   2.226  20.775  0.00  0.00    +0.000 C 
ENDROOT
BRANCH   1   3
ATOM      2  O   UNL     1       1.780   3.201  22.351  0.00  0.00    +0.000 OA
ATOM      3  C   UNL     1       2.400   3.357  21.296  0.00  0.00    +0.000 C 
ATOM      4  N   UNL     1       2.351   4.505  20.522  0.00  0.00    +0.000 N 
ATOM      5  H   UNL     1       2.906   4.539  19.660  0.00  0.00    +0.000 HD
BRANCH   4   6
ATOM      6  N   UNL     1       1.616   5.596  20.879  0.00  0.00    +0.000 NA
ATOM      7  C   UNL     1       1.988   6.691  20.299  0.00  0.00    +0.000 C 
BRANCH   7   8
ATOM      8  C   UNL     1       1.333   7.993  20.559  0.00  0.00    +0.000 A 
ATOM      9  C   UNL     1       1.387   8.984  19.558  0.00  0.00    +0.000 A 
ATOM     10  C   UNL     1       0.823  10.245  19.777  0.00  0.00    +0.000 A 
ATOM     11  C   UNL     1       0.208  10.486  20.993  0.00  0.00    +0.000 A 
ATOM     12  C   UNL     1       0.148   9.499  21.986  0.00  0.00    +0.000 A 
ATOM     13  C   UNL     1       0.706   8.247  21.783  0.00  0.00    +0.000 A 
ATOM     14  C   UNL     1      -0.500  10.035  23.225  0.00  0.00    +0.000 C 
ATOM     15  C   UNL     1      -1.226  11.271  22.672  0.00  0.00    +0.000 C 
ATOM     16  C   UNL     1      -0.398  11.767  21.478  0.00  0.00    +0.000 C 
ENDBRANCH   7   8
ENDBRANCH   4   6
ENDBRANCH   1   3
BRANCH   1  17
ATOM     17  C   UNL     1       3.739   2.300  19.324  0.00  0.00    +0.000 C 
ATOM     18  O   UNL     1       3.642   1.327  18.571  0.00  0.00    +0.000 OA
ATOM     19  N   UNL     1       4.257   3.526  18.905  0.00  0.00    +0.000 N 
ATOM     20  H   UNL     1       4.350   4.319  19.526  0.00  0.00    +0.000 HD
BRANCH  19  21
ATOM     21  N   UNL     1       4.671   3.615  17.599  0.00  0.00    +0.000 NA
ATOM     22  C   UNL     1       5.714   4.326  17.318  0.00  0.00    +0.000 C 
BRANCH  22  23
ATOM     23  C   UNL     1       6.218   4.437  15.916  0.00  0.00    +0.000 A 
ATOM     24  C   UNL     1       7.246   5.351  15.607  0.00  0.00    +0.000 A 
ATOM     25  C   UNL     1       7.713   5.494  14.294  0.00  0.00    +0.000 A 
ATOM     26  C   UNL     1       7.147   4.713  13.301  0.00  0.00    +0.000 A 
ATOM     27  C   UNL     1       6.122   3.807  13.597  0.00  0.00    +0.000 A 
ATOM     28  C   UNL     1       5.648   3.655  14.898  0.00  0.00    +0.000 A 
ATOM     29  C   UNL     1       5.629   3.155  12.338  0.00  0.00    +0.000 C 
ATOM     30  C   UNL     1       6.800   3.420  11.376  0.00  0.00    +0.000 C 
ATOM     31  C   UNL     1       7.443   4.737  11.832  0.00  0.00    +0.000 C 
ENDBRANCH  22  23
ENDBRANCH  19  21
ENDBRANCH   1  17
TORSDOF 6
ENDMDL
MODEL 5
REMARK VINA RESULT:      -7.7      5.622      6.882
REMARK  Name = 
REMARK  6 active torsions:
REMARK  status: ('A' for Active; 'I' for Inactive)
REMARK    1  A    between atoms: C_2  and  C_3
REMARK    2  A    between atoms: C_3  and  C_4
REMARK    3  A    between atoms: N_6  and  N_7
REMARK    4  A    between atoms: C_8  and  C_9
REMARK    5  A    between atoms: N_18  and  N_19
REMARK    6  A    between atoms: C_20  and  C_21
REMARK                            x       y       z     vdW  Elec       q    Type
REMARK                         _______ _______ _______ _____ _____    ______ ____
ROOT
ATOM      1  C   UNL     1       5.801   5.565  17.826  0.00  0.00    +0.000 C 
ENDROOT
BRANCH   1   3
ATOM      2  O   UNL     1       7.923   5.987  18.853  0.00  0.00    +0.000 OA
ATOM      3  C   UNL     1       7.061   6.403  18.074  0.00  0.00    +0.000 C 
ATOM      4  N   UNL     1       7.144   7.602  17.384  0.00  0.00    +0.000 N 
ATOM      5  H   UNL     1       6.376   7.860  16.755  0.00  0.00    +0.000 HD
BRANCH   4   6
ATOM      6  N   UNL     1       8.220   8.433  17.490  0.00  0.00    +0.000 NA
ATOM      7  C   UNL     1       8.058   9.391  18.344  0.00  0.00    +0.000 C 
BRANCH   7   8
ATOM      8  C   UNL     1       9.098  10.415  18.601  0.00  0.00    +0.000 A 
ATOM      9  C   UNL     1       9.560  10.586  19.921  0.00  0.00    +0.000 A 
ATOM     10  C   UNL     1      10.508  11.571  20.218  0.00  0.00    +0.000 A 
ATOM     11  C   UNL     1      10.978  12.361  19.184  0.00  0.00    +0.000 A 
ATOM     12  C   UNL     1      10.525  12.186  17.870  0.00  0.00    +0.000 A 
ATOM     13  C   UNL     1       9.584  11.216  17.562  0.00  0.00    +0.000 A 
ATOM     14  C   UNL     1      11.131  13.211  16.961  0.00  0.00    +0.000 C 
ATOM     15  C   UNL     1      12.333  13.677  17.796  0.00  0.00    +0.000 C 
ATOM     16  C   UNL     1      11.931  13.514  19.269  0.00  0.00    +0.000 C 
ENDBRANCH   7   8
ENDBRANCH   4   6
ENDBRANCH   1   3
BRANCH   1  17
ATOM     17  C   UNL     1       4.462   6.211  18.137  0.00  0.00    +0.000 C 
ATOM     18  O   UNL     1       3.867   5.983  19.194  0.00  0.00    +0.000 OA
ATOM     19  N   UNL     1       3.956   7.069  17.161  0.00  0.00    +0.000 N 
ATOM     20  H   UNL     1       4.436   7.245  16.287  0.00  0.00    +0.000 HD
BRANCH  19  21
ATOM     21  N   UNL     1       2.743   7.659  17.416  0.00  0.00    +0.000 NA
ATOM     22  C   UNL     1       2.717   8.849  17.921  0.00  0.00    +0.000 C 
BRANCH  22  23
ATOM     23  C   UNL     1       1.424   9.543  18.196  0.00  0.00    +0.000 A 
ATOM     24  C   UNL     1       1.334  10.474  19.252  0.00  0.00    +0.000 A 
ATOM     25  C   UNL     1       0.123  11.114  19.548  0.00  0.00    +0.000 A 
ATOM     26  C   UNL     1      -0.988  10.819  18.778  0.00  0.00    +0.000 A 
ATOM     27  C   UNL     1      -0.910   9.892  17.731  0.00  0.00    +0.000 A 
ATOM     28  C   UNL     1       0.287   9.249  17.426  0.00  0.00    +0.000 A 
ATOM     29  C   UNL     1      -2.265   9.693  17.116  0.00  0.00    +0.000 C 
ATOM     30  C   UNL     1      -3.008  10.951  17.595  0.00  0.00    +0.000 C 
ATOM     31  C   UNL     1      -2.386  11.332  18.945  0.00  0.00    +0.000 C 
ENDBRANCH  22  23
ENDBRANCH  19  21
ENDBRANCH   1  17
TORSDOF 6
ENDMDL
MODEL 6
REMARK VINA RESULT:      -7.5      7.234     11.231
REMARK  Name = 
REMARK  6 active torsions:
REMARK  status: ('A' for Active; 'I' for Inactive)
REMARK    1  A    between atoms: C_2  and  C_3
REMARK    2  A    between atoms: C_3  and  C_4
REMARK    3  A    between atoms: N_6  and  N_7
REMARK    4  A    between atoms: C_8  and  C_9
REMARK    5  A    between atoms: N_18  and  N_19
REMARK    6  A    between atoms: C_20  and  C_21
REMARK                            x       y       z     vdW  Elec       q    Type
REMARK                         _______ _______ _______ _____ _____    ______ ____
ROOT
ATOM      1  C   UNL     1       8.978  10.213  17.703  0.00  0.00    +0.000 C 
ENDROOT
BRANCH   1   3
ATOM      2  O   UNL     1       8.984  12.387  18.707  0.00  0.00    +0.000 OA
ATOM      3  C   UNL     1       9.147  11.177  18.884  0.00  0.00    +0.000 C 
ATOM      4  N   UNL     1       9.479  10.601  20.100  0.00  0.00    +0.000 N 
ATOM      5  H   UNL     1       9.590   9.583  20.147  0.00  0.00    +0.000 HD
BRANCH   4   6
ATOM      6  N   UNL     1       9.635  11.337  21.237  0.00  0.00    +0.000 NA
ATOM      7  C   UNL     1       8.529  11.565  21.869  0.00  0.00    +0.000 C 
BRANCH   7   8
ATOM      8  C   UNL     1       8.473  12.358  23.118  0.00  0.00    +0.000 A 
ATOM      9  C   UNL     1       8.129  11.702  24.317  0.00  0.00    +0.000 A 
ATOM     10  C   UNL     1       8.019  12.419  25.512  0.00  0.00    +0.000 A 
ATOM     11  C   UNL     1       8.264  13.781  25.485  0.00  0.00    +0.000 A 
ATOM     12  C   UNL     1       8.614  14.433  24.295  0.00  0.00    +0.000 A 
ATOM     13  C   UNL     1       8.723  13.735  23.103  0.00  0.00    +0.000 A 
ATOM     14  C   UNL     1       8.750  15.907  24.522  0.00  0.00    +0.000 C 
ATOM     15  C   UNL     1       8.911  15.961  26.049  0.00  0.00    +0.000 C 
ATOM     16  C   UNL     1       8.141  14.759  26.612  0.00  0.00    +0.000 C 
ENDBRANCH   7   8
ENDBRANCH   4   6
ENDBRANCH   1   3
BRANCH   1  17
ATOM     17  C   UNL     1       8.310   8.878  17.982  0.00  0.00    +0.000 C 
ATOM     18  O   UNL     1       8.640   8.182  18.947  0.00  0.00    +0.000 OA
ATOM     19  N   UNL     1       7.312   8.494  17.087  0.00  0.00    +0.000 N 
ATOM     20  H   UNL     1       7.051   9.057  16.287  0.00  0.00    +0.000 HD
BRANCH  19  21
ATOM     21  N   UNL     1       6.699   7.287  17.315  0.00  0.00    +0.000 NA
ATOM     22  C   UNL     1       5.465   7.132  16.961  0.00  0.00    +0.000 C 
BRANCH  22  23
ATOM     23  C   UNL     1       4.760   5.832  17.167  0.00  0.00    +0.000 A 
ATOM     24  C   UNL     1       5.374   4.626  16.772  0.00  0.00    +0.000 A 
ATOM     25  C   UNL     1       4.719   3.398  16.927  0.00  0.00    +0.000 A 
ATOM     26  C   UNL     1       3.452   3.389  17.485  0.00  0.00    +0.000 A 
ATOM     27  C   UNL     1       2.831   4.581  17.876  0.00  0.00    +0.000 A 
ATOM     28  C   UNL     1       3.472   5.809  17.727  0.00  0.00    +0.000 A 
ATOM     29  C   UNL     1       1.440   4.303  18.366  0.00  0.00    +0.000 C 
ATOM     30  C   UNL     1       1.516   2.797  18.668  0.00  0.00    +0.000 C 
ATOM     31  C   UNL     1       2.547   2.212  17.693  0.00  0.00    +0.000 C 
ENDBRANCH  22  23
ENDBRANCH  19  21
ENDBRANCH   1  17
TORSDOF 6
ENDMDL
MODEL 7
REMARK VINA RESULT:      -7.5      3.720     12.472
REMARK  Name = 
REMARK  6 active torsions:
REMARK  status: ('A' for Active; 'I' for Inactive)
REMARK    1  A    between atoms: C_2  and  C_3
REMARK    2  A    between atoms: C_3  and  C_4
REMARK    3  A    between atoms: N_6  and  N_7
REMARK    4  A    between atoms: C_8  and  C_9
REMARK    5  A    between atoms: N_18  and  N_19
REMARK    6  A    between atoms: C_20  and  C_21
REMARK                            x       y       z     vdW  Elec       q    Type
REMARK                         _______ _______ _______ _____ _____    ______ ____
ROOT
ATOM      1  C   UNL     1      -0.336   8.527  22.030  0.00  0.00    +0.000 C 
ENDROOT
BRANCH   1   3
ATOM      2  O   UNL     1       0.319   9.905  23.875  0.00  0.00    +0.000 OA
ATOM      3  C   UNL     1      -0.228   9.865  22.770  0.00  0.00    +0.000 C 
ATOM      4  N   UNL     1      -0.769  10.966  22.124  0.00  0.00    +0.000 N 
ATOM      5  H   UNL     1      -1.202  10.831  21.205  0.00  0.00    +0.000 HD
BRANCH   4   6
ATOM      6  N   UNL     1      -0.722  12.221  22.656  0.00  0.00    +0.000 NA
ATOM      7  C   UNL     1      -1.877  12.682  23.012  0.00  0.00    +0.000 C 
BRANCH   7   8
ATOM      8  C   UNL     1      -2.050  14.032  23.596  0.00  0.00    +0.000 A 
ATOM      9  C   UNL     1      -0.899  14.763  23.953  0.00  0.00    +0.000 A 
ATOM     10  C   UNL     1      -1.016  16.022  24.550  0.00  0.00    +0.000 A 
ATOM     11  C   UNL     1      -2.284  16.528  24.772  0.00  0.00    +0.000 A 
ATOM     12  C   UNL     1      -3.429  15.806  24.411  0.00  0.00    +0.000 A 
ATOM     13  C   UNL     1      -3.328  14.555  23.821  0.00  0.00    +0.000 A 
ATOM     14  C   UNL     1      -4.668  16.538  24.824  0.00  0.00    +0.000 C 
ATOM     15  C   UNL     1      -4.122  17.960  25.024  0.00  0.00    +0.000 C 
ATOM     16  C   UNL     1      -2.656  17.809  25.453  0.00  0.00    +0.000 C 
ENDBRANCH   7   8
ENDBRANCH   4   6
ENDBRANCH   1   3
BRANCH   1  17
ATOM     17  C   UNL     1       0.732   8.213  20.996  0.00  0.00    +0.000 C 
ATOM     18  O   UNL     1       1.039   9.027  20.120  0.00  0.00    +0.000 OA
ATOM     19  N   UNL     1       1.336   6.960  21.100  0.00  0.00    +0.000 N 
ATOM     20  H   UNL     1       1.075   6.287  21.809  0.00  0.00    +0.000 HD
BRANCH  19  21
ATOM     21  N   UNL     1       2.299   6.652  20.172  0.00  0.00    +0.000 NA
ATOM     22  C   UNL     1       2.212   5.537  19.523  0.00  0.00    +0.000 C 
BRANCH  22  23
ATOM     23  C   UNL     1       3.222   5.165  18.488  0.00  0.00    +0.000 A 
ATOM     24  C   UNL     1       3.030   4.014  17.696  0.00  0.00    +0.000 A 
ATOM     25  C   UNL     1       3.978   3.629  16.740  0.00  0.00    +0.000 A 
ATOM     26  C   UNL     1       5.113   4.407  16.583  0.00  0.00    +0.000 A 
ATOM     27  C   UNL     1       5.316   5.548  17.368  0.00  0.00    +0.000 A 
ATOM     28  C   UNL     1       4.381   5.942  18.321  0.00  0.00    +0.000 A 
ATOM     29  C   UNL     1       6.653   6.156  17.060  0.00  0.00    +0.000 C 
ATOM     30  C   UNL     1       6.966   5.532  15.689  0.00  0.00    +0.000 C 
ATOM     31  C   UNL     1       6.278   4.160  15.673  0.00  0.00    +0.000 C 
ENDBRANCH  22  23
ENDBRANCH  19  21
ENDBRANCH   1  17
TORSDOF 6
ENDMDL
MODEL 8
REMARK VINA RESULT:      -7.4      2.037      3.028
REMARK  Name = 
REMARK  6 active torsions:
REMARK  status: ('A' for Active; 'I' for Inactive)
REMARK    1  A    between atoms: C_2  and  C_3
REMARK    2  A    between atoms: C_3  and  C_4
REMARK    3  A    between atoms: N_6  and  N_7
REMARK    4  A    between atoms: C_8  and  C_9
REMARK    5  A    between atoms: N_18  and  N_19
REMARK    6  A    between atoms: C_20  and  C_21
REMARK                            x       y       z     vdW  Elec       q    Type
REMARK                         _______ _______ _______ _____ _____    ______ ____
ROOT
ATOM      1  C   UNL     1       2.138   6.474  20.566  0.00  0.00    +0.000 C 
ENDROOT
BRANCH   1   3
ATOM      2  O   UNL     1       1.828   4.971  18.728  0.00  0.00    +0.000 OA
ATOM      3  C   UNL     1       2.467   5.929  19.171  0.00  0.00    +0.000 C 
ATOM      4  N   UNL     1       3.488   6.571  18.488  0.00  0.00    +0.000 N 
ATOM      5  H   UNL     1       3.959   7.361  18.941  0.00  0.00    +0.000 HD
BRANCH   4   6
ATOM      6  N   UNL     1       3.867   6.206  17.230  0.00  0.00    +0.000 NA
ATOM      7  C   UNL     1       4.992   5.569  17.187  0.00  0.00    +0.000 C 
BRANCH   7   8
ATOM      8  C   UNL     1       5.593   5.098  15.918  0.00  0.00    +0.000 A 
ATOM      9  C   UNL     1       6.959   5.356  15.685  0.00  0.00    +0.000 A 
ATOM     10  C   UNL     1       7.558   4.970  14.481  0.00  0.00    +0.000 A 
ATOM     11  C   UNL     1       6.778   4.328  13.537  0.00  0.00    +0.000 A 
ATOM     12  C   UNL     1       5.422   4.065  13.770  0.00  0.00    +0.000 A 
ATOM     13  C   UNL     1       4.815   4.444  14.957  0.00  0.00    +0.000 A 
ATOM     14  C   UNL     1       4.792   3.431  12.569  0.00  0.00    +0.000 C 
ATOM     15  C   UNL     1       6.031   2.927  11.812  0.00  0.00    +0.000 C 
ATOM     16  C   UNL     1       7.176   3.888  12.161  0.00  0.00    +0.000 C 
ENDBRANCH   7   8
ENDBRANCH   4   6
ENDBRANCH   1   3
BRANCH   1  17
ATOM     17  C   UNL     1       1.635   7.904  20.655  0.00  0.00    +0.000 C 
ATOM     18  O   UNL     1       1.391   8.565  19.642  0.00  0.00    +0.000 OA
ATOM     19  N   UNL     1       1.470   8.415  21.943  0.00  0.00    +0.000 N 
ATOM     20  H   UNL     1       1.684   7.879  22.774  0.00  0.00    +0.000 HD
BRANCH  19  21
ATOM     21  N   UNL     1       1.023   9.709  22.049  0.00  0.00    +0.000 NA
ATOM     22  C   UNL     1      -0.228   9.923  22.295  0.00  0.00    +0.000 C 
BRANCH  22  23
ATOM     23  C   UNL     1      -0.759  11.311  22.441  0.00  0.00    +0.000 A 
ATOM     24  C   UNL     1      -0.068  12.396  21.862  0.00  0.00    +0.000 A 
ATOM     25  C   UNL     1      -0.531  13.709  22.011  0.00  0.00    +0.000 A 
ATOM     26  C   UNL     1      -1.689  13.924  22.739  0.00  0.00    +0.000 A 
ATOM     27  C   UNL     1      -2.379  12.855  23.322  0.00  0.00    +0.000 A 
ATOM     28  C   UNL     1      -1.930  11.544  23.181  0.00  0.00    +0.000 A 
ATOM     29  C   UNL     1      -3.543  13.366  24.121  0.00  0.00    +0.000 C 
ATOM     30  C   UNL     1      -3.725  14.775  23.533  0.00  0.00    +0.000 C 
ATOM     31  C   UNL     1      -2.333  15.235  23.076  0.00  0.00    +0.000 C 
ENDBRANCH  22  23
ENDBRANCH  19  21
ENDBRANCH   1  17
TORSDOF 6
ENDMDL
MODEL 9
REMARK VINA RESULT:      -7.3      3.611     12.566
REMARK  Name = 
REMARK  6 active torsions:
REMARK  status: ('A' for Active; 'I' for Inactive)
REMARK    1  A    between atoms: C_2  and  C_3
REMARK    2  A    between atoms: C_3  and  C_4
REMARK    3  A    between atoms: N_6  and  N_7
REMARK    4  A    between atoms: C_8  and  C_9
REMARK    5  A    between atoms: N_18  and  N_19
REMARK    6  A    between atoms: C_20  and  C_21
REMARK                            x       y       z     vdW  Elec       q    Type
REMARK                         _______ _______ _______ _____ _____    ______ ____
ROOT
ATOM      1  C   UNL     1       0.102   8.731  22.005  0.00  0.00    +0.000 C 
ENDROOT
BRANCH   1   3
ATOM      2  O   UNL     1      -0.720  10.652  20.835  0.00  0.00    +0.000 OA
ATOM      3  C   UNL     1      -0.499  10.140  21.936  0.00  0.00    +0.000 C 
ATOM      4  N   UNL     1      -0.759  10.754  23.151  0.00  0.00    +0.000 N 
ATOM      5  H   UNL     1      -0.543  10.245  24.014  0.00  0.00    +0.000 HD
BRANCH   4   6
ATOM      6  N   UNL     1      -1.316  11.996  23.237  0.00  0.00    +0.000 NA
ATOM      7  C   UNL     1      -2.606  11.984  23.346  0.00  0.00    +0.000 C 
BRANCH   7   8
ATOM      8  C   UNL     1      -3.409  13.225  23.436  0.00  0.00    +0.000 A 
ATOM      9  C   UNL     1      -2.733  14.460  23.507  0.00  0.00    +0.000 A 
ATOM     10  C   UNL     1      -3.449  15.654  23.639  0.00  0.00    +0.000 A 
ATOM     11  C   UNL     1      -4.830  15.588  23.692  0.00  0.00    +0.000 A 
ATOM     12  C   UNL     1      -5.504  14.362  23.615  0.00  0.00    +0.000 A 
ATOM     13  C   UNL     1      -4.806  13.170  23.486  0.00  0.00    +0.000 A 
ATOM     14  C   UNL     1      -6.980  14.559  23.770  0.00  0.00    +0.000 C 
ATOM     15  C   UNL     1      -7.115  16.058  23.464  0.00  0.00    +0.000 C 
ATOM     16  C   UNL     1      -5.797  16.713  23.899  0.00  0.00    +0.000 C 
ENDBRANCH   7   8
ENDBRANCH   4   6
ENDBRANCH   1   3
BRANCH   1  17
ATOM     17  C   UNL     1       1.034   8.315  20.880  0.00  0.00    +0.000 C 
ATOM     18  O   UNL     1       1.244   9.052  19.912  0.00  0.00    +0.000 OA
ATOM     19  N   UNL     1       1.630   7.061  21.012  0.00  0.00    +0.000 N 
ATOM     20  H   UNL     1       1.447   6.451  21.798  0.00  0.00    +0.000 HD
BRANCH  19  21
ATOM     21  N   UNL     1       2.471   6.660  20.004  0.00  0.00    +0.000 NA
ATOM     22  C   UNL     1       2.385   5.450  19.557  0.00  0.00    +0.000 C 
BRANCH  22  23
ATOM     23  C   UNL     1       3.262   4.972  18.448  0.00  0.00    +0.000 A 
ATOM     24  C   UNL     1       3.420   3.589  18.219  0.00  0.00    +0.000 A 
ATOM     25  C   UNL     1       4.261   3.117  17.203  0.00  0.00    +0.000 A 
ATOM     26  C   UNL     1       4.935   4.038  16.420  0.00  0.00    +0.000 A 
ATOM     27  C   UNL     1       4.790   5.413  16.643  0.00  0.00    +0.000 A 
ATOM     28  C   UNL     1       3.956   5.895  17.649  0.00  0.00    +0.000 A 
ATOM     29  C   UNL     1       5.688   6.184  15.720  0.00  0.00    +0.000 C 
ATOM     30  C   UNL     1       5.985   5.136  14.634  0.00  0.00    +0.000 C 
ATOM     31  C   UNL     1       5.923   3.767  15.326  0.00  0.00    +0.000 C 
ENDBRANCH  22  23
ENDBRANCH  19  21
ENDBRANCH   1  17
TORSDOF 6
ENDMDL
