MODEL 1
REMARK VINA RESULT:      -7.3      0.000      0.000
REMARK  Name = 
REMARK  11 active torsions:
REMARK  status: ('A' for Active; 'I' for Inactive)
REMARK    1  A    between atoms: C_1  and  O_2
REMARK    2  A    between atoms: O_2  and  C_3
REMARK    3  A    between atoms: C_7  and  O_8
REMARK    4  A    between atoms: C_7  and  C_9
REMARK    5  A    between atoms: C_9  and  C_10
REMARK    6  A    between atoms: C_9  and  O_14
REMARK    7  A    between atoms: C_11  and  C_12
REMARK    8  A    between atoms: C_11  and  C_13
REMARK    9  A    between atoms: O_14  and  C_15
REMARK   10  A    between atoms: C_15  and  C_16
REMARK   11  A    between atoms: C_19  and  O_20
REMARK                            x       y       z     vdW  Elec       q    Type
REMARK                         _______ _______ _______ _____ _____    ______ ____
ROOT
ATOM      1  C   UNL     1       5.985   4.897  16.247  0.00  0.00    +0.000 C 
ATOM      2  C   UNL     1       4.848   4.198  16.283  0.00  0.00    +0.000 C 
ATOM      3  C   UNL     1       4.475   3.470  17.505  0.00  0.00    +0.000 C 
ATOM      4  O   UNL     1       3.801   2.444  17.407  0.00  0.00    +0.000 OA
ATOM      5  C   UNL     1       4.970   3.969  18.865  0.00  0.00    +0.000 C 
ATOM      6  C   UNL     1       6.301   4.744  18.812  0.00  0.00    +0.000 C 
ATOM      7  C   UNL     1       6.900   5.033  17.436  0.00  0.00    +0.000 C 
ENDROOT
BRANCH   1   9
ATOM      8  C   UNL     1       6.775   4.738  13.993  0.00  0.00    +0.000 C 
ATOM      9  O   UNL     1       6.298   5.555  15.064  0.00  0.00    +0.000 OA
ENDBRANCH   1   9
BRANCH   5  10
ATOM     10  O   UNL     1       5.247   2.785  19.654  0.00  0.00    +0.000 OA
ATOM     11  H   UNL     1       6.181   2.857  19.946  0.00  0.00    +0.000 HD
ENDBRANCH   5  10
BRANCH   7  12
ATOM     12  O   UNL     1       8.034   4.185  17.239  0.00  0.00    +0.000 OA
ATOM     13  H   UNL     1       7.848   3.326  17.656  0.00  0.00    +0.000 HD
ENDBRANCH   7  12
BRANCH   5  14
ATOM     14  C   UNL     1       3.845   4.824  19.557  0.00  0.00    +0.000 C 
BRANCH  14  15
ATOM     15  C   UNL     1       2.989   4.046  20.548  0.00  0.00    +0.000 C 
ATOM     16  C   UNL     1       1.843   3.337  20.446  0.00  0.00    +0.000 C 
ATOM     17  C   UNL     1       1.043   3.051  19.208  0.00  0.00    +0.000 C 
ATOM     18  C   UNL     1       1.222   2.748  21.694  0.00  0.00    +0.000 C 
ENDBRANCH  14  15
BRANCH  14  19
ATOM     19  O   UNL     1       3.028   5.454  18.554  0.00  0.00    +0.000 OA
BRANCH  19  20
ATOM     20  C   UNL     1       2.841   6.802  18.635  0.00  0.00    +0.000 C 
ATOM     21  C   UNL     1       3.586   7.497  17.533  0.00  0.00    +0.000 C 
ATOM     22  O   UNL     1       2.145   7.376  19.455  0.00  0.00    +0.000 OA
ENDBRANCH  19  20
ENDBRANCH  14  19
ENDBRANCH   5  14
TORSDOF 7
ENDMDL
MODEL 2
REMARK VINA RESULT:      -7.1      1.315      2.951
REMARK  Name = 
REMARK  11 active torsions:
REMARK  status: ('A' for Active; 'I' for Inactive)
REMARK    1  A    between atoms: C_1  and  O_2
REMARK    2  A    between atoms: O_2  and  C_3
REMARK    3  A    between atoms: C_7  and  O_8
REMARK    4  A    between atoms: C_7  and  C_9
REMARK    5  A    between atoms: C_9  and  C_10
REMARK    6  A    between atoms: C_9  and  O_14
REMARK    7  A    between atoms: C_11  and  C_12
REMARK    8  A    between atoms: C_11  and  C_13
REMARK    9  A    between atoms: O_14  and  C_15
REMARK   10  A    between atoms: C_15  and  C_16
REMARK   11  A    between atoms: C_19  and  O_20
REMARK                            x       y       z     vdW  Elec       q    Type
REMARK                         _______ _______ _______ _____ _____    ______ ____
ROOT
ATOM      1  C   UNL     1       6.007   4.868  16.542  0.00  0.00    +0.000 C 
ATOM      2  C   UNL     1       4.950   4.082  16.318  0.00  0.00    +0.000 C 
ATOM      3  C   UNL     1       4.323   3.364  17.437  0.00  0.00    +0.000 C 
ATOM      4  O   UNL     1       3.770   2.285  17.219  0.00  0.00    +0.000 OA
ATOM      5  C   UNL     1       4.410   3.942  18.852  0.00  0.00    +0.000 C 
ATOM      6  C   UNL     1       5.651   4.819  19.105  0.00  0.00    +0.000 C 
ATOM      7  C   UNL     1       6.568   5.113  17.917  0.00  0.00    +0.000 C 
ENDROOT
BRANCH   1   9
ATOM      8  C   UNL     1       6.892   4.690  14.325  0.00  0.00    +0.000 C 
ATOM      9  O   UNL     1       6.571   5.513  15.447  0.00  0.00    +0.000 OA
ENDBRANCH   1   9
BRANCH   5  10
ATOM     10  O   UNL     1       4.552   2.808  19.744  0.00  0.00    +0.000 OA
ATOM     11  H   UNL     1       5.486   2.516  19.675  0.00  0.00    +0.000 HD
ENDBRANCH   5  10
BRANCH   7  12
ATOM     12  O   UNL     1       7.770   4.352  18.062  0.00  0.00    +0.000 OA
ATOM     13  H   UNL     1       8.071   4.432  18.984  0.00  0.00    +0.000 HD
ENDBRANCH   7  12
BRANCH   5  14
ATOM     14  C   UNL     1       3.087   4.725  19.186  0.00  0.00    +0.000 C 
BRANCH  14  15
ATOM     15  C   UNL     1       3.001   6.108  18.552  0.00  0.00    +0.000 C 
ATOM     16  C   UNL     1       2.470   7.288  18.941  0.00  0.00    +0.000 C 
ATOM     17  C   UNL     1       1.794   7.611  20.243  0.00  0.00    +0.000 C 
ATOM     18  C   UNL     1       2.504   8.465  17.991  0.00  0.00    +0.000 C 
ENDBRANCH  14  15
BRANCH  14  19
ATOM     19  O   UNL     1       2.914   4.800  20.612  0.00  0.00    +0.000 OA
BRANCH  19  20
ATOM     20  C   UNL     1       2.033   3.939  21.196  0.00  0.00    +0.000 C 
ATOM     21  C   UNL     1       0.820   3.768  20.329  0.00  0.00    +0.000 C 
ATOM     22  O   UNL     1       2.204   3.355  22.253  0.00  0.00    +0.000 OA
ENDBRANCH  19  20
ENDBRANCH  14  19
ENDBRANCH   5  14
TORSDOF 7
ENDMDL
MODEL 3
REMARK VINA RESULT:      -7.0      1.570      2.090
REMARK  Name = 
REMARK  11 active torsions:
REMARK  status: ('A' for Active; 'I' for Inactive)
REMARK    1  A    between atoms: C_1  and  O_2
REMARK    2  A    between atoms: O_2  and  C_3
REMARK    3  A    between atoms: C_7  and  O_8
REMARK    4  A    between atoms: C_7  and  C_9
REMARK    5  A    between atoms: C_9  and  C_10
REMARK    6  A    between atoms: C_9  and  O_14
REMARK    7  A    between atoms: C_11  and  C_12
REMARK    8  A    between atoms: C_11  and  C_13
REMARK    9  A    between atoms: O_14  and  C_15
REMARK   10  A    between atoms: C_15  and  C_16
REMARK   11  A    between atoms: C_19  and  O_20
REMARK                            x       y       z     vdW  Elec       q    Type
REMARK                         _______ _______ _______ _____ _____    ______ ____
ROOT
ATOM      1  C   UNL     1       6.895   6.423  17.330  0.00  0.00    +0.000 C 
ATOM      2  C   UNL     1       5.973   5.941  16.492  0.00  0.00    +0.000 C 
ATOM      3  C   UNL     1       5.145   4.795  16.896  0.00  0.00    +0.000 C 
ATOM      4  O   UNL     1       4.728   4.025  16.030  0.00  0.00    +0.000 OA
ATOM      5  C   UNL     1       4.859   4.554  18.381  0.00  0.00    +0.000 C 
ATOM      6  C   UNL     1       5.948   5.084  19.333  0.00  0.00    +0.000 C 
ATOM      7  C   UNL     1       7.099   5.883  18.720  0.00  0.00    +0.000 C 
ENDROOT
BRANCH   1   9
ATOM      8  C   UNL     1       7.952   8.502  17.865  0.00  0.00    +0.000 C 
ATOM      9  O   UNL     1       7.661   7.497  16.893  0.00  0.00    +0.000 OA
ENDBRANCH   1   9
BRANCH   5  10
ATOM     10  O   UNL     1       4.857   3.116  18.563  0.00  0.00    +0.000 OA
ATOM     11  H   UNL     1       4.471   2.948  19.449  0.00  0.00    +0.000 HD
ENDBRANCH   5  10
BRANCH   7  12
ATOM     12  O   UNL     1       8.278   5.074  18.728  0.00  0.00    +0.000 OA
ATOM     13  H   UNL     1       8.577   4.963  17.808  0.00  0.00    +0.000 HD
ENDBRANCH   7  12
BRANCH   5  14
ATOM     14  C   UNL     1       3.448   5.144  18.751  0.00  0.00    +0.000 C 
BRANCH  14  15
ATOM     15  C   UNL     1       2.293   4.171  18.552  0.00  0.00    +0.000 C 
ATOM     16  C   UNL     1       1.452   3.527  19.392  0.00  0.00    +0.000 C 
ATOM     17  C   UNL     1       1.384   3.631  20.888  0.00  0.00    +0.000 C 
ATOM     18  C   UNL     1       0.446   2.548  18.826  0.00  0.00    +0.000 C 
ENDBRANCH  14  15
BRANCH  14  19
ATOM     19  O   UNL     1       3.226   6.364  18.023  0.00  0.00    +0.000 OA
BRANCH  19  20
ATOM     20  C   UNL     1       2.583   7.383  18.663  0.00  0.00    +0.000 C 
ATOM     21  C   UNL     1       2.272   8.489  17.698  0.00  0.00    +0.000 C 
ATOM     22  O   UNL     1       2.267   7.396  19.841  0.00  0.00    +0.000 OA
ENDBRANCH  19  20
ENDBRANCH  14  19
ENDBRANCH   5  14
TORSDOF 7
ENDMDL
MODEL 4
REMARK VINA RESULT:      -7.0      1.676      3.292
REMARK  Name = 
REMARK  11 active torsions:
REMARK  status: ('A' for Active; 'I' for Inactive)
REMARK    1  A    between atoms: C_1  and  O_2
REMARK    2  A    between atoms: O_2  and  C_3
REMARK    3  A    between atoms: C_7  and  O_8
REMARK    4  A    between atoms: C_7  and  C_9
REMARK    5  A    between atoms: C_9  and  C_10
REMARK    6  A    between atoms: C_9  and  O_14
REMARK    7  A    between atoms: C_11  and  C_12
REMARK    8  A    between atoms: C_11  and  C_13
REMARK    9  A    between atoms: O_14  and  C_15
REMARK   10  A    between atoms: C_15  and  C_16
REMARK   11  A    between atoms: C_19  and  O_20
REMARK                            x       y       z     vdW  Elec       q    Type
REMARK                         _______ _______ _______ _____ _____    ______ ____
ROOT
ATOM      1  C   UNL     1       6.560   6.029  17.272  0.00  0.00    +0.000 C 
ATOM      2  C   UNL     1       5.587   5.525  16.509  0.00  0.00    +0.000 C 
ATOM      3  C   UNL     1       4.754   4.425  17.019  0.00  0.00    +0.000 C 
ATOM      4  O   UNL     1       4.277   3.618  16.220  0.00  0.00    +0.000 OA
ATOM      5  C   UNL     1       4.537   4.275  18.527  0.00  0.00    +0.000 C 
ATOM      6  C   UNL     1       5.684   4.831  19.393  0.00  0.00    +0.000 C 
ATOM      7  C   UNL     1       6.821   5.564  18.680  0.00  0.00    +0.000 C 
ENDROOT
BRANCH   1   9
ATOM      8  C   UNL     1       7.781   8.051  17.657  0.00  0.00    +0.000 C 
ATOM      9  O   UNL     1       7.327   7.057  16.738  0.00  0.00    +0.000 OA
ENDBRANCH   1   9
BRANCH   5  10
ATOM     10  O   UNL     1       4.512   2.850  18.792  0.00  0.00    +0.000 OA
ATOM     11  H   UNL     1       3.742   2.490  18.302  0.00  0.00    +0.000 HD
ENDBRANCH   5  10
BRANCH   7  12
ATOM     12  O   UNL     1       7.980   4.727  18.678  0.00  0.00    +0.000 OA
ATOM     13  H   UNL     1       7.686   3.800  18.644  0.00  0.00    +0.000 HD
ENDBRANCH   7  12
BRANCH   5  14
ATOM     14  C   UNL     1       3.160   4.921  18.931  0.00  0.00    +0.000 C 
BRANCH  14  15
ATOM     15  C   UNL     1       2.910   6.293  18.319  0.00  0.00    +0.000 C 
ATOM     16  C   UNL     1       2.367   7.442  18.780  0.00  0.00    +0.000 C 
ATOM     17  C   UNL     1       1.853   7.730  20.161  0.00  0.00    +0.000 C 
ATOM     18  C   UNL     1       2.205   8.615  17.838  0.00  0.00    +0.000 C 
ENDBRANCH  14  15
BRANCH  14  19
ATOM     19  O   UNL     1       3.047   4.967  20.364  0.00  0.00    +0.000 OA
BRANCH  19  20
ATOM     20  C   UNL     1       2.189   4.094  20.966  0.00  0.00    +0.000 C 
ATOM     21  C   UNL     1       0.943   3.939  20.144  0.00  0.00    +0.000 C 
ATOM     22  O   UNL     1       2.401   3.491  22.005  0.00  0.00    +0.000 OA
ENDBRANCH  19  20
ENDBRANCH  14  19
ENDBRANCH   5  14
TORSDOF 7
ENDMDL
MODEL 5
REMARK VINA RESULT:      -7.0      1.973      5.069
REMARK  Name = 
REMARK  11 active torsions:
REMARK  status: ('A' for Active; 'I' for Inactive)
REMARK    1  A    between atoms: C_1  and  O_2
REMARK    2  A    between atoms: O_2  and  C_3
REMARK    3  A    between atoms: C_7  and  O_8
REMARK    4  A    between atoms: C_7  and  C_9
REMARK    5  A    between atoms: C_9  and  C_10
REMARK    6  A    between atoms: C_9  and  O_14
REMARK    7  A    between atoms: C_11  and  C_12
REMARK    8  A    between atoms: C_11  and  C_13
REMARK    9  A    between atoms: O_14  and  C_15
REMARK   10  A    between atoms: C_15  and  C_16
REMARK   11  A    between atoms: C_19  and  O_20
REMARK                            x       y       z     vdW  Elec       q    Type
REMARK                         _______ _______ _______ _____ _____    ______ ____
ROOT
ATOM      1  C   UNL     1       1.962   3.349  19.734  0.00  0.00    +0.000 C 
ATOM      2  C   UNL     1       3.200   3.321  20.234  0.00  0.00    +0.000 C 
ATOM      3  C   UNL     1       4.357   3.399  19.329  0.00  0.00    +0.000 C 
ATOM      4  O   UNL     1       5.408   2.847  19.656  0.00  0.00    +0.000 OA
ATOM      5  C   UNL     1       4.219   4.116  17.984  0.00  0.00    +0.000 C 
ATOM      6  C   UNL     1       2.793   4.111  17.403  0.00  0.00    +0.000 C 
ATOM      7  C   UNL     1       1.677   3.519  18.265  0.00  0.00    +0.000 C 
ENDROOT
BRANCH   1   9
ATOM      8  C   UNL     1       1.202   2.682  21.903  0.00  0.00    +0.000 C 
ATOM      9  O   UNL     1       0.905   3.259  20.631  0.00  0.00    +0.000 OA
ENDBRANCH   1   9
BRANCH   5  10
ATOM     10  O   UNL     1       5.022   3.363  17.041  0.00  0.00    +0.000 OA
ATOM     11  H   UNL     1       5.154   2.475  17.436  0.00  0.00    +0.000 HD
ENDBRANCH   5  10
BRANCH   7  12
ATOM     12  O   UNL     1       1.299   2.251  17.724  0.00  0.00    +0.000 OA
ATOM     13  H   UNL     1       0.865   1.737  18.427  0.00  0.00    +0.000 HD
ENDBRANCH   7  12
BRANCH   5  14
ATOM     14  C   UNL     1       4.774   5.584  18.108  0.00  0.00    +0.000 C 
BRANCH  14  15
ATOM     15  C   UNL     1       3.759   6.667  17.765  0.00  0.00    +0.000 C 
ATOM     16  C   UNL     1       2.747   7.254  18.442  0.00  0.00    +0.000 C 
ATOM     17  C   UNL     1       2.329   7.016  19.865  0.00  0.00    +0.000 C 
ATOM     18  C   UNL     1       1.873   8.268  17.736  0.00  0.00    +0.000 C 
ENDBRANCH  14  15
BRANCH  14  19
ATOM     19  O   UNL     1       5.964   5.722  17.312  0.00  0.00    +0.000 OA
BRANCH  19  20
ATOM     20  C   UNL     1       7.151   5.902  17.961  0.00  0.00    +0.000 C 
ATOM     21  C   UNL     1       7.664   7.293  17.728  0.00  0.00    +0.000 C 
ATOM     22  O   UNL     1       7.711   5.076  18.661  0.00  0.00    +0.000 OA
ENDBRANCH  19  20
ENDBRANCH  14  19
ENDBRANCH   5  14
TORSDOF 7
ENDMDL
MODEL 6
REMARK VINA RESULT:      -6.8      1.509      3.436
REMARK  Name = 
REMARK  11 active torsions:
REMARK  status: ('A' for Active; 'I' for Inactive)
REMARK    1  A    between atoms: C_1  and  O_2
REMARK    2  A    between atoms: O_2  and  C_3
REMARK    3  A    between atoms: C_7  and  O_8
REMARK    4  A    between atoms: C_7  and  C_9
REMARK    5  A    between atoms: C_9  and  C_10
REMARK    6  A    between atoms: C_9  and  O_14
REMARK    7  A    between atoms: C_11  and  C_12
REMARK    8  A    between atoms: C_11  and  C_13
REMARK    9  A    between atoms: O_14  and  C_15
REMARK   10  A    between atoms: C_15  and  C_16
REMARK   11  A    between atoms: C_19  and  O_20
REMARK                            x       y       z     vdW  Elec       q    Type
REMARK                         _______ _______ _______ _____ _____    ______ ____
ROOT
ATOM      1  C   UNL     1       6.862   6.026  16.925  0.00  0.00    +0.000 C 
ATOM      2  C   UNL     1       5.993   5.694  15.966  0.00  0.00    +0.000 C 
ATOM      3  C   UNL     1       5.116   4.527  16.146  0.00  0.00    +0.000 C 
ATOM      4  O   UNL     1       4.747   3.899  15.153  0.00  0.00    +0.000 OA
ATOM      5  C   UNL     1       4.720   4.088  17.558  0.00  0.00    +0.000 C 
ATOM      6  C   UNL     1       5.748   4.447  18.648  0.00  0.00    +0.000 C 
ATOM      7  C   UNL     1       6.955   5.291  18.235  0.00  0.00    +0.000 C 
ENDROOT
BRANCH   1   9
ATOM      8  C   UNL     1       7.829   8.037  17.790  0.00  0.00    +0.000 C 
ATOM      9  O   UNL     1       7.677   7.129  16.699  0.00  0.00    +0.000 OA
ENDBRANCH   1   9
BRANCH   5  10
ATOM     10  O   UNL     1       4.678   2.639  17.533  0.00  0.00    +0.000 OA
ATOM     11  H   UNL     1       4.257   2.359  18.374  0.00  0.00    +0.000 HD
ENDBRANCH   5  10
BRANCH   7  12
ATOM     12  O   UNL     1       8.115   4.454  18.208  0.00  0.00    +0.000 OA
ATOM     13  H   UNL     1       7.915   3.675  17.661  0.00  0.00    +0.000 HD
ENDBRANCH   7  12
BRANCH   5  14
ATOM     14  C   UNL     1       3.298   4.661  17.911  0.00  0.00    +0.000 C 
BRANCH  14  15
ATOM     15  C   UNL     1       3.147   6.156  17.664  0.00  0.00    +0.000 C 
ATOM     16  C   UNL     1       2.690   7.189  18.406  0.00  0.00    +0.000 C 
ATOM     17  C   UNL     1       2.201   7.160  19.826  0.00  0.00    +0.000 C 
ATOM     18  C   UNL     1       2.612   8.568  17.788  0.00  0.00    +0.000 C 
ENDBRANCH  14  15
BRANCH  14  19
ATOM     19  O   UNL     1       2.963   4.326  19.270  0.00  0.00    +0.000 OA
BRANCH  19  20
ATOM     20  C   UNL     1       2.054   3.332  19.479  0.00  0.00    +0.000 C 
ATOM     21  C   UNL     1       1.055   3.751  20.517  0.00  0.00    +0.000 C 
ATOM     22  O   UNL     1       2.020   2.263  18.892  0.00  0.00    +0.000 OA
ENDBRANCH  19  20
ENDBRANCH  14  19
ENDBRANCH   5  14
TORSDOF 7
ENDMDL
MODEL 7
REMARK VINA RESULT:      -6.8      1.759      2.777
REMARK  Name = 
REMARK  11 active torsions:
REMARK  status: ('A' for Active; 'I' for Inactive)
REMARK    1  A    between atoms: C_1  and  O_2
REMARK    2  A    between atoms: O_2  and  C_3
REMARK    3  A    between atoms: C_7  and  O_8
REMARK    4  A    between atoms: C_7  and  C_9
REMARK    5  A    between atoms: C_9  and  C_10
REMARK    6  A    between atoms: C_9  and  O_14
REMARK    7  A    between atoms: C_11  and  C_12
REMARK    8  A    between atoms: C_11  and  C_13
REMARK    9  A    between atoms: O_14  and  C_15
REMARK   10  A    between atoms: C_15  and  C_16
REMARK   11  A    between atoms: C_19  and  O_20
REMARK                            x       y       z     vdW  Elec       q    Type
REMARK                         _______ _______ _______ _____ _____    ______ ____
ROOT
ATOM      1  C   UNL     1       7.283   6.368  18.063  0.00  0.00    +0.000 C 
ATOM      2  C   UNL     1       6.430   6.998  17.251  0.00  0.00    +0.000 C 
ATOM      3  C   UNL     1       5.343   6.246  16.608  0.00  0.00    +0.000 C 
ATOM      4  O   UNL     1       4.928   6.619  15.510  0.00  0.00    +0.000 OA
ATOM      5  C   UNL     1       4.784   4.993  17.286  0.00  0.00    +0.000 C 
ATOM      6  C   UNL     1       5.789   4.258  18.193  0.00  0.00    +0.000 C 
ATOM      7  C   UNL     1       7.155   4.909  18.412  0.00  0.00    +0.000 C 
ENDROOT
BRANCH   1   9
ATOM      8  C   UNL     1       8.351   8.500  18.266  0.00  0.00    +0.000 C 
ATOM      9  O   UNL     1       8.301   7.122  18.635  0.00  0.00    +0.000 OA
ENDBRANCH   1   9
BRANCH   5  10
ATOM     10  O   UNL     1       4.474   4.061  16.220  0.00  0.00    +0.000 OA
ATOM     11  H   UNL     1       5.022   3.263  16.381  0.00  0.00    +0.000 HD
ENDBRANCH   5  10
BRANCH   7  12
ATOM     12  O   UNL     1       8.138   4.176  17.677  0.00  0.00    +0.000 OA
ATOM     13  H   UNL     1       8.910   4.753  17.542  0.00  0.00    +0.000 HD
ENDBRANCH   7  12
BRANCH   5  14
ATOM     14  C   UNL     1       3.472   5.359  18.076  0.00  0.00    +0.000 C 
BRANCH  14  15
ATOM     15  C   UNL     1       2.419   4.259  18.083  0.00  0.00    +0.000 C 
ATOM     16  C   UNL     1       1.582   3.766  19.023  0.00  0.00    +0.000 C 
ATOM     17  C   UNL     1       1.407   4.235  20.439  0.00  0.00    +0.000 C 
ATOM     18  C   UNL     1       0.703   2.582  18.684  0.00  0.00    +0.000 C 
ENDBRANCH  14  15
BRANCH  14  19
ATOM     19  O   UNL     1       2.928   6.591  17.569  0.00  0.00    +0.000 OA
BRANCH  19  20
ATOM     20  C   UNL     1       2.542   7.539  18.470  0.00  0.00    +0.000 C 
ATOM     21  C   UNL     1       2.245   8.832  17.768  0.00  0.00    +0.000 C 
ATOM     22  O   UNL     1       2.416   7.370  19.671  0.00  0.00    +0.000 OA
ENDBRANCH  19  20
ENDBRANCH  14  19
ENDBRANCH   5  14
TORSDOF 7
ENDMDL
MODEL 8
REMARK VINA RESULT:      -6.7      1.253      1.594
REMARK  Name = 
REMARK  11 active torsions:
REMARK  status: ('A' for Active; 'I' for Inactive)
REMARK    1  A    between atoms: C_1  and  O_2
REMARK    2  A    between atoms: O_2  and  C_3
REMARK    3  A    between atoms: C_7  and  O_8
REMARK    4  A    between atoms: C_7  and  C_9
REMARK    5  A    between atoms: C_9  and  C_10
REMARK    6  A    between atoms: C_9  and  O_14
REMARK    7  A    between atoms: C_11  and  C_12
REMARK    8  A    between atoms: C_11  and  C_13
REMARK    9  A    between atoms: O_14  and  C_15
REMARK   10  A    between atoms: C_15  and  C_16
REMARK   11  A    between atoms: C_19  and  O_20
REMARK                            x       y       z     vdW  Elec       q    Type
REMARK                         _______ _______ _______ _____ _____    ______ ____
ROOT
ATOM      1  C   UNL     1       6.855   5.999  17.167  0.00  0.00    +0.000 C 
ATOM      2  C   UNL     1       5.641   5.887  16.621  0.00  0.00    +0.000 C 
ATOM      3  C   UNL     1       4.719   4.845  17.096  0.00  0.00    +0.000 C 
ATOM      4  O   UNL     1       3.896   4.372  16.311  0.00  0.00    +0.000 OA
ATOM      5  C   UNL     1       4.831   4.334  18.535  0.00  0.00    +0.000 C 
ATOM      6  C   UNL     1       6.244   4.438  19.139  0.00  0.00    +0.000 C 
ATOM      7  C   UNL     1       7.321   5.137  18.309  0.00  0.00    +0.000 C 
ENDROOT
BRANCH   1   9
ATOM      8  C   UNL     1       7.812   8.172  17.465  0.00  0.00    +0.000 C 
ATOM      9  O   UNL     1       7.692   6.991  16.671  0.00  0.00    +0.000 OA
ENDBRANCH   1   9
BRANCH   5  10
ATOM     10  O   UNL     1       4.539   2.914  18.483  0.00  0.00    +0.000 OA
ATOM     11  H   UNL     1       5.333   2.455  18.832  0.00  0.00    +0.000 HD
ENDBRANCH   5  10
BRANCH   7  12
ATOM     12  O   UNL     1       8.222   4.150  17.798  0.00  0.00    +0.000 OA
ATOM     13  H   UNL     1       8.710   4.541  17.053  0.00  0.00    +0.000 HD
ENDBRANCH   7  12
BRANCH   5  14
ATOM     14  C   UNL     1       3.773   5.066  19.441  0.00  0.00    +0.000 C 
BRANCH  14  15
ATOM     15  C   UNL     1       3.036   4.149  20.408  0.00  0.00    +0.000 C 
ATOM     16  C   UNL     1       1.912   3.402  20.323  0.00  0.00    +0.000 C 
ATOM     17  C   UNL     1       1.019   3.213  19.131  0.00  0.00    +0.000 C 
ATOM     18  C   UNL     1       1.424   2.657  21.546  0.00  0.00    +0.000 C 
ENDBRANCH  14  15
BRANCH  14  19
ATOM     19  O   UNL     1       2.847   5.794  18.614  0.00  0.00    +0.000 OA
BRANCH  19  20
ATOM     20  C   UNL     1       2.515   7.063  18.989  0.00  0.00    +0.000 C 
ATOM     21  C   UNL     1       2.714   8.012  17.844  0.00  0.00    +0.000 C 
ATOM     22  O   UNL     1       2.085   7.392  20.082  0.00  0.00    +0.000 OA
ENDBRANCH  19  20
ENDBRANCH  14  19
ENDBRANCH   5  14
TORSDOF 7
ENDMDL
MODEL 9
REMARK VINA RESULT:      -6.6      0.766      1.168
REMARK  Name = 
REMARK  11 active torsions:
REMARK  status: ('A' for Active; 'I' for Inactive)
REMARK    1  A    between atoms: C_1  and  O_2
REMARK    2  A    between atoms: O_2  and  C_3
REMARK    3  A    between atoms: C_7  and  O_8
REMARK    4  A    between atoms: C_7  and  C_9
REMARK    5  A    between atoms: C_9  and  C_10
REMARK    6  A    between atoms: C_9  and  O_14
REMARK    7  A    between atoms: C_11  and  C_12
REMARK    8  A    between atoms: C_11  and  C_13
REMARK    9  A    between atoms: O_14  and  C_15
REMARK   10  A    between atoms: C_15  and  C_16
REMARK   11  A    between atoms: C_19  and  O_20
REMARK                            x       y       z     vdW  Elec       q    Type
REMARK                         _______ _______ _______ _____ _____    ______ ____
ROOT
ATOM      1  C   UNL     1       6.325   4.908  16.432  0.00  0.00    +0.000 C 
ATOM      2  C   UNL     1       5.165   4.251  16.338  0.00  0.00    +0.000 C 
ATOM      3  C   UNL     1       4.629   3.543  17.509  0.00  0.00    +0.000 C 
ATOM      4  O   UNL     1       3.933   2.542  17.335  0.00  0.00    +0.000 OA
ATOM      5  C   UNL     1       4.984   4.031  18.917  0.00  0.00    +0.000 C 
ATOM      6  C   UNL     1       6.339   4.756  19.016  0.00  0.00    +0.000 C 
ATOM      7  C   UNL     1       7.102   5.016  17.717  0.00  0.00    +0.000 C 
ENDROOT
BRANCH   1   9
ATOM      8  C   UNL     1       6.844   4.762  14.100  0.00  0.00    +0.000 C 
ATOM      9  O   UNL     1       6.794   5.548  15.291  0.00  0.00    +0.000 OA
ENDBRANCH   1   9
BRANCH   5  10
ATOM     10  O   UNL     1       5.124   2.841  19.733  0.00  0.00    +0.000 OA
ATOM     11  H   UNL     1       4.574   2.986  20.533  0.00  0.00    +0.000 HD
ENDBRANCH   5  10
BRANCH   7  12
ATOM     12  O   UNL     1       8.219   4.126  17.651  0.00  0.00    +0.000 OA
ATOM     13  H   UNL     1       8.074   3.409  18.292  0.00  0.00    +0.000 HD
ENDBRANCH   7  12
BRANCH   5  14
ATOM     14  C   UNL     1       3.818   4.929  19.475  0.00  0.00    +0.000 C 
BRANCH  14  15
ATOM     15  C   UNL     1       2.436   4.298  19.369  0.00  0.00    +0.000 C 
ATOM     16  C   UNL     1       1.697   3.513  20.184  0.00  0.00    +0.000 C 
ATOM     17  C   UNL     1       2.041   3.036  21.566  0.00  0.00    +0.000 C 
ATOM     18  C   UNL     1       0.360   2.995  19.702  0.00  0.00    +0.000 C 
ENDBRANCH  14  15
BRANCH  14  19
ATOM     19  O   UNL     1       3.848   6.216  18.833  0.00  0.00    +0.000 OA
BRANCH  19  20
ATOM     20  C   UNL     1       2.678   6.912  18.740  0.00  0.00    +0.000 C 
ATOM     21  C   UNL     1       2.210   7.325  20.105  0.00  0.00    +0.000 C 
ATOM     22  O   UNL     1       2.100   7.197  17.705  0.00  0.00    +0.000 OA
ENDBRANCH  19  20
ENDBRANCH  14  19
ENDBRANCH   5  14
TORSDOF 7
ENDMDL
