MODEL 1
REMARK VINA RESULT:      -8.6      0.000      0.000
REMARK  Name = 
REMARK  1 active torsions:
REMARK  status: ('A' for Active; 'I' for Inactive)
REMARK    1  A    between atoms: C_2  and  C_3
REMARK                            x       y       z     vdW  Elec       q    Type
REMARK                         _______ _______ _______ _____ _____    ______ ____
ROOT
ATOM      1  O   UNL     1       1.844   9.103  17.198  0.00  0.00    +0.000 OA
ATOM      2  C   UNL     1       1.982   8.424  18.208  0.00  0.00    +0.000 C 
ATOM      3  N   UNL     1       1.511   8.807  19.498  0.00  0.00    +0.000 N 
ATOM      4  C   UNL     1       1.810   7.971  20.660  0.00  0.00    +0.000 C 
ATOM      5  C   UNL     1       0.786   7.926  21.758  0.00  0.00    +0.000 C 
ATOM      6  C   UNL     1      -0.255   8.999  21.661  0.00  0.00    +0.000 C 
ATOM      7  C   UNL     1       0.298  10.350  21.177  0.00  0.00    +0.000 C 
ATOM      8  C   UNL     1      -0.808  11.403  21.238  0.00  0.00    +0.000 A 
ATOM      9  C   UNL     1      -1.621  11.521  22.386  0.00  0.00    +0.000 A 
ATOM     10  C   UNL     1      -2.638  12.472  22.474  0.00  0.00    +0.000 A 
ATOM     11  C   UNL     1      -2.844  13.357  21.428  0.00  0.00    +0.000 A 
ATOM     12  C   UNL     1      -2.041  13.274  20.295  0.00  0.00    +0.000 A 
ATOM     13  C   UNL     1      -1.038  12.296  20.186  0.00  0.00    +0.000 A 
ATOM     14  C   UNL     1      -0.190  12.284  18.955  0.00  0.00    +0.000 C 
ATOM     15  C   UNL     1       0.385  10.917  18.638  0.00  0.00    +0.000 C 
ATOM     16  C   UNL     1       1.091  10.217  19.811  0.00  0.00    +0.000 C 
ENDROOT
BRANCH   2  17
ATOM     17  C   UNL     1       2.661   7.105  17.996  0.00  0.00    +0.000 A 
ATOM     18  C   UNL     1       4.005   6.999  17.578  0.00  0.00    +0.000 A 
ATOM     19  C   UNL     1       4.688   5.782  17.598  0.00  0.00    +0.000 A 
ATOM     20  C   UNL     1       3.954   4.655  17.853  0.00  0.00    +0.000 A 
ATOM     21  N   UNL     1       4.470   3.362  17.837  0.00  0.00    +0.000 N 
ATOM     22  C   UNL     1       3.563   2.358  18.047  0.00  0.00    +0.000 A 
ATOM     23  O   UNL     1       3.801   1.165  18.043  0.00  0.00    +0.000 OA
ATOM     24  S   UNL     1       1.953   3.064  18.320  0.00  0.00    +0.000 S 
ATOM     25  C   UNL     1       2.592   4.703  18.120  0.00  0.00    +0.000 A 
ATOM     26  C   UNL     1       1.924   5.922  18.222  0.00  0.00    +0.000 A 
ATOM     27  H   UNL     1       5.440   3.142  17.648  0.00  0.00    +0.000 HD
ENDBRANCH   2  17
TORSDOF 1
ENDMDL
MODEL 2
REMARK VINA RESULT:      -8.4      2.256      3.237
REMARK  Name = 
REMARK  1 active torsions:
REMARK  status: ('A' for Active; 'I' for Inactive)
REMARK    1  A    between atoms: C_2  and  C_3
REMARK                            x       y       z     vdW  Elec       q    Type
REMARK                         _______ _______ _______ _____ _____    ______ ____
ROOT
ATOM      1  O   UNL     1       1.961   6.314  20.819  0.00  0.00    +0.000 OA
ATOM      2  C   UNL     1       2.172   6.842  19.734  0.00  0.00    +0.000 C 
ATOM      3  N   UNL     1       1.630   8.101  19.341  0.00  0.00    +0.000 N 
ATOM      4  C   UNL     1       1.863   8.602  17.987  0.00  0.00    +0.000 C 
ATOM      5  C   UNL     1       1.974  10.091  17.813  0.00  0.00    +0.000 C 
ATOM      6  C   UNL     1       1.506  10.876  19.000  0.00  0.00    +0.000 C 
ATOM      7  C   UNL     1       0.272  10.270  19.690  0.00  0.00    +0.000 C 
ATOM      8  C   UNL     1      -0.202  11.209  20.799  0.00  0.00    +0.000 A 
ATOM      9  C   UNL     1      -0.333  12.594  20.556  0.00  0.00    +0.000 A 
ATOM     10  C   UNL     1      -0.764  13.477  21.546  0.00  0.00    +0.000 A 
ATOM     11  C   UNL     1      -1.113  12.993  22.796  0.00  0.00    +0.000 A 
ATOM     12  C   UNL     1      -1.013  11.629  23.052  0.00  0.00    +0.000 A 
ATOM     13  C   UNL     1      -0.547  10.738  22.070  0.00  0.00    +0.000 A 
ATOM     14  C   UNL     1      -0.495   9.282  22.402  0.00  0.00    +0.000 C 
ATOM     15  C   UNL     1       0.544   8.522  21.600  0.00  0.00    +0.000 C 
ATOM     16  C   UNL     1       0.492   8.749  20.080  0.00  0.00    +0.000 C 
ENDROOT
BRANCH   2  17
ATOM     17  C   UNL     1       3.096   6.084  18.831  0.00  0.00    +0.000 A 
ATOM     18  C   UNL     1       2.721   4.879  18.198  0.00  0.00    +0.000 A 
ATOM     19  C   UNL     1       3.500   4.303  17.193  0.00  0.00    +0.000 A 
ATOM     20  C   UNL     1       4.740   4.842  16.973  0.00  0.00    +0.000 A 
ATOM     21  N   UNL     1       5.663   4.340  16.061  0.00  0.00    +0.000 N 
ATOM     22  C   UNL     1       6.878   4.972  16.036  0.00  0.00    +0.000 A 
ATOM     23  O   UNL     1       7.828   4.673  15.337  0.00  0.00    +0.000 OA
ATOM     24  S   UNL     1       6.869   6.314  17.205  0.00  0.00    +0.000 S 
ATOM     25  C   UNL     1       5.206   5.939  17.686  0.00  0.00    +0.000 A 
ATOM     26  C   UNL     1       4.391   6.596  18.605  0.00  0.00    +0.000 A 
ATOM     27  H   UNL     1       5.494   3.537  15.467  0.00  0.00    +0.000 HD
ENDBRANCH   2  17
TORSDOF 1
ENDMDL
MODEL 3
REMARK VINA RESULT:      -8.3      1.848      2.236
REMARK  Name = 
REMARK  1 active torsions:
REMARK  status: ('A' for Active; 'I' for Inactive)
REMARK    1  A    between atoms: C_2  and  C_3
REMARK                            x       y       z     vdW  Elec       q    Type
REMARK                         _______ _______ _______ _____ _____    ______ ____
ROOT
ATOM      1  O   UNL     1       0.633   9.598  18.027  0.00  0.00    +0.000 OA
ATOM      2  C   UNL     1       1.094   9.204  19.091  0.00  0.00    +0.000 C 
ATOM      3  N   UNL     1       0.731   9.735  20.363  0.00  0.00    +0.000 N 
ATOM      4  C   UNL     1       1.410   9.262  21.570  0.00  0.00    +0.000 C 
ATOM      5  C   UNL     1       0.607   9.216  22.839  0.00  0.00    +0.000 C 
ATOM      6  C   UNL     1      -0.686   9.970  22.766  0.00  0.00    +0.000 C 
ATOM      7  C   UNL     1      -0.591  11.277  21.959  0.00  0.00    +0.000 C 
ATOM      8  C   UNL     1      -1.917  12.030  22.055  0.00  0.00    +0.000 A 
ATOM      9  C   UNL     1      -2.555  12.199  23.304  0.00  0.00    +0.000 A 
ATOM     10  C   UNL     1      -3.765  12.883  23.425  0.00  0.00    +0.000 A 
ATOM     11  C   UNL     1      -4.351  13.449  22.305  0.00  0.00    +0.000 A 
ATOM     12  C   UNL     1      -3.730  13.314  21.067  0.00  0.00    +0.000 A 
ATOM     13  C   UNL     1      -2.529  12.597  20.932  0.00  0.00    +0.000 A 
ATOM     14  C   UNL     1      -1.898  12.518  19.579  0.00  0.00    +0.000 C 
ATOM     15  C   UNL     1      -1.031  11.288  19.394  0.00  0.00    +0.000 C 
ATOM     16  C   UNL     1       0.001  11.042  20.508  0.00  0.00    +0.000 C 
ENDROOT
BRANCH   2  17
ATOM     17  C   UNL     1       2.062   8.065  18.978  0.00  0.00    +0.000 A 
ATOM     18  C   UNL     1       2.123   7.022  19.926  0.00  0.00    +0.000 A 
ATOM     19  C   UNL     1       2.866   5.862  19.697  0.00  0.00    +0.000 A 
ATOM     20  C   UNL     1       3.691   5.852  18.605  0.00  0.00    +0.000 A 
ATOM     21  N   UNL     1       4.548   4.805  18.279  0.00  0.00    +0.000 N 
ATOM     22  C   UNL     1       5.349   5.010  17.187  0.00  0.00    +0.000 A 
ATOM     23  O   UNL     1       6.183   4.238  16.754  0.00  0.00    +0.000 OA
ATOM     24  S   UNL     1       4.993   6.606  16.485  0.00  0.00    +0.000 S 
ATOM     25  C   UNL     1       3.773   6.926  17.729  0.00  0.00    +0.000 A 
ATOM     26  C   UNL     1       2.947   8.038  17.880  0.00  0.00    +0.000 A 
ATOM     27  H   UNL     1       4.627   3.949  18.816  0.00  0.00    +0.000 HD
ENDBRANCH   2  17
TORSDOF 1
ENDMDL
MODEL 4
REMARK VINA RESULT:      -8.2      1.013      1.013
REMARK  Name = 
REMARK  1 active torsions:
REMARK  status: ('A' for Active; 'I' for Inactive)
REMARK    1  A    between atoms: C_2  and  C_3
REMARK                            x       y       z     vdW  Elec       q    Type
REMARK                         _______ _______ _______ _____ _____    ______ ____
ROOT
ATOM      1  O   UNL     1       1.482   8.721  17.377  0.00  0.00    +0.000 OA
ATOM      2  C   UNL     1       1.807   8.339  18.494  0.00  0.00    +0.000 C 
ATOM      3  N   UNL     1       1.384   8.960  19.705  0.00  0.00    +0.000 N 
ATOM      4  C   UNL     1       1.906   8.487  20.987  0.00  0.00    +0.000 C 
ATOM      5  C   UNL     1       0.992   8.573  22.177  0.00  0.00    +0.000 C 
ATOM      6  C   UNL     1      -0.214   9.433  21.955  0.00  0.00    +0.000 C 
ATOM      7  C   UNL     1       0.073  10.686  21.109  0.00  0.00    +0.000 C 
ATOM      8  C   UNL     1      -1.182  11.558  21.052  0.00  0.00    +0.000 A 
ATOM      9  C   UNL     1      -1.910  11.842  22.228  0.00  0.00    +0.000 A 
ATOM     10  C   UNL     1      -3.058  12.634  22.209  0.00  0.00    +0.000 A 
ATOM     11  C   UNL     1      -3.487  13.196  21.018  0.00  0.00    +0.000 A 
ATOM     12  C   UNL     1      -2.774  12.948  19.850  0.00  0.00    +0.000 A 
ATOM     13  C   UNL     1      -1.636  12.122  19.855  0.00  0.00    +0.000 A 
ATOM     14  C   UNL     1      -0.898  11.923  18.571  0.00  0.00    +0.000 C 
ATOM     15  C   UNL     1      -0.134  10.614  18.516  0.00  0.00    +0.000 C 
ATOM     16  C   UNL     1       0.766  10.331  19.729  0.00  0.00    +0.000 C 
ENDROOT
BRANCH   2  17
ATOM     17  C   UNL     1       2.673   7.115  18.517  0.00  0.00    +0.000 A 
ATOM     18  C   UNL     1       3.892   7.033  17.811  0.00  0.00    +0.000 A 
ATOM     19  C   UNL     1       4.791   5.984  18.015  0.00  0.00    +0.000 A 
ATOM     20  C   UNL     1       4.364   4.933  18.781  0.00  0.00    +0.000 A 
ATOM     21  N   UNL     1       5.110   3.782  19.018  0.00  0.00    +0.000 N 
ATOM     22  C   UNL     1       4.484   2.808  19.751  0.00  0.00    +0.000 A 
ATOM     23  O   UNL     1       4.946   1.722  20.043  0.00  0.00    +0.000 OA
ATOM     24  S   UNL     1       2.860   3.371  20.214  0.00  0.00    +0.000 S 
ATOM     25  C   UNL     1       3.107   4.908  19.370  0.00  0.00    +0.000 A 
ATOM     26  C   UNL     1       2.249   6.002  19.273  0.00  0.00    +0.000 A 
ATOM     27  H   UNL     1       6.043   3.626  18.655  0.00  0.00    +0.000 HD
ENDBRANCH   2  17
TORSDOF 1
ENDMDL
MODEL 5
REMARK VINA RESULT:      -8.2      1.437      1.646
REMARK  Name = 
REMARK  1 active torsions:
REMARK  status: ('A' for Active; 'I' for Inactive)
REMARK    1  A    between atoms: C_2  and  C_3
REMARK                            x       y       z     vdW  Elec       q    Type
REMARK                         _______ _______ _______ _____ _____    ______ ____
ROOT
ATOM      1  O   UNL     1       0.641   9.640  17.882  0.00  0.00    +0.000 OA
ATOM      2  C   UNL     1       1.125   9.182  18.910  0.00  0.00    +0.000 C 
ATOM      3  N   UNL     1       0.811   9.653  20.218  0.00  0.00    +0.000 N 
ATOM      4  C   UNL     1       1.515   9.105  21.377  0.00  0.00    +0.000 C 
ATOM      5  C   UNL     1       0.749   9.008  22.666  0.00  0.00    +0.000 C 
ATOM      6  C   UNL     1      -0.529   9.790  22.672  0.00  0.00    +0.000 C 
ATOM      7  C   UNL     1      -0.430  11.135  21.931  0.00  0.00    +0.000 C 
ATOM      8  C   UNL     1      -1.737  11.908  22.106  0.00  0.00    +0.000 A 
ATOM      9  C   UNL     1      -2.334  12.025  23.380  0.00  0.00    +0.000 A 
ATOM     10  C   UNL     1      -3.525  12.724  23.574  0.00  0.00    +0.000 A 
ATOM     11  C   UNL     1      -4.132  13.359  22.502  0.00  0.00    +0.000 A 
ATOM     12  C   UNL     1      -3.551  13.277  21.241  0.00  0.00    +0.000 A 
ATOM     13  C   UNL     1      -2.370  12.545  21.032  0.00  0.00    +0.000 A 
ATOM     14  C   UNL     1      -1.781  12.524  19.659  0.00  0.00    +0.000 C 
ATOM     15  C   UNL     1      -0.945  11.289  19.384  0.00  0.00    +0.000 C 
ATOM     16  C   UNL     1       0.113  10.965  20.452  0.00  0.00    +0.000 C 
ENDROOT
BRANCH   2  17
ATOM     17  C   UNL     1       2.065   8.032  18.708  0.00  0.00    +0.000 A 
ATOM     18  C   UNL     1       3.067   8.034  17.714  0.00  0.00    +0.000 A 
ATOM     19  C   UNL     1       4.071   7.065  17.680  0.00  0.00    +0.000 A 
ATOM     20  C   UNL     1       3.942   5.998  18.529  0.00  0.00    +0.000 A 
ATOM     21  N   UNL     1       4.815   4.915  18.566  0.00  0.00    +0.000 N 
ATOM     22  C   UNL     1       4.479   3.910  19.433  0.00  0.00    +0.000 A 
ATOM     23  O   UNL     1       5.089   2.870  19.596  0.00  0.00    +0.000 OA
ATOM     24  S   UNL     1       2.987   4.349  20.297  0.00  0.00    +0.000 S 
ATOM     25  C   UNL     1       2.883   5.885  19.419  0.00  0.00    +0.000 A 
ATOM     26  C   UNL     1       1.941   6.904  19.547  0.00  0.00    +0.000 A 
ATOM     27  H   UNL     1       5.634   4.827  17.976  0.00  0.00    +0.000 HD
ENDBRANCH   2  17
TORSDOF 1
ENDMDL
MODEL 6
REMARK VINA RESULT:      -8.1      1.725      2.029
REMARK  Name = 
REMARK  1 active torsions:
REMARK  status: ('A' for Active; 'I' for Inactive)
REMARK    1  A    between atoms: C_2  and  C_3
REMARK                            x       y       z     vdW  Elec       q    Type
REMARK                         _______ _______ _______ _____ _____    ______ ____
ROOT
ATOM      1  O   UNL     1       0.942   9.284  17.393  0.00  0.00    +0.000 OA
ATOM      2  C   UNL     1       1.405   8.777  18.408  0.00  0.00    +0.000 C 
ATOM      3  N   UNL     1       1.117   9.230  19.728  0.00  0.00    +0.000 N 
ATOM      4  C   UNL     1       1.797   8.619  20.871  0.00  0.00    +0.000 C 
ATOM      5  C   UNL     1       1.030   8.527  22.160  0.00  0.00    +0.000 C 
ATOM      6  C   UNL     1      -0.209   9.368  22.189  0.00  0.00    +0.000 C 
ATOM      7  C   UNL     1      -0.048  10.725  21.483  0.00  0.00    +0.000 C 
ATOM      8  C   UNL     1      -1.317  11.555  21.682  0.00  0.00    +0.000 A 
ATOM      9  C   UNL     1      -1.904  11.667  22.961  0.00  0.00    +0.000 A 
ATOM     10  C   UNL     1      -3.060  12.417  23.176  0.00  0.00    +0.000 A 
ATOM     11  C   UNL     1      -3.639  13.108  22.123  0.00  0.00    +0.000 A 
ATOM     12  C   UNL     1      -3.065  13.030  20.858  0.00  0.00    +0.000 A 
ATOM     13  C   UNL     1      -1.920  12.248  20.627  0.00  0.00    +0.000 A 
ATOM     14  C   UNL     1      -1.336  12.234  19.251  0.00  0.00    +0.000 C 
ATOM     15  C   UNL     1      -0.561  10.968  18.943  0.00  0.00    +0.000 C 
ATOM     16  C   UNL     1       0.483  10.566  19.998  0.00  0.00    +0.000 C 
ENDROOT
BRANCH   2  17
ATOM     17  C   UNL     1       2.288   7.590  18.174  0.00  0.00    +0.000 A 
ATOM     18  C   UNL     1       1.847   6.263  18.369  0.00  0.00    +0.000 A 
ATOM     19  C   UNL     1       2.598   5.167  17.940  0.00  0.00    +0.000 A 
ATOM     20  C   UNL     1       3.870   5.414  17.495  0.00  0.00    +0.000 A 
ATOM     21  N   UNL     1       4.768   4.427  17.102  0.00  0.00    +0.000 N 
ATOM     22  C   UNL     1       6.019   4.865  16.756  0.00  0.00    +0.000 A 
ATOM     23  O   UNL     1       6.954   4.167  16.414  0.00  0.00    +0.000 OA
ATOM     24  S   UNL     1       6.082   6.638  16.892  0.00  0.00    +0.000 S 
ATOM     25  C   UNL     1       4.395   6.698  17.431  0.00  0.00    +0.000 A 
ATOM     26  C   UNL     1       3.614   7.809  17.743  0.00  0.00    +0.000 A 
ATOM     27  H   UNL     1       4.556   3.436  17.097  0.00  0.00    +0.000 HD
ENDBRANCH   2  17
TORSDOF 1
ENDMDL
MODEL 7
REMARK VINA RESULT:      -8.1      5.113     10.055
REMARK  Name = 
REMARK  1 active torsions:
REMARK  status: ('A' for Active; 'I' for Inactive)
REMARK    1  A    between atoms: C_2  and  C_3
REMARK                            x       y       z     vdW  Elec       q    Type
REMARK                         _______ _______ _______ _____ _____    ______ ____
ROOT
ATOM      1  O   UNL     1      -1.537  10.751  23.485  0.00  0.00    +0.000 OA
ATOM      2  C   UNL     1      -1.611  11.630  22.635  0.00  0.00    +0.000 C 
ATOM      3  N   UNL     1      -0.843  11.645  21.435  0.00  0.00    +0.000 N 
ATOM      4  C   UNL     1      -0.933  12.789  20.528  0.00  0.00    +0.000 C 
ATOM      5  C   UNL     1      -0.775  12.518  19.058  0.00  0.00    +0.000 C 
ATOM      6  C   UNL     1      -0.222  11.160  18.748  0.00  0.00    +0.000 C 
ATOM      7  C   UNL     1       0.859  10.696  19.740  0.00  0.00    +0.000 C 
ATOM      8  C   UNL     1       1.448   9.367  19.264  0.00  0.00    +0.000 A 
ATOM      9  C   UNL     1       1.828   9.196  17.915  0.00  0.00    +0.000 A 
ATOM     10  C   UNL     1       2.369   7.998  17.450  0.00  0.00    +0.000 A 
ATOM     11  C   UNL     1       2.580   6.949  18.331  0.00  0.00    +0.000 A 
ATOM     12  C   UNL     1       2.233   7.103  19.670  0.00  0.00    +0.000 A 
ATOM     13  C   UNL     1       1.656   8.295  20.138  0.00  0.00    +0.000 A 
ATOM     14  C   UNL     1       1.337   8.405  21.594  0.00  0.00    +0.000 C 
ATOM     15  C   UNL     1       0.213   9.379  21.889  0.00  0.00    +0.000 C 
ATOM     16  C   UNL     1       0.362  10.766  21.243  0.00  0.00    +0.000 C 
ENDROOT
BRANCH   2  17
ATOM     17  C   UNL     1      -2.618  12.702  22.920  0.00  0.00    +0.000 A 
ATOM     18  C   UNL     1      -3.949  12.640  22.454  0.00  0.00    +0.000 A 
ATOM     19  C   UNL     1      -4.930  13.524  22.907  0.00  0.00    +0.000 A 
ATOM     20  C   UNL     1      -4.516  14.579  23.675  0.00  0.00    +0.000 A 
ATOM     21  N   UNL     1      -5.356  15.585  24.143  0.00  0.00    +0.000 N 
ATOM     22  C   UNL     1      -4.744  16.596  24.836  0.00  0.00    +0.000 A 
ATOM     23  O   UNL     1      -5.290  17.579  25.302  0.00  0.00    +0.000 OA
ATOM     24  S   UNL     1      -3.000  16.262  24.950  0.00  0.00    +0.000 S 
ATOM     25  C   UNL     1      -3.186  14.760  24.030  0.00  0.00    +0.000 A 
ATOM     26  C   UNL     1      -2.218  13.818  23.685  0.00  0.00    +0.000 A 
ATOM     27  H   UNL     1      -6.353  15.618  23.967  0.00  0.00    +0.000 HD
ENDBRANCH   2  17
TORSDOF 1
ENDMDL
MODEL 8
REMARK VINA RESULT:      -8.1      3.728      8.963
REMARK  Name = 
REMARK  1 active torsions:
REMARK  status: ('A' for Active; 'I' for Inactive)
REMARK    1  A    between atoms: C_2  and  C_3
REMARK                            x       y       z     vdW  Elec       q    Type
REMARK                         _______ _______ _______ _____ _____    ______ ____
ROOT
ATOM      1  O   UNL     1      -0.417   8.468  21.825  0.00  0.00    +0.000 OA
ATOM      2  C   UNL     1       0.029   9.235  20.981  0.00  0.00    +0.000 C 
ATOM      3  N   UNL     1       1.052   8.889  20.051  0.00  0.00    +0.000 N 
ATOM      4  C   UNL     1       1.586   9.906  19.145  0.00  0.00    +0.000 C 
ATOM      5  C   UNL     1       2.034   9.451  17.785  0.00  0.00    +0.000 C 
ATOM      6  C   UNL     1       2.177   7.965  17.660  0.00  0.00    +0.000 C 
ATOM      7  C   UNL     1       2.742   7.293  18.924  0.00  0.00    +0.000 C 
ATOM      8  C   UNL     1       2.971   5.806  18.650  0.00  0.00    +0.000 A 
ATOM      9  C   UNL     1       3.621   5.389  17.468  0.00  0.00    +0.000 A 
ATOM     10  C   UNL     1       3.846   4.041  17.188  0.00  0.00    +0.000 A 
ATOM     11  C   UNL     1       3.461   3.075  18.104  0.00  0.00    +0.000 A 
ATOM     12  C   UNL     1       2.838   3.464  19.285  0.00  0.00    +0.000 A 
ATOM     13  C   UNL     1       2.576   4.818  19.557  0.00  0.00    +0.000 A 
ATOM     14  C   UNL     1       1.933   5.168  20.860  0.00  0.00    +0.000 C 
ATOM     15  C   UNL     1       1.151   6.466  20.811  0.00  0.00    +0.000 C 
ATOM     16  C   UNL     1       1.911   7.666  20.221  0.00  0.00    +0.000 C 
ENDROOT
BRANCH   2  17
ATOM     17  C   UNL     1      -0.611  10.589  20.955  0.00  0.00    +0.000 A 
ATOM     18  C   UNL     1      -1.274  11.095  19.816  0.00  0.00    +0.000 A 
ATOM     19  C   UNL     1      -2.052  12.253  19.872  0.00  0.00    +0.000 A 
ATOM     20  C   UNL     1      -1.997  12.991  21.025  0.00  0.00    +0.000 A 
ATOM     21  N   UNL     1      -2.654  14.203  21.211  0.00  0.00    +0.000 N 
ATOM     22  C   UNL     1      -2.419  14.829  22.407  0.00  0.00    +0.000 A 
ATOM     23  O   UNL     1      -2.870  15.904  22.755  0.00  0.00    +0.000 OA
ATOM     24  S   UNL     1      -1.329  13.826  23.393  0.00  0.00    +0.000 S 
ATOM     25  C   UNL     1      -1.233  12.602  22.116  0.00  0.00    +0.000 A 
ATOM     26  C   UNL     1      -0.548  11.388  22.117  0.00  0.00    +0.000 A 
ATOM     27  H   UNL     1      -3.245  14.642  20.514  0.00  0.00    +0.000 HD
ENDBRANCH   2  17
TORSDOF 1
ENDMDL
MODEL 9
REMARK VINA RESULT:      -7.7      4.859      9.851
REMARK  Name = 
REMARK  1 active torsions:
REMARK  status: ('A' for Active; 'I' for Inactive)
REMARK    1  A    between atoms: C_2  and  C_3
REMARK                            x       y       z     vdW  Elec       q    Type
REMARK                         _______ _______ _______ _____ _____    ______ ____
ROOT
ATOM      1  O   UNL     1      -1.608  10.861  23.480  0.00  0.00    +0.000 OA
ATOM      2  C   UNL     1      -1.717  11.710  22.604  0.00  0.00    +0.000 C 
ATOM      3  N   UNL     1      -0.966  11.709  21.393  0.00  0.00    +0.000 N 
ATOM      4  C   UNL     1      -1.099  12.821  20.452  0.00  0.00    +0.000 C 
ATOM      5  C   UNL     1      -0.953  12.509  18.990  0.00  0.00    +0.000 C 
ATOM      6  C   UNL     1      -0.368  11.157  18.714  0.00  0.00    +0.000 C 
ATOM      7  C   UNL     1       0.739  10.754  19.704  0.00  0.00    +0.000 C 
ATOM      8  C   UNL     1       1.357   9.428  19.261  0.00  0.00    +0.000 A 
ATOM      9  C   UNL     1       1.724   9.225  17.912  0.00  0.00    +0.000 A 
ATOM     10  C   UNL     1       2.291   8.027  17.477  0.00  0.00    +0.000 A 
ATOM     11  C   UNL     1       2.543   7.013  18.387  0.00  0.00    +0.000 A 
ATOM     12  C   UNL     1       2.210   7.199  19.725  0.00  0.00    +0.000 A 
ATOM     13  C   UNL     1       1.606   8.389  20.165  0.00  0.00    +0.000 A 
ATOM     14  C   UNL     1       1.305   8.535  21.621  0.00  0.00    +0.000 C 
ATOM     15  C   UNL     1       0.158   9.487  21.902  0.00  0.00    +0.000 C 
ATOM     16  C   UNL     1       0.261  10.857  21.211  0.00  0.00    +0.000 C 
ENDROOT
BRANCH   2  17
ATOM     17  C   UNL     1      -2.749  12.764  22.870  0.00  0.00    +0.000 A 
ATOM     18  C   UNL     1      -2.472  13.929  23.618  0.00  0.00    +0.000 A 
ATOM     19  C   UNL     1      -3.367  14.999  23.671  0.00  0.00    +0.000 A 
ATOM     20  C   UNL     1      -4.610  14.804  23.131  0.00  0.00    +0.000 A 
ATOM     21  N   UNL     1      -5.637  15.743  23.168  0.00  0.00    +0.000 N 
ATOM     22  C   UNL     1      -6.832  15.337  22.637  0.00  0.00    +0.000 A 
ATOM     23  O   UNL     1      -7.858  15.991  22.597  0.00  0.00    +0.000 OA
ATOM     24  S   UNL     1      -6.668  13.680  22.011  0.00  0.00    +0.000 S 
ATOM     25  C   UNL     1      -4.972  13.612  22.519  0.00  0.00    +0.000 A 
ATOM     26  C   UNL     1      -4.049  12.582  22.352  0.00  0.00    +0.000 A 
ATOM     27  H   UNL     1      -5.550  16.661  23.587  0.00  0.00    +0.000 HD
ENDBRANCH   2  17
TORSDOF 1
ENDMDL
