MODEL 1
REMARK VINA RESULT:      -8.1      0.000      0.000
REMARK  Name = 
REMARK  11 active torsions:
REMARK  status: ('A' for Active; 'I' for Inactive)
REMARK    1  A    between atoms: C_1  and  C_2
REMARK    2  A    between atoms: C_2  and  C_3
REMARK    3  A    between atoms: C_2  and  C_4
REMARK    4  A    between atoms: C_4  and  C_5
REMARK    5  A    between atoms: C_8  and  N_9
REMARK    6  A    between atoms: C_14  and  O_15
REMARK    7  A    between atoms: C_19  and  C_20
REMARK    8  A    between atoms: C_19  and  C_21
REMARK    9  A    between atoms: C_24  and  C_25
REMARK   10  A    between atoms: C_26  and  C_27
REMARK   11  A    between atoms: C_27  and  O_29
REMARK                            x       y       z     vdW  Elec       q    Type
REMARK                         _______ _______ _______ _____ _____    ______ ____
ROOT
ATOM      1  N   UNL     1       3.301   4.989  17.516  0.00  0.00    +0.000 N 
ATOM      2  C   UNL     1       1.988   4.463  17.113  0.00  0.00    +0.000 C 
ATOM      3  C   UNL     1       1.589   3.265  17.969  0.00  0.00    +0.000 C 
ATOM      4  C   UNL     1       1.824   3.481  19.441  0.00  0.00    +0.000 A 
ATOM      5  C   UNL     1       1.204   2.606  20.358  0.00  0.00    +0.000 A 
ATOM      6  C   UNL     1       1.417   2.765  21.726  0.00  0.00    +0.000 A 
ATOM      7  C   UNL     1       2.219   3.775  22.206  0.00  0.00    +0.000 A 
ATOM      8  C   UNL     1       2.824   4.652  21.307  0.00  0.00    +0.000 A 
ATOM      9  C   UNL     1       2.673   4.508  19.906  0.00  0.00    +0.000 A 
ATOM     10  C   UNL     1       3.394   5.509  18.926  0.00  0.00    +0.000 C 
ATOM     11  C   UNL     1       4.867   5.547  19.451  0.00  0.00    +0.000 C 
ENDROOT
BRANCH   1  15
ATOM     12  C   UNL     1       6.561   4.740  14.769  0.00  0.00    +0.000 A 
ATOM     13  C   UNL     1       5.890   5.938  14.996  0.00  0.00    +0.000 A 
ATOM     14  C   UNL     1       4.786   5.982  15.855  0.00  0.00    +0.000 A 
ATOM     15  C   UNL     1       4.348   4.879  16.602  0.00  0.00    +0.000 A 
ATOM     16  C   UNL     1       5.035   3.677  16.331  0.00  0.00    +0.000 A 
ATOM     17  F   UNL     1       4.691   2.535  16.953  0.00  0.00    +0.000 F 
ATOM     18  C   UNL     1       6.107   3.598  15.430  0.00  0.00    +0.000 A 
BRANCH  12  19
ATOM     19  C   UNL     1       7.709   4.693  13.793  0.00  0.00    +0.000 C 
BRANCH  19  21
ATOM     20  C   UNL     1       5.915   3.545  12.391  0.00  0.00    +0.000 C 
ATOM     21  C   UNL     1       7.302   4.198  12.393  0.00  0.00    +0.000 C 
ATOM     22  C   UNL     1       7.324   5.366  11.406  0.00  0.00    +0.000 C 
ENDBRANCH  19  21
ENDBRANCH  12  19
ENDBRANCH   1  15
BRANCH  10  23
ATOM     23  C   UNL     1       2.715   6.910  19.006  0.00  0.00    +0.000 A 
ATOM     24  C   UNL     1       1.961   7.320  20.118  0.00  0.00    +0.000 A 
ATOM     25  C   UNL     1       1.244   8.525  20.116  0.00  0.00    +0.000 A 
ATOM     26  C   UNL     1       1.265   9.373  19.005  0.00  0.00    +0.000 A 
ATOM     27  C   UNL     1       2.066   9.015  17.920  0.00  0.00    +0.000 A 
ATOM     28  C   UNL     1       2.791   7.818  17.929  0.00  0.00    +0.000 A 
BRANCH  26  29
ATOM     29  C   UNL     1       0.362  10.530  18.964  0.00  0.00    +0.000 C 
ATOM     30  C   UNL     1      -0.784  10.567  18.271  0.00  0.00    +0.000 C 
BRANCH  30  31
ATOM     31  C   UNL     1      -1.659  11.751  18.370  0.00  0.00    +0.000 C 
ATOM     32  O   UNL     1      -2.594  11.864  19.144  0.00  0.00    +0.000 OA
BRANCH  31  33
ATOM     33  O   UNL     1      -1.314  12.705  17.483  0.00  0.00    +0.000 OA
ATOM     34  H   UNL     1      -0.571  12.481  16.894  0.00  0.00    +0.000 HD
ENDBRANCH  31  33
ENDBRANCH  30  31
ENDBRANCH  26  29
ENDBRANCH  10  23
BRANCH   6  35
ATOM     35  O   UNL     1       0.837   1.930  22.638  0.00  0.00    +0.000 OA
ATOM     36  H   UNL     1      -0.057   2.243  22.825  0.00  0.00    +0.000 HD
ENDBRANCH   6  35
TORSDOF 8
ENDMDL
MODEL 2
REMARK VINA RESULT:      -7.9      0.830      1.163
REMARK  Name = 
REMARK  11 active torsions:
REMARK  status: ('A' for Active; 'I' for Inactive)
REMARK    1  A    between atoms: C_1  and  C_2
REMARK    2  A    between atoms: C_2  and  C_3
REMARK    3  A    between atoms: C_2  and  C_4
REMARK    4  A    between atoms: C_4  and  C_5
REMARK    5  A    between atoms: C_8  and  N_9
REMARK    6  A    between atoms: C_14  and  O_15
REMARK    7  A    between atoms: C_19  and  C_20
REMARK    8  A    between atoms: C_19  and  C_21
REMARK    9  A    between atoms: C_24  and  C_25
REMARK   10  A    between atoms: C_26  and  C_27
REMARK   11  A    between atoms: C_27  and  O_29
REMARK                            x       y       z     vdW  Elec       q    Type
REMARK                         _______ _______ _______ _____ _____    ______ ____
ROOT
ATOM      1  N   UNL     1       3.312   4.964  17.549  0.00  0.00    +0.000 N 
ATOM      2  C   UNL     1       2.014   4.411  17.133  0.00  0.00    +0.000 C 
ATOM      3  C   UNL     1       1.633   3.202  17.983  0.00  0.00    +0.000 C 
ATOM      4  C   UNL     1       1.852   3.419  19.458  0.00  0.00    +0.000 A 
ATOM      5  C   UNL     1       1.244   2.528  20.367  0.00  0.00    +0.000 A 
ATOM      6  C   UNL     1       1.442   2.688  21.737  0.00  0.00    +0.000 A 
ATOM      7  C   UNL     1       2.218   3.714  22.226  0.00  0.00    +0.000 A 
ATOM      8  C   UNL     1       2.810   4.606  21.335  0.00  0.00    +0.000 A 
ATOM      9  C   UNL     1       2.674   4.463  19.932  0.00  0.00    +0.000 A 
ATOM     10  C   UNL     1       3.382   5.482  18.961  0.00  0.00    +0.000 C 
ATOM     11  C   UNL     1       4.849   5.551  19.498  0.00  0.00    +0.000 C 
ENDROOT
BRANCH   1  15
ATOM     12  C   UNL     1       6.493   4.626  14.720  0.00  0.00    +0.000 A 
ATOM     13  C   UNL     1       5.999   3.514  15.397  0.00  0.00    +0.000 A 
ATOM     14  C   UNL     1       4.998   3.659  16.364  0.00  0.00    +0.000 A 
ATOM     15  C   UNL     1       4.369   4.880  16.644  0.00  0.00    +0.000 A 
ATOM     16  C   UNL     1       4.908   5.988  15.957  0.00  0.00    +0.000 A 
ATOM     17  F   UNL     1       4.420   7.225  16.161  0.00  0.00    +0.000 F 
ATOM     18  C   UNL     1       5.952   5.875  15.027  0.00  0.00    +0.000 A 
BRANCH  12  19
ATOM     19  C   UNL     1       7.617   4.466  13.727  0.00  0.00    +0.000 C 
BRANCH  19  21
ATOM     20  C   UNL     1       5.699   3.493  12.357  0.00  0.00    +0.000 C 
ATOM     21  C   UNL     1       7.142   4.007  12.336  0.00  0.00    +0.000 C 
ATOM     22  C   UNL     1       7.265   5.163  11.342  0.00  0.00    +0.000 C 
ENDBRANCH  19  21
ENDBRANCH  12  19
ENDBRANCH   1  15
BRANCH  10  23
ATOM     23  C   UNL     1       2.672   6.868  19.039  0.00  0.00    +0.000 A 
ATOM     24  C   UNL     1       2.060   7.336  20.214  0.00  0.00    +0.000 A 
ATOM     25  C   UNL     1       1.308   8.520  20.228  0.00  0.00    +0.000 A 
ATOM     26  C   UNL     1       1.151   9.287  19.070  0.00  0.00    +0.000 A 
ATOM     27  C   UNL     1       1.812   8.874  17.913  0.00  0.00    +0.000 A 
ATOM     28  C   UNL     1       2.571   7.699  17.904  0.00  0.00    +0.000 A 
BRANCH  26  29
ATOM     29  C   UNL     1       0.211  10.416  19.075  0.00  0.00    +0.000 C 
ATOM     30  C   UNL     1      -0.723  10.621  18.139  0.00  0.00    +0.000 C 
BRANCH  30  31
ATOM     31  C   UNL     1      -1.673  11.741  18.289  0.00  0.00    +0.000 C 
ATOM     32  O   UNL     1      -2.668  11.721  18.993  0.00  0.00    +0.000 OA
BRANCH  31  33
ATOM     33  O   UNL     1      -1.321  12.801  17.534  0.00  0.00    +0.000 OA
ATOM     34  H   UNL     1      -2.060  13.316  17.161  0.00  0.00    +0.000 HD
ENDBRANCH  31  33
ENDBRANCH  30  31
ENDBRANCH  26  29
ENDBRANCH  10  23
BRANCH   6  35
ATOM     35  O   UNL     1       0.872   1.838  22.642  0.00  0.00    +0.000 OA
ATOM     36  H   UNL     1      -0.088   1.916  22.583  0.00  0.00    +0.000 HD
ENDBRANCH   6  35
TORSDOF 8
ENDMDL
MODEL 3
REMARK VINA RESULT:      -7.7      7.794      9.376
REMARK  Name = 
REMARK  11 active torsions:
REMARK  status: ('A' for Active; 'I' for Inactive)
REMARK    1  A    between atoms: C_1  and  C_2
REMARK    2  A    between atoms: C_2  and  C_3
REMARK    3  A    between atoms: C_2  and  C_4
REMARK    4  A    between atoms: C_4  and  C_5
REMARK    5  A    between atoms: C_8  and  N_9
REMARK    6  A    between atoms: C_14  and  O_15
REMARK    7  A    between atoms: C_19  and  C_20
REMARK    8  A    between atoms: C_19  and  C_21
REMARK    9  A    between atoms: C_24  and  C_25
REMARK   10  A    between atoms: C_26  and  C_27
REMARK   11  A    between atoms: C_27  and  O_29
REMARK                            x       y       z     vdW  Elec       q    Type
REMARK                         _______ _______ _______ _____ _____    ______ ____
ROOT
ATOM      1  N   UNL     1       0.323  12.295  20.239  0.00  0.00    +0.000 N 
ATOM      2  C   UNL     1       0.501  11.054  21.008  0.00  0.00    +0.000 C 
ATOM      3  C   UNL     1      -0.124  11.171  22.395  0.00  0.00    +0.000 C 
ATOM      4  C   UNL     1      -1.501  11.782  22.376  0.00  0.00    +0.000 A 
ATOM      5  C   UNL     1      -2.314  11.646  23.522  0.00  0.00    +0.000 A 
ATOM      6  C   UNL     1      -3.585  12.216  23.547  0.00  0.00    +0.000 A 
ATOM      7  C   UNL     1      -4.074  12.905  22.460  0.00  0.00    +0.000 A 
ATOM      8  C   UNL     1      -3.283  13.031  21.320  0.00  0.00    +0.000 A 
ATOM      9  C   UNL     1      -1.969  12.506  21.260  0.00  0.00    +0.000 A 
ATOM     10  C   UNL     1      -1.102  12.693  19.957  0.00  0.00    +0.000 C 
ATOM     11  C   UNL     1      -1.242  14.216  19.632  0.00  0.00    +0.000 C 
ENDROOT
BRANCH   1  15
ATOM     12  C   UNL     1       3.774  14.573  19.170  0.00  0.00    +0.000 A 
ATOM     13  C   UNL     1       3.209  13.651  18.293  0.00  0.00    +0.000 A 
ATOM     14  C   UNL     1       2.115  12.872  18.689  0.00  0.00    +0.000 A 
ATOM     15  C   UNL     1       1.466  13.027  19.921  0.00  0.00    +0.000 A 
ATOM     16  C   UNL     1       2.077  13.953  20.794  0.00  0.00    +0.000 A 
ATOM     17  F   UNL     1       1.576  14.171  22.022  0.00  0.00    +0.000 F 
ATOM     18  C   UNL     1       3.209  14.701  20.440  0.00  0.00    +0.000 A 
BRANCH  12  19
ATOM     19  C   UNL     1       4.991  15.360  18.756  0.00  0.00    +0.000 C 
BRANCH  19  21
ATOM     20  C   UNL     1       7.393  14.985  17.984  0.00  0.00    +0.000 C 
ATOM     21  C   UNL     1       6.316  14.617  19.010  0.00  0.00    +0.000 C 
ATOM     22  C   UNL     1       6.818  14.927  20.421  0.00  0.00    +0.000 C 
ENDBRANCH  19  21
ENDBRANCH  12  19
ENDBRANCH   1  15
BRANCH  10  23
ATOM     23  C   UNL     1      -1.670  11.802  18.811  0.00  0.00    +0.000 A 
ATOM     24  C   UNL     1      -0.938  10.746  18.244  0.00  0.00    +0.000 A 
ATOM     25  C   UNL     1      -1.407  10.045  17.123  0.00  0.00    +0.000 A 
ATOM     26  C   UNL     1      -2.635  10.366  16.536  0.00  0.00    +0.000 A 
ATOM     27  C   UNL     1      -3.407  11.364  17.131  0.00  0.00    +0.000 A 
ATOM     28  C   UNL     1      -2.942  12.054  18.255  0.00  0.00    +0.000 A 
BRANCH  26  29
ATOM     29  C   UNL     1      -3.009   9.740  15.262  0.00  0.00    +0.000 C 
ATOM     30  C   UNL     1      -3.569  10.395  14.237  0.00  0.00    +0.000 C 
BRANCH  30  31
ATOM     31  C   UNL     1      -3.825   9.685  12.969  0.00  0.00    +0.000 C 
ATOM     32  O   UNL     1      -4.931   9.419  12.530  0.00  0.00    +0.000 OA
BRANCH  31  33
ATOM     33  O   UNL     1      -2.680   9.342  12.346  0.00  0.00    +0.000 OA
ATOM     34  H   UNL     1      -2.351   9.981  11.689  0.00  0.00    +0.000 HD
ENDBRANCH  31  33
ENDBRANCH  30  31
ENDBRANCH  26  29
ENDBRANCH  10  23
BRANCH   6  35
ATOM     35  O   UNL     1      -4.392  12.108  24.644  0.00  0.00    +0.000 OA
ATOM     36  H   UNL     1      -4.263  11.238  25.043  0.00  0.00    +0.000 HD
ENDBRANCH   6  35
TORSDOF 8
ENDMDL
MODEL 4
REMARK VINA RESULT:      -7.6      9.556     13.128
REMARK  Name = 
REMARK  11 active torsions:
REMARK  status: ('A' for Active; 'I' for Inactive)
REMARK    1  A    between atoms: C_1  and  C_2
REMARK    2  A    between atoms: C_2  and  C_3
REMARK    3  A    between atoms: C_2  and  C_4
REMARK    4  A    between atoms: C_4  and  C_5
REMARK    5  A    between atoms: C_8  and  N_9
REMARK    6  A    between atoms: C_14  and  O_15
REMARK    7  A    between atoms: C_19  and  C_20
REMARK    8  A    between atoms: C_19  and  C_21
REMARK    9  A    between atoms: C_24  and  C_25
REMARK   10  A    between atoms: C_26  and  C_27
REMARK   11  A    between atoms: C_27  and  O_29
REMARK                            x       y       z     vdW  Elec       q    Type
REMARK                         _______ _______ _______ _____ _____    ______ ____
ROOT
ATOM      1  N   UNL     1       8.465  14.154  21.190  0.00  0.00    +0.000 N 
ATOM      2  C   UNL     1       7.257  14.707  20.560  0.00  0.00    +0.000 C 
ATOM      3  C   UNL     1       7.542  16.064  19.921  0.00  0.00    +0.000 C 
ATOM      4  C   UNL     1       8.815  16.085  19.115  0.00  0.00    +0.000 A 
ATOM      5  C   UNL     1       9.025  17.152  18.215  0.00  0.00    +0.000 A 
ATOM      6  C   UNL     1      10.200  17.215  17.469  0.00  0.00    +0.000 A 
ATOM      7  C   UNL     1      11.165  16.240  17.585  0.00  0.00    +0.000 A 
ATOM      8  C   UNL     1      10.959  15.176  18.460  0.00  0.00    +0.000 A 
ATOM      9  C   UNL     1       9.801  15.088  19.271  0.00  0.00    +0.000 A 
ATOM     10  C   UNL     1       9.621  13.878  20.265  0.00  0.00    +0.000 C 
ATOM     11  C   UNL     1      10.987  13.812  21.022  0.00  0.00    +0.000 C 
ENDROOT
BRANCH   1  15
ATOM     12  C   UNL     1       8.389  13.827  25.448  0.00  0.00    +0.000 A 
ATOM     13  C   UNL     1       8.653  15.039  24.815  0.00  0.00    +0.000 A 
ATOM     14  C   UNL     1       8.733  15.108  23.419  0.00  0.00    +0.000 A 
ATOM     15  C   UNL     1       8.464  14.020  22.578  0.00  0.00    +0.000 A 
ATOM     16  C   UNL     1       8.223  12.803  23.251  0.00  0.00    +0.000 A 
ATOM     17  F   UNL     1       7.987  11.673  22.562  0.00  0.00    +0.000 F 
ATOM     18  C   UNL     1       8.197  12.698  24.649  0.00  0.00    +0.000 A 
BRANCH  12  19
ATOM     19  C   UNL     1       8.370  13.752  26.954  0.00  0.00    +0.000 C 
BRANCH  19  21
ATOM     20  C   UNL     1       6.326  13.865  28.475  0.00  0.00    +0.000 C 
ATOM     21  C   UNL     1       7.302  14.656  27.597  0.00  0.00    +0.000 C 
ATOM     22  C   UNL     1       7.982  15.743  28.430  0.00  0.00    +0.000 C 
ENDBRANCH  19  21
ENDBRANCH  12  19
ENDBRANCH   1  15
BRANCH  10  23
ATOM     23  C   UNL     1       9.339  12.571  19.462  0.00  0.00    +0.000 A 
ATOM     24  C   UNL     1       8.643  12.572  18.242  0.00  0.00    +0.000 A 
ATOM     25  C   UNL     1       8.279  11.377  17.604  0.00  0.00    +0.000 A 
ATOM     26  C   UNL     1       8.609  10.137  18.156  0.00  0.00    +0.000 A 
ATOM     27  C   UNL     1       9.362  10.119  19.331  0.00  0.00    +0.000 A 
ATOM     28  C   UNL     1       9.735  11.312  19.959  0.00  0.00    +0.000 A 
BRANCH  26  29
ATOM     29  C   UNL     1       8.056   8.913  17.562  0.00  0.00    +0.000 C 
ATOM     30  C   UNL     1       8.037   7.722  18.173  0.00  0.00    +0.000 C 
BRANCH  30  31
ATOM     31  C   UNL     1       7.377   6.575  17.518  0.00  0.00    +0.000 C 
ATOM     32  O   UNL     1       7.412   6.342  16.322  0.00  0.00    +0.000 OA
BRANCH  31  33
ATOM     33  O   UNL     1       6.706   5.811  18.403  0.00  0.00    +0.000 OA
ATOM     34  H   UNL     1       6.187   5.082  18.019  0.00  0.00    +0.000 HD
ENDBRANCH  31  33
ENDBRANCH  30  31
ENDBRANCH  26  29
ENDBRANCH  10  23
BRANCH   6  35
ATOM     35  O   UNL     1      10.435  18.238  16.596  0.00  0.00    +0.000 OA
ATOM     36  H   UNL     1       9.953  18.068  15.777  0.00  0.00    +0.000 HD
ENDBRANCH   6  35
TORSDOF 8
ENDMDL
MODEL 5
REMARK VINA RESULT:      -7.6      8.305     10.002
REMARK  Name = 
REMARK  11 active torsions:
REMARK  status: ('A' for Active; 'I' for Inactive)
REMARK    1  A    between atoms: C_1  and  C_2
REMARK    2  A    between atoms: C_2  and  C_3
REMARK    3  A    between atoms: C_2  and  C_4
REMARK    4  A    between atoms: C_4  and  C_5
REMARK    5  A    between atoms: C_8  and  N_9
REMARK    6  A    between atoms: C_14  and  O_15
REMARK    7  A    between atoms: C_19  and  C_20
REMARK    8  A    between atoms: C_19  and  C_21
REMARK    9  A    between atoms: C_24  and  C_25
REMARK   10  A    between atoms: C_26  and  C_27
REMARK   11  A    between atoms: C_27  and  O_29
REMARK                            x       y       z     vdW  Elec       q    Type
REMARK                         _______ _______ _______ _____ _____    ______ ____
ROOT
ATOM      1  N   UNL     1      -0.428  12.508  21.043  0.00  0.00    +0.000 N 
ATOM      2  C   UNL     1      -0.441  11.318  21.907  0.00  0.00    +0.000 C 
ATOM      3  C   UNL     1      -1.279  11.558  23.160  0.00  0.00    +0.000 C 
ATOM      4  C   UNL     1      -2.602  12.219  22.873  0.00  0.00    +0.000 A 
ATOM      5  C   UNL     1      -3.597  12.197  23.873  0.00  0.00    +0.000 A 
ATOM      6  C   UNL     1      -4.824  12.817  23.650  0.00  0.00    +0.000 A 
ATOM      7  C   UNL     1      -5.093  13.446  22.455  0.00  0.00    +0.000 A 
ATOM      8  C   UNL     1      -4.120  13.460  21.458  0.00  0.00    +0.000 A 
ATOM      9  C   UNL     1      -2.842  12.881  21.651  0.00  0.00    +0.000 A 
ATOM     10  C   UNL     1      -1.765  12.941  20.502  0.00  0.00    +0.000 C 
ATOM     11  C   UNL     1      -1.772  14.442  20.063  0.00  0.00    +0.000 C 
ENDROOT
BRANCH   1  15
ATOM     12  C   UNL     1       3.269  14.553  20.420  0.00  0.00    +0.000 A 
ATOM     13  C   UNL     1       2.880  13.489  19.610  0.00  0.00    +0.000 A 
ATOM     14  C   UNL     1       1.693  12.796  19.872  0.00  0.00    +0.000 A 
ATOM     15  C   UNL     1       0.788  13.170  20.875  0.00  0.00    +0.000 A 
ATOM     16  C   UNL     1       1.224  14.235  21.690  0.00  0.00    +0.000 A 
ATOM     17  F   UNL     1       0.467  14.670  22.713  0.00  0.00    +0.000 F 
ATOM     18  C   UNL     1       2.437  14.907  21.483  0.00  0.00    +0.000 A 
BRANCH  12  19
ATOM     19  C   UNL     1       4.582  15.251  20.167  0.00  0.00    +0.000 C 
BRANCH  19  21
ATOM     20  C   UNL     1       4.088  16.528  18.015  0.00  0.00    +0.000 C 
ATOM     21  C   UNL     1       4.910  15.413  18.671  0.00  0.00    +0.000 C 
ATOM     22  C   UNL     1       6.402  15.701  18.499  0.00  0.00    +0.000 C 
ENDBRANCH  19  21
ENDBRANCH  12  19
ENDBRANCH   1  15
BRANCH  10  23
ATOM     23  C   UNL     1      -2.182  11.994  19.335  0.00  0.00    +0.000 A 
ATOM     24  C   UNL     1      -1.273  11.128  18.706  0.00  0.00    +0.000 A 
ATOM     25  C   UNL     1      -1.630  10.387  17.571  0.00  0.00    +0.000 A 
ATOM     26  C   UNL     1      -2.916  10.474  17.030  0.00  0.00    +0.000 A 
ATOM     27  C   UNL     1      -3.852  11.275  17.685  0.00  0.00    +0.000 A 
ATOM     28  C   UNL     1      -3.497  12.005  18.825  0.00  0.00    +0.000 A 
BRANCH  26  29
ATOM     29  C   UNL     1      -3.201   9.830  15.741  0.00  0.00    +0.000 C 
ATOM     30  C   UNL     1      -3.556  10.491  14.632  0.00  0.00    +0.000 C 
BRANCH  30  31
ATOM     31  C   UNL     1      -3.734   9.751  13.367  0.00  0.00    +0.000 C 
ATOM     32  O   UNL     1      -2.829   9.421  12.619  0.00  0.00    +0.000 OA
BRANCH  31  33
ATOM     33  O   UNL     1      -5.033   9.492  13.117  0.00  0.00    +0.000 OA
ATOM     34  H   UNL     1      -5.505   9.003  13.814  0.00  0.00    +0.000 HD
ENDBRANCH  31  33
ENDBRANCH  30  31
ENDBRANCH  26  29
ENDBRANCH  10  23
BRANCH   6  35
ATOM     35  O   UNL     1      -5.804  12.819  24.601  0.00  0.00    +0.000 OA
ATOM     36  H   UNL     1      -5.604  12.140  25.257  0.00  0.00    +0.000 HD
ENDBRANCH   6  35
TORSDOF 8
ENDMDL
MODEL 6
REMARK VINA RESULT:      -7.6      9.071     12.594
REMARK  Name = 
REMARK  11 active torsions:
REMARK  status: ('A' for Active; 'I' for Inactive)
REMARK    1  A    between atoms: C_1  and  C_2
REMARK    2  A    between atoms: C_2  and  C_3
REMARK    3  A    between atoms: C_2  and  C_4
REMARK    4  A    between atoms: C_4  and  C_5
REMARK    5  A    between atoms: C_8  and  N_9
REMARK    6  A    between atoms: C_14  and  O_15
REMARK    7  A    between atoms: C_19  and  C_20
REMARK    8  A    between atoms: C_19  and  C_21
REMARK    9  A    between atoms: C_24  and  C_25
REMARK   10  A    between atoms: C_26  and  C_27
REMARK   11  A    between atoms: C_27  and  O_29
REMARK                            x       y       z     vdW  Elec       q    Type
REMARK                         _______ _______ _______ _____ _____    ______ ____
ROOT
ATOM      1  N   UNL     1       8.743  13.464  20.894  0.00  0.00    +0.000 N 
ATOM      2  C   UNL     1       7.722  14.218  20.152  0.00  0.00    +0.000 C 
ATOM      3  C   UNL     1       8.322  15.457  19.495  0.00  0.00    +0.000 C 
ATOM      4  C   UNL     1       9.627  15.184  18.793  0.00  0.00    +0.000 A 
ATOM      5  C   UNL     1      10.114  16.143  17.879  0.00  0.00    +0.000 A 
ATOM      6  C   UNL     1      11.328  15.932  17.228  0.00  0.00    +0.000 A 
ATOM      7  C   UNL     1      12.063  14.790  17.451  0.00  0.00    +0.000 A 
ATOM      8  C   UNL     1      11.582  13.832  18.341  0.00  0.00    +0.000 A 
ATOM      9  C   UNL     1      10.375  14.018  19.059  0.00  0.00    +0.000 A 
ATOM     10  C   UNL     1       9.881  12.917  20.073  0.00  0.00    +0.000 C 
ATOM     11  C   UNL     1      11.147  12.613  20.939  0.00  0.00    +0.000 C 
ENDROOT
BRANCH   1  15
ATOM     12  C   UNL     1       8.280  13.349  25.139  0.00  0.00    +0.000 A 
ATOM     13  C   UNL     1       8.632  14.522  24.475  0.00  0.00    +0.000 A 
ATOM     14  C   UNL     1       8.837  14.520  23.091  0.00  0.00    +0.000 A 
ATOM     15  C   UNL     1       8.615  13.398  22.281  0.00  0.00    +0.000 A 
ATOM     16  C   UNL     1       8.283  12.222  22.987  0.00  0.00    +0.000 A 
ATOM     17  F   UNL     1       8.079  11.065  22.334  0.00  0.00    +0.000 F 
ATOM     18  C   UNL     1       8.130  12.187  24.380  0.00  0.00    +0.000 A 
BRANCH  12  19
ATOM     19  C   UNL     1       8.125  13.349  26.638  0.00  0.00    +0.000 C 
BRANCH  19  21
ATOM     20  C   UNL     1       7.176  11.969  28.561  0.00  0.00    +0.000 C 
ATOM     21  C   UNL     1       6.956  12.477  27.132  0.00  0.00    +0.000 C 
ATOM     22  C   UNL     1       5.652  13.274  27.061  0.00  0.00    +0.000 C 
ENDBRANCH  19  21
ENDBRANCH  12  19
ENDBRANCH   1  15
BRANCH  10  23
ATOM     23  C   UNL     1       9.397  11.657  19.293  0.00  0.00    +0.000 A 
ATOM     24  C   UNL     1       8.716  11.745  18.068  0.00  0.00    +0.000 A 
ATOM     25  C   UNL     1       8.167  10.612  17.449  0.00  0.00    +0.000 A 
ATOM     26  C   UNL     1       8.291   9.346  18.027  0.00  0.00    +0.000 A 
ATOM     27  C   UNL     1       9.026   9.231  19.208  0.00  0.00    +0.000 A 
ATOM     28  C   UNL     1       9.583  10.361  19.817  0.00  0.00    +0.000 A 
BRANCH  26  29
ATOM     29  C   UNL     1       7.551   8.215  17.452  0.00  0.00    +0.000 C 
ATOM     30  C   UNL     1       7.819   6.930  17.712  0.00  0.00    +0.000 C 
BRANCH  30  31
ATOM     31  C   UNL     1       6.955   5.875  17.147  0.00  0.00    +0.000 C 
ATOM     32  O   UNL     1       5.795   6.032  16.807  0.00  0.00    +0.000 OA
BRANCH  31  33
ATOM     33  O   UNL     1       7.599   4.693  17.062  0.00  0.00    +0.000 OA
ATOM     34  H   UNL     1       8.196   4.486  17.803  0.00  0.00    +0.000 HD
ENDBRANCH  31  33
ENDBRANCH  30  31
ENDBRANCH  26  29
ENDBRANCH  10  23
BRANCH   6  35
ATOM     35  O   UNL     1      11.829  16.845  16.344  0.00  0.00    +0.000 OA
ATOM     36  H   UNL     1      12.663  16.512  15.989  0.00  0.00    +0.000 HD
ENDBRANCH   6  35
TORSDOF 8
ENDMDL
MODEL 7
REMARK VINA RESULT:      -7.5      7.884      9.606
REMARK  Name = 
REMARK  11 active torsions:
REMARK  status: ('A' for Active; 'I' for Inactive)
REMARK    1  A    between atoms: C_1  and  C_2
REMARK    2  A    between atoms: C_2  and  C_3
REMARK    3  A    between atoms: C_2  and  C_4
REMARK    4  A    between atoms: C_4  and  C_5
REMARK    5  A    between atoms: C_8  and  N_9
REMARK    6  A    between atoms: C_14  and  O_15
REMARK    7  A    between atoms: C_19  and  C_20
REMARK    8  A    between atoms: C_19  and  C_21
REMARK    9  A    between atoms: C_24  and  C_25
REMARK   10  A    between atoms: C_26  and  C_27
REMARK   11  A    between atoms: C_27  and  O_29
REMARK                            x       y       z     vdW  Elec       q    Type
REMARK                         _______ _______ _______ _____ _____    ______ ____
ROOT
ATOM      1  N   UNL     1      -0.105  12.337  20.769  0.00  0.00    +0.000 N 
ATOM      2  C   UNL     1      -0.074  11.117  21.589  0.00  0.00    +0.000 C 
ATOM      3  C   UNL     1      -0.847  11.310  22.891  0.00  0.00    +0.000 C 
ATOM      4  C   UNL     1      -2.183  11.979  22.695  0.00  0.00    +0.000 A 
ATOM      5  C   UNL     1      -3.126  11.919  23.743  0.00  0.00    +0.000 A 
ATOM      6  C   UNL     1      -4.364  12.545  23.604  0.00  0.00    +0.000 A 
ATOM      7  C   UNL     1      -4.692  13.216  22.449  0.00  0.00    +0.000 A 
ATOM      8  C   UNL     1      -3.772  13.268  21.404  0.00  0.00    +0.000 A 
ATOM      9  C   UNL     1      -2.485  12.684  21.512  0.00  0.00    +0.000 A 
ATOM     10  C   UNL     1      -1.468  12.788  20.313  0.00  0.00    +0.000 C 
ATOM     11  C   UNL     1      -1.497  14.303  19.929  0.00  0.00    +0.000 C 
ENDROOT
BRANCH   1  15
ATOM     12  C   UNL     1       3.627  14.346  20.238  0.00  0.00    +0.000 A 
ATOM     13  C   UNL     1       2.890  14.476  21.412  0.00  0.00    +0.000 A 
ATOM     14  C   UNL     1       1.641  13.857  21.539  0.00  0.00    +0.000 A 
ATOM     15  C   UNL     1       1.101  13.007  20.564  0.00  0.00    +0.000 A 
ATOM     16  C   UNL     1       1.861  12.916  19.379  0.00  0.00    +0.000 A 
ATOM     17  F   UNL     1       1.438  12.162  18.349  0.00  0.00    +0.000 F 
ATOM     18  C   UNL     1       3.087  13.574  19.207  0.00  0.00    +0.000 A 
BRANCH  12  19
ATOM     19  C   UNL     1       4.941  15.069  20.088  0.00  0.00    +0.000 C 
BRANCH  19  21
ATOM     20  C   UNL     1       5.700  17.081  18.718  0.00  0.00    +0.000 C 
ATOM     21  C   UNL     1       5.165  15.646  18.678  0.00  0.00    +0.000 C 
ATOM     22  C   UNL     1       6.137  14.753  17.905  0.00  0.00    +0.000 C 
ENDBRANCH  19  21
ENDBRANCH  12  19
ENDBRANCH   1  15
BRANCH  10  23
ATOM     23  C   UNL     1      -1.943  11.883  19.135  0.00  0.00    +0.000 A 
ATOM     24  C   UNL     1      -1.140  10.865  18.595  0.00  0.00    +0.000 A 
ATOM     25  C   UNL     1      -1.527  10.154  17.450  0.00  0.00    +0.000 A 
ATOM     26  C   UNL     1      -2.738  10.427  16.808  0.00  0.00    +0.000 A 
ATOM     27  C   UNL     1      -3.580  11.386  17.373  0.00  0.00    +0.000 A 
ATOM     28  C   UNL     1      -3.198  12.085  18.523  0.00  0.00    +0.000 A 
BRANCH  26  29
ATOM     29  C   UNL     1      -3.027   9.797  15.514  0.00  0.00    +0.000 C 
ATOM     30  C   UNL     1      -3.651  10.410  14.500  0.00  0.00    +0.000 C 
BRANCH  30  31
ATOM     31  C   UNL     1      -3.811   9.710  13.211  0.00  0.00    +0.000 C 
ATOM     32  O   UNL     1      -2.896   9.394  12.470  0.00  0.00    +0.000 OA
BRANCH  31  33
ATOM     33  O   UNL     1      -5.108   9.468  12.930  0.00  0.00    +0.000 OA
ATOM     34  H   UNL     1      -5.373   9.624  12.006  0.00  0.00    +0.000 HD
ENDBRANCH  31  33
ENDBRANCH  30  31
ENDBRANCH  26  29
ENDBRANCH  10  23
BRANCH   6  35
ATOM     35  O   UNL     1      -5.294  12.510  24.603  0.00  0.00    +0.000 OA
ATOM     36  H   UNL     1      -6.080  12.991  24.315  0.00  0.00    +0.000 HD
ENDBRANCH   6  35
TORSDOF 8
ENDMDL
MODEL 8
REMARK VINA RESULT:      -7.5      4.893      9.284
REMARK  Name = 
REMARK  11 active torsions:
REMARK  status: ('A' for Active; 'I' for Inactive)
REMARK    1  A    between atoms: C_1  and  C_2
REMARK    2  A    between atoms: C_2  and  C_3
REMARK    3  A    between atoms: C_2  and  C_4
REMARK    4  A    between atoms: C_4  and  C_5
REMARK    5  A    between atoms: C_8  and  N_9
REMARK    6  A    between atoms: C_14  and  O_15
REMARK    7  A    between atoms: C_19  and  C_20
REMARK    8  A    between atoms: C_19  and  C_21
REMARK    9  A    between atoms: C_24  and  C_25
REMARK   10  A    between atoms: C_26  and  C_27
REMARK   11  A    between atoms: C_27  and  O_29
REMARK                            x       y       z     vdW  Elec       q    Type
REMARK                         _______ _______ _______ _____ _____    ______ ____
ROOT
ATOM      1  N   UNL     1       0.893  12.111  20.100  0.00  0.00    +0.000 N 
ATOM      2  C   UNL     1       1.776  12.695  21.121  0.00  0.00    +0.000 C 
ATOM      3  C   UNL     1       2.489  13.935  20.588  0.00  0.00    +0.000 C 
ATOM      4  C   UNL     1       1.572  14.874  19.847  0.00  0.00    +0.000 A 
ATOM      5  C   UNL     1       2.017  16.190  19.595  0.00  0.00    +0.000 A 
ATOM      6  C   UNL     1       1.204  17.078  18.894  0.00  0.00    +0.000 A 
ATOM      7  C   UNL     1      -0.042  16.698  18.448  0.00  0.00    +0.000 A 
ATOM      8  C   UNL     1      -0.493  15.405  18.704  0.00  0.00    +0.000 A 
ATOM      9  C   UNL     1       0.312  14.451  19.376  0.00  0.00    +0.000 A 
ATOM     10  C   UNL     1      -0.231  12.993  19.623  0.00  0.00    +0.000 C 
ATOM     11  C   UNL     1      -0.778  12.557  18.225  0.00  0.00    +0.000 C 
ENDROOT
BRANCH   1  15
ATOM     12  C   UNL     1       2.004   8.280  18.574  0.00  0.00    +0.000 A 
ATOM     13  C   UNL     1       2.207   9.445  17.838  0.00  0.00    +0.000 A 
ATOM     14  C   UNL     1       1.779  10.682  18.334  0.00  0.00    +0.000 A 
ATOM     15  C   UNL     1       1.222  10.849  19.609  0.00  0.00    +0.000 A 
ATOM     16  C   UNL     1       1.009   9.648  20.318  0.00  0.00    +0.000 A 
ATOM     17  F   UNL     1       0.448   9.662  21.540  0.00  0.00    +0.000 F 
ATOM     18  C   UNL     1       1.377   8.391  19.816  0.00  0.00    +0.000 A 
BRANCH  12  19
ATOM     19  C   UNL     1       2.411   6.946  18.001  0.00  0.00    +0.000 C 
BRANCH  19  21
ATOM     20  C   UNL     1       1.812   4.542  18.600  0.00  0.00    +0.000 C 
ATOM     21  C   UNL     1       2.504   5.830  19.058  0.00  0.00    +0.000 C 
ATOM     22  C   UNL     1       3.972   5.543  19.378  0.00  0.00    +0.000 C 
ENDBRANCH  19  21
ENDBRANCH  12  19
ENDBRANCH   1  15
BRANCH  10  23
ATOM     23  C   UNL     1      -1.357  13.023  20.701  0.00  0.00    +0.000 A 
ATOM     24  C   UNL     1      -1.293  12.260  21.879  0.00  0.00    +0.000 A 
ATOM     25  C   UNL     1      -2.374  12.193  22.770  0.00  0.00    +0.000 A 
ATOM     26  C   UNL     1      -3.556  12.897  22.522  0.00  0.00    +0.000 A 
ATOM     27  C   UNL     1      -3.610  13.716  21.394  0.00  0.00    +0.000 A 
ATOM     28  C   UNL     1      -2.525  13.791  20.512  0.00  0.00    +0.000 A 
BRANCH  26  29
ATOM     29  C   UNL     1      -4.728  12.660  23.375  0.00  0.00    +0.000 C 
ATOM     30  C   UNL     1      -5.966  13.081  23.086  0.00  0.00    +0.000 C 
BRANCH  30  31
ATOM     31  C   UNL     1      -7.088  12.712  23.971  0.00  0.00    +0.000 C 
ATOM     32  O   UNL     1      -7.622  11.617  24.000  0.00  0.00    +0.000 OA
BRANCH  31  33
ATOM     33  O   UNL     1      -7.475  13.745  24.747  0.00  0.00    +0.000 OA
ATOM     34  H   UNL     1      -7.433  14.623  24.327  0.00  0.00    +0.000 HD
ENDBRANCH  31  33
ENDBRANCH  30  31
ENDBRANCH  26  29
ENDBRANCH  10  23
BRANCH   6  35
ATOM     35  O   UNL     1       1.608  18.356  18.630  0.00  0.00    +0.000 OA
ATOM     36  H   UNL     1       0.856  18.951  18.737  0.00  0.00    +0.000 HD
ENDBRANCH   6  35
TORSDOF 8
ENDMDL
MODEL 9
REMARK VINA RESULT:      -7.4      9.251     12.757
REMARK  Name = 
REMARK  11 active torsions:
REMARK  status: ('A' for Active; 'I' for Inactive)
REMARK    1  A    between atoms: C_1  and  C_2
REMARK    2  A    between atoms: C_2  and  C_3
REMARK    3  A    between atoms: C_2  and  C_4
REMARK    4  A    between atoms: C_4  and  C_5
REMARK    5  A    between atoms: C_8  and  N_9
REMARK    6  A    between atoms: C_14  and  O_15
REMARK    7  A    between atoms: C_19  and  C_20
REMARK    8  A    between atoms: C_19  and  C_21
REMARK    9  A    between atoms: C_24  and  C_25
REMARK   10  A    between atoms: C_26  and  C_27
REMARK   11  A    between atoms: C_27  and  O_29
REMARK                            x       y       z     vdW  Elec       q    Type
REMARK                         _______ _______ _______ _____ _____    ______ ____
ROOT
ATOM      1  N   UNL     1       8.568  13.303  20.824  0.00  0.00    +0.000 N 
ATOM      2  C   UNL     1       7.556  14.030  20.043  0.00  0.00    +0.000 C 
ATOM      3  C   UNL     1       8.154  15.271  19.386  0.00  0.00    +0.000 C 
ATOM      4  C   UNL     1       9.483  15.012  18.726  0.00  0.00    +0.000 A 
ATOM      5  C   UNL     1       9.980  15.968  17.814  0.00  0.00    +0.000 A 
ATOM      6  C   UNL     1      11.216  15.770  17.201  0.00  0.00    +0.000 A 
ATOM      7  C   UNL     1      11.963  14.643  17.460  0.00  0.00    +0.000 A 
ATOM      8  C   UNL     1      11.473  13.689  18.348  0.00  0.00    +0.000 A 
ATOM      9  C   UNL     1      10.243  13.862  19.029  0.00  0.00    +0.000 A 
ATOM     10  C   UNL     1       9.739  12.766  20.043  0.00  0.00    +0.000 C 
ATOM     11  C   UNL     1      10.984  12.496  20.948  0.00  0.00    +0.000 C 
ENDROOT
BRANCH   1  15
ATOM     12  C   UNL     1       8.118  13.053  25.063  0.00  0.00    +0.000 A 
ATOM     13  C   UNL     1       7.785  11.988  24.231  0.00  0.00    +0.000 A 
ATOM     14  C   UNL     1       7.883  12.115  22.841  0.00  0.00    +0.000 A 
ATOM     15  C   UNL     1       8.401  13.253  22.207  0.00  0.00    +0.000 A 
ATOM     16  C   UNL     1       8.708  14.320  23.077  0.00  0.00    +0.000 A 
ATOM     17  F   UNL     1       9.179  15.484  22.595  0.00  0.00    +0.000 F 
ATOM     18  C   UNL     1       8.561  14.235  24.469  0.00  0.00    +0.000 A 
BRANCH  12  19
ATOM     19  C   UNL     1       7.947  12.925  26.556  0.00  0.00    +0.000 C 
BRANCH  19  21
ATOM     20  C   UNL     1       6.689  14.518  28.099  0.00  0.00    +0.000 C 
ATOM     21  C   UNL     1       7.969  14.278  27.292  0.00  0.00    +0.000 C 
ATOM     22  C   UNL     1       9.184  14.341  28.219  0.00  0.00    +0.000 C 
ENDBRANCH  19  21
ENDBRANCH  12  19
ENDBRANCH   1  15
BRANCH  10  23
ATOM     23  C   UNL     1       9.299  11.488  19.266  0.00  0.00    +0.000 A 
ATOM     24  C   UNL     1       8.646  11.549  18.023  0.00  0.00    +0.000 A 
ATOM     25  C   UNL     1       8.135  10.398  17.405  0.00  0.00    +0.000 A 
ATOM     26  C   UNL     1       8.271   9.141  18.000  0.00  0.00    +0.000 A 
ATOM     27  C   UNL     1       8.979   9.054  19.199  0.00  0.00    +0.000 A 
ATOM     28  C   UNL     1       9.498  10.202  19.808  0.00  0.00    +0.000 A 
BRANCH  26  29
ATOM     29  C   UNL     1       7.568   7.990  17.420  0.00  0.00    +0.000 C 
ATOM     30  C   UNL     1       7.710   6.728  17.847  0.00  0.00    +0.000 C 
BRANCH  30  31
ATOM     31  C   UNL     1       6.888   5.658  17.248  0.00  0.00    +0.000 C 
ATOM     32  O   UNL     1       5.914   5.842  16.539  0.00  0.00    +0.000 OA
BRANCH  31  33
ATOM     33  O   UNL     1       7.333   4.433  17.592  0.00  0.00    +0.000 OA
ATOM     34  H   UNL     1       8.258   4.392  17.895  0.00  0.00    +0.000 HD
ENDBRANCH  31  33
ENDBRANCH  30  31
ENDBRANCH  26  29
ENDBRANCH  10  23
BRANCH   6  35
ATOM     35  O   UNL     1      11.726  16.680  16.320  0.00  0.00    +0.000 OA
ATOM     36  H   UNL     1      11.638  17.564  16.697  0.00  0.00    +0.000 HD
ENDBRANCH   6  35
TORSDOF 8
ENDMDL
