MODEL 1
REMARK VINA RESULT:      -9.3      0.000      0.000
REMARK  Name = 
REMARK  4 active torsions:
REMARK  status: ('A' for Active; 'I' for Inactive)
REMARK    1  A    between atoms: C_1  and  C_2
REMARK    2  A    between atoms: C_2  and  C_3
REMARK    3  A    between atoms: C_5  and  N_6
REMARK    4  A    between atoms: C_7  and  C_9
REMARK                            x       y       z     vdW  Elec       q    Type
REMARK                         _______ _______ _______ _____ _____    ______ ____
ROOT
ATOM      1  C   UNL     1       4.818   5.441  17.446  0.00  0.00    +0.000 A 
ATOM      2  C   UNL     1       4.137   6.468  18.135  0.00  0.00    +0.000 A 
ATOM      3  C   UNL     1       2.768   6.423  18.439  0.00  0.00    +0.000 A 
ATOM      4  C   UNL     1       2.054   5.275  18.102  0.00  0.00    +0.000 A 
ATOM      5  C   UNL     1       2.705   4.216  17.463  0.00  0.00    +0.000 A 
ATOM      6  C   UNL     1       4.064   4.304  17.148  0.00  0.00    +0.000 A 
ATOM      7  F   UNL     1       4.627   3.249  16.547  0.00  0.00    +0.000 F 
ENDROOT
BRANCH   1   9
ATOM      8  C   UNL     1       6.640   4.959  15.716  0.00  0.00    +0.000 C 
ATOM      9  C   UNL     1       6.326   5.568  17.117  0.00  0.00    +0.000 C 
ATOM     10  N   UNL     1       6.637   6.992  16.967  0.00  0.00    +0.000 NA
ATOM     11  C   UNL     1       7.559   7.558  17.638  0.00  0.00    +0.000 C 
ATOM     12  N   UNL     1       7.902   8.850  17.445  0.00  0.00    +0.000 N 
ATOM     13  O   UNL     1       8.296   7.013  18.615  0.00  0.00    +0.000 OA
ATOM     14  C   UNL     1       7.927   5.730  19.127  0.00  0.00    +0.000 C 
ATOM     15  C   UNL     1       7.242   4.824  18.126  0.00  0.00    +0.000 C 
ATOM     16  F   UNL     1       8.255   4.174  17.459  0.00  0.00    +0.000 F 
ATOM     17  H   UNL     1       7.193   9.385  16.960  0.00  0.00    +0.000 HD
ATOM     18  H   UNL     1       8.308   9.300  18.253  0.00  0.00    +0.000 HD
ENDBRANCH   1   9
BRANCH   3  19
ATOM     19  N   UNL     1       2.097   7.493  19.074  0.00  0.00    +0.000 N 
ATOM     20  C   UNL     1       1.814   8.727  18.512  0.00  0.00    +0.000 C 
ATOM     21  O   UNL     1       2.058   9.081  17.363  0.00  0.00    +0.000 OA
ATOM     22  H   UNL     1       1.723   7.344  20.010  0.00  0.00    +0.000 HD
BRANCH  20  23
ATOM     23  C   UNL     1       1.099   9.691  19.402  0.00  0.00    +0.000 A 
ATOM     24  C   UNL     1       0.599   9.231  20.621  0.00  0.00    +0.000 A 
ATOM     25  C   UNL     1      -0.032  10.135  21.471  0.00  0.00    +0.000 A 
ATOM     26  C   UNL     1      -0.149  11.461  21.072  0.00  0.00    +0.000 A 
ATOM     27 CL   UNL     1      -0.899  12.610  22.100  0.00  0.00    +0.000 Cl
ATOM     28  C   UNL     1       0.365  11.830  19.832  0.00  0.00    +0.000 A 
ATOM     29  N   UNL     1       0.995  10.981  18.977  0.00  0.00    +0.000 NA
ENDBRANCH  20  23
ENDBRANCH   3  19
TORSDOF 3
ENDMDL
MODEL 2
REMARK VINA RESULT:      -9.2      1.097      1.303
REMARK  Name = 
REMARK  4 active torsions:
REMARK  status: ('A' for Active; 'I' for Inactive)
REMARK    1  A    between atoms: C_1  and  C_2
REMARK    2  A    between atoms: C_2  and  C_3
REMARK    3  A    between atoms: C_5  and  N_6
REMARK    4  A    between atoms: C_7  and  C_9
REMARK                            x       y       z     vdW  Elec       q    Type
REMARK                         _______ _______ _______ _____ _____    ______ ____
ROOT
ATOM      1  C   UNL     1       4.770   5.596  17.389  0.00  0.00    +0.000 A 
ATOM      2  C   UNL     1       4.050   6.750  17.769  0.00  0.00    +0.000 A 
ATOM      3  C   UNL     1       2.672   6.752  18.033  0.00  0.00    +0.000 A 
ATOM      4  C   UNL     1       1.987   5.540  17.983  0.00  0.00    +0.000 A 
ATOM      5  C   UNL     1       2.676   4.368  17.661  0.00  0.00    +0.000 A 
ATOM      6  C   UNL     1       4.044   4.403  17.374  0.00  0.00    +0.000 A 
ATOM      7  F   UNL     1       4.644   3.242  17.083  0.00  0.00    +0.000 F 
ENDROOT
BRANCH   1   9
ATOM      8  C   UNL     1       6.598   5.058  15.683  0.00  0.00    +0.000 C 
ATOM      9  C   UNL     1       6.286   5.669  17.084  0.00  0.00    +0.000 C 
ATOM     10  N   UNL     1       6.652   7.082  16.948  0.00  0.00    +0.000 NA
ATOM     11  C   UNL     1       7.584   7.609  17.636  0.00  0.00    +0.000 C 
ATOM     12  N   UNL     1       7.977   8.889  17.458  0.00  0.00    +0.000 N 
ATOM     13  O   UNL     1       8.285   7.031  18.620  0.00  0.00    +0.000 OA
ATOM     14  C   UNL     1       7.862   5.759  19.118  0.00  0.00    +0.000 C 
ATOM     15  C   UNL     1       7.159   4.885  18.101  0.00  0.00    +0.000 C 
ATOM     16  F   UNL     1       8.157   4.203  17.444  0.00  0.00    +0.000 F 
ATOM     17  H   UNL     1       7.296   9.452  16.966  0.00  0.00    +0.000 HD
ATOM     18  H   UNL     1       8.388   9.318  18.274  0.00  0.00    +0.000 HD
ENDBRANCH   1   9
BRANCH   3  19
ATOM     19  N   UNL     1       1.963   7.934  18.349  0.00  0.00    +0.000 N 
ATOM     20  C   UNL     1       1.608   8.359  19.618  0.00  0.00    +0.000 C 
ATOM     21  O   UNL     1       1.884   7.806  20.679  0.00  0.00    +0.000 OA
ATOM     22  H   UNL     1       1.738   8.580  17.594  0.00  0.00    +0.000 HD
BRANCH  20  23
ATOM     23  C   UNL     1       0.851   9.645  19.680  0.00  0.00    +0.000 A 
ATOM     24  C   UNL     1       0.170  10.075  18.540  0.00  0.00    +0.000 A 
ATOM     25  C   UNL     1      -0.570  11.252  18.604  0.00  0.00    +0.000 A 
ATOM     26  C   UNL     1      -0.597  11.961  19.798  0.00  0.00    +0.000 A 
ATOM     27 CL   UNL     1      -1.515  13.404  19.925  0.00  0.00    +0.000 Cl
ATOM     28  C   UNL     1       0.123  11.468  20.882  0.00  0.00    +0.000 A 
ATOM     29  N   UNL     1       0.851  10.320  20.863  0.00  0.00    +0.000 NA
ENDBRANCH  20  23
ENDBRANCH   3  19
TORSDOF 3
ENDMDL
MODEL 3
REMARK VINA RESULT:      -9.0      1.097      1.130
REMARK  Name = 
REMARK  4 active torsions:
REMARK  status: ('A' for Active; 'I' for Inactive)
REMARK    1  A    between atoms: C_1  and  C_2
REMARK    2  A    between atoms: C_2  and  C_3
REMARK    3  A    between atoms: C_5  and  N_6
REMARK    4  A    between atoms: C_7  and  C_9
REMARK                            x       y       z     vdW  Elec       q    Type
REMARK                         _______ _______ _______ _____ _____    ______ ____
ROOT
ATOM      1  C   UNL     1       4.768   5.549  17.447  0.00  0.00    +0.000 A 
ATOM      2  C   UNL     1       4.114   6.599  18.129  0.00  0.00    +0.000 A 
ATOM      3  C   UNL     1       2.749   6.582  18.451  0.00  0.00    +0.000 A 
ATOM      4  C   UNL     1       2.010   5.442  18.141  0.00  0.00    +0.000 A 
ATOM      5  C   UNL     1       2.634   4.363  17.511  0.00  0.00    +0.000 A 
ATOM      6  C   UNL     1       3.991   4.422  17.177  0.00  0.00    +0.000 A 
ATOM      7  F   UNL     1       4.528   3.348  16.584  0.00  0.00    +0.000 F 
ENDROOT
BRANCH   1   9
ATOM      8  C   UNL     1       6.551   5.051  15.682  0.00  0.00    +0.000 C 
ATOM      9  C   UNL     1       6.273   5.645  17.097  0.00  0.00    +0.000 C 
ATOM     10  N   UNL     1       6.617   7.063  16.964  0.00  0.00    +0.000 NA
ATOM     11  C   UNL     1       7.563   7.597  17.629  0.00  0.00    +0.000 C 
ATOM     12  N   UNL     1       7.934   8.883  17.451  0.00  0.00    +0.000 N 
ATOM     13  O   UNL     1       8.300   7.018  18.586  0.00  0.00    +0.000 OA
ATOM     14  C   UNL     1       7.908   5.737  19.085  0.00  0.00    +0.000 C 
ATOM     15  C   UNL     1       7.186   4.864  18.080  0.00  0.00    +0.000 C 
ATOM     16  F   UNL     1       8.173   4.200  17.388  0.00  0.00    +0.000 F 
ATOM     17  H   UNL     1       7.231   9.442  16.985  0.00  0.00    +0.000 HD
ATOM     18  H   UNL     1       8.363   9.310  18.259  0.00  0.00    +0.000 HD
ENDBRANCH   1   9
BRANCH   3  19
ATOM     19  N   UNL     1       2.105   7.674  19.078  0.00  0.00    +0.000 N 
ATOM     20  C   UNL     1       1.530   7.669  20.338  0.00  0.00    +0.000 C 
ATOM     21  O   UNL     1       1.520   6.735  21.134  0.00  0.00    +0.000 OA
ATOM     22  H   UNL     1       2.107   8.575  18.603  0.00  0.00    +0.000 HD
BRANCH  20  23
ATOM     23  C   UNL     1       0.903   8.956  20.766  0.00  0.00    +0.000 A 
ATOM     24  C   UNL     1       0.322   9.027  22.033  0.00  0.00    +0.000 A 
ATOM     25  C   UNL     1      -0.227  10.235  22.452  0.00  0.00    +0.000 A 
ATOM     26  C   UNL     1      -0.186  11.324  21.591  0.00  0.00    +0.000 A 
ATOM     27 CL   UNL     1      -0.832  12.836  22.077  0.00  0.00    +0.000 Cl
ATOM     28  C   UNL     1       0.399  11.161  20.339  0.00  0.00    +0.000 A 
ATOM     29  N   UNL     1       0.954  10.002  19.895  0.00  0.00    +0.000 NA
ENDBRANCH  20  23
ENDBRANCH   3  19
TORSDOF 3
ENDMDL
MODEL 4
REMARK VINA RESULT:      -8.8      3.085      4.260
REMARK  Name = 
REMARK  4 active torsions:
REMARK  status: ('A' for Active; 'I' for Inactive)
REMARK    1  A    between atoms: C_1  and  C_2
REMARK    2  A    between atoms: C_2  and  C_3
REMARK    3  A    between atoms: C_5  and  N_6
REMARK    4  A    between atoms: C_7  and  C_9
REMARK                            x       y       z     vdW  Elec       q    Type
REMARK                         _______ _______ _______ _____ _____    ______ ____
ROOT
ATOM      1  C   UNL     1       2.935   5.129  18.402  0.00  0.00    +0.000 A 
ATOM      2  C   UNL     1       2.220   6.155  19.058  0.00  0.00    +0.000 A 
ATOM      3  C   UNL     1       2.450   7.522  18.840  0.00  0.00    +0.000 A 
ATOM      4  C   UNL     1       3.386   7.890  17.876  0.00  0.00    +0.000 A 
ATOM      5  C   UNL     1       4.078   6.902  17.170  0.00  0.00    +0.000 A 
ATOM      6  C   UNL     1       3.848   5.548  17.431  0.00  0.00    +0.000 A 
ATOM      7  F   UNL     1       4.536   4.655  16.711  0.00  0.00    +0.000 F 
ENDROOT
BRANCH   1   9
ATOM      8  C   UNL     1       2.234   2.875  17.417  0.00  0.00    +0.000 C 
ATOM      9  C   UNL     1       2.652   3.639  18.711  0.00  0.00    +0.000 C 
ATOM     10  N   UNL     1       3.915   3.011  19.106  0.00  0.00    +0.000 NA
ATOM     11  C   UNL     1       4.044   2.382  20.206  0.00  0.00    +0.000 C 
ATOM     12  N   UNL     1       5.182   1.734  20.537  0.00  0.00    +0.000 N 
ATOM     13  O   UNL     1       3.136   2.275  21.185  0.00  0.00    +0.000 OA
ATOM     14  C   UNL     1       1.957   3.083  21.128  0.00  0.00    +0.000 C 
ATOM     15  C   UNL     1       1.497   3.430  19.728  0.00  0.00    +0.000 C 
ATOM     16  F   UNL     1       0.697   2.383  19.331  0.00  0.00    +0.000 F 
ATOM     17  H   UNL     1       5.985   2.034  19.999  0.00  0.00    +0.000 HD
ATOM     18  H   UNL     1       5.336   1.640  21.530  0.00  0.00    +0.000 HD
ENDBRANCH   1   9
BRANCH   3  19
ATOM     19  N   UNL     1       1.764   8.529  19.558  0.00  0.00    +0.000 N 
ATOM     20  C   UNL     1       1.158   8.382  20.794  0.00  0.00    +0.000 C 
ATOM     21  O   UNL     1       1.151   7.371  21.490  0.00  0.00    +0.000 OA
ATOM     22  H   UNL     1       1.757   9.475  19.178  0.00  0.00    +0.000 HD
BRANCH  20  23
ATOM     23  C   UNL     1       0.490   9.604  21.334  0.00  0.00    +0.000 A 
ATOM     24  C   UNL     1      -0.274   9.489  22.497  0.00  0.00    +0.000 A 
ATOM     25  C   UNL     1      -0.865  10.632  23.027  0.00  0.00    +0.000 A 
ATOM     26  C   UNL     1      -0.681  11.845  22.375  0.00  0.00    +0.000 A 
ATOM     27 CL   UNL     1      -1.374  13.281  23.007  0.00  0.00    +0.000 Cl
ATOM     28  C   UNL     1       0.084  11.867  21.212  0.00  0.00    +0.000 A 
ATOM     29  N   UNL     1       0.684  10.776  20.667  0.00  0.00    +0.000 NA
ENDBRANCH  20  23
ENDBRANCH   3  19
TORSDOF 3
ENDMDL
MODEL 5
REMARK VINA RESULT:      -8.7      2.949      4.221
REMARK  Name = 
REMARK  4 active torsions:
REMARK  status: ('A' for Active; 'I' for Inactive)
REMARK    1  A    between atoms: C_1  and  C_2
REMARK    2  A    between atoms: C_2  and  C_3
REMARK    3  A    between atoms: C_5  and  N_6
REMARK    4  A    between atoms: C_7  and  C_9
REMARK                            x       y       z     vdW  Elec       q    Type
REMARK                         _______ _______ _______ _____ _____    ______ ____
ROOT
ATOM      1  C   UNL     1       3.074   5.056  18.254  0.00  0.00    +0.000 A 
ATOM      2  C   UNL     1       2.265   6.142  18.655  0.00  0.00    +0.000 A 
ATOM      3  C   UNL     1       2.549   7.479  18.339  0.00  0.00    +0.000 A 
ATOM      4  C   UNL     1       3.652   7.747  17.530  0.00  0.00    +0.000 A 
ATOM      5  C   UNL     1       4.448   6.694  17.073  0.00  0.00    +0.000 A 
ATOM      6  C   UNL     1       4.155   5.374  17.429  0.00  0.00    +0.000 A 
ATOM      7  F   UNL     1       4.952   4.414  16.947  0.00  0.00    +0.000 F 
ENDROOT
BRANCH   1   9
ATOM      8  C   UNL     1       2.228   2.788  17.428  0.00  0.00    +0.000 C 
ATOM      9  C   UNL     1       2.718   3.606  18.662  0.00  0.00    +0.000 C 
ATOM     10  N   UNL     1       3.955   2.933  19.069  0.00  0.00    +0.000 NA
ATOM     11  C   UNL     1       4.077   2.367  20.203  0.00  0.00    +0.000 C 
ATOM     12  N   UNL     1       5.185   1.679  20.550  0.00  0.00    +0.000 N 
ATOM     13  O   UNL     1       3.188   2.371  21.205  0.00  0.00    +0.000 OA
ATOM     14  C   UNL     1       2.054   3.239  21.123  0.00  0.00    +0.000 C 
ATOM     15  C   UNL     1       1.579   3.524  19.714  0.00  0.00    +0.000 C 
ATOM     16  F   UNL     1       0.714   2.501  19.400  0.00  0.00    +0.000 F 
ATOM     17  H   UNL     1       5.990   1.900  19.977  0.00  0.00    +0.000 HD
ATOM     18  H   UNL     1       5.358   1.637  21.544  0.00  0.00    +0.000 HD
ENDBRANCH   1   9
BRANCH   3  19
ATOM     19  N   UNL     1       1.757   8.553  18.807  0.00  0.00    +0.000 N 
ATOM     20  C   UNL     1       1.322   8.740  20.108  0.00  0.00    +0.000 C 
ATOM     21  O   UNL     1       1.585   8.033  21.076  0.00  0.00    +0.000 OA
ATOM     22  H   UNL     1       1.526   9.303  18.157  0.00  0.00    +0.000 HD
BRANCH  20  23
ATOM     23  C   UNL     1       0.487   9.957  20.340  0.00  0.00    +0.000 A 
ATOM     24  C   UNL     1      -0.460  10.311  19.377  0.00  0.00    +0.000 A 
ATOM     25  C   UNL     1      -1.268  11.420  19.608  0.00  0.00    +0.000 A 
ATOM     26  C   UNL     1      -1.098  12.140  20.784  0.00  0.00    +0.000 A 
ATOM     27 CL   UNL     1      -2.089  13.500  21.116  0.00  0.00    +0.000 Cl
ATOM     28  C   UNL     1      -0.120  11.726  21.682  0.00  0.00    +0.000 A 
ATOM     29  N   UNL     1       0.684  10.645  21.499  0.00  0.00    +0.000 NA
ENDBRANCH  20  23
ENDBRANCH   3  19
TORSDOF 3
ENDMDL
MODEL 6
REMARK VINA RESULT:      -8.7      2.992      4.149
REMARK  Name = 
REMARK  4 active torsions:
REMARK  status: ('A' for Active; 'I' for Inactive)
REMARK    1  A    between atoms: C_1  and  C_2
REMARK    2  A    between atoms: C_2  and  C_3
REMARK    3  A    between atoms: C_5  and  N_6
REMARK    4  A    between atoms: C_7  and  C_9
REMARK                            x       y       z     vdW  Elec       q    Type
REMARK                         _______ _______ _______ _____ _____    ______ ____
ROOT
ATOM      1  C   UNL     1       2.879   5.115  18.469  0.00  0.00    +0.000 A 
ATOM      2  C   UNL     1       2.187   6.132  19.162  0.00  0.00    +0.000 A 
ATOM      3  C   UNL     1       2.408   7.502  18.952  0.00  0.00    +0.000 A 
ATOM      4  C   UNL     1       3.311   7.881  17.961  0.00  0.00    +0.000 A 
ATOM      5  C   UNL     1       3.978   6.902  17.220  0.00  0.00    +0.000 A 
ATOM      6  C   UNL     1       3.757   5.545  17.473  0.00  0.00    +0.000 A 
ATOM      7  F   UNL     1       4.421   4.661  16.719  0.00  0.00    +0.000 F 
ENDROOT
BRANCH   1   9
ATOM      8  C   UNL     1       2.169   2.866  17.478  0.00  0.00    +0.000 C 
ATOM      9  C   UNL     1       2.606   3.621  18.771  0.00  0.00    +0.000 C 
ATOM     10  N   UNL     1       3.879   2.994  19.138  0.00  0.00    +0.000 NA
ATOM     11  C   UNL     1       4.030   2.356  20.229  0.00  0.00    +0.000 C 
ATOM     12  N   UNL     1       5.175   1.710  20.535  0.00  0.00    +0.000 N 
ATOM     13  O   UNL     1       3.139   2.237  21.223  0.00  0.00    +0.000 OA
ATOM     14  C   UNL     1       1.957   3.041  21.194  0.00  0.00    +0.000 C 
ATOM     15  C   UNL     1       1.471   3.398  19.806  0.00  0.00    +0.000 C 
ATOM     16  F   UNL     1       0.667   2.352  19.414  0.00  0.00    +0.000 F 
ATOM     17  H   UNL     1       5.968   2.017  19.985  0.00  0.00    +0.000 HD
ATOM     18  H   UNL     1       5.347   1.608  21.524  0.00  0.00    +0.000 HD
ENDBRANCH   1   9
BRANCH   3  19
ATOM     19  N   UNL     1       1.748   8.500  19.704  0.00  0.00    +0.000 N 
ATOM     20  C   UNL     1       0.945   9.508  19.197  0.00  0.00    +0.000 C 
ATOM     21  O   UNL     1       0.639   9.677  18.020  0.00  0.00    +0.000 OA
ATOM     22  H   UNL     1       1.803   8.457  20.721  0.00  0.00    +0.000 HD
BRANCH  20  23
ATOM     23  C   UNL     1       0.369  10.445  20.208  0.00  0.00    +0.000 A 
ATOM     24  C   UNL     1      -0.037   9.930  21.440  0.00  0.00    +0.000 A 
ATOM     25  C   UNL     1      -0.536  10.805  22.400  0.00  0.00    +0.000 A 
ATOM     26  C   UNL     1      -0.621  12.158  22.095  0.00  0.00    +0.000 A 
ATOM     27 CL   UNL     1      -1.210  13.272  23.258  0.00  0.00    +0.000 Cl
ATOM     28  C   UNL     1      -0.208  12.583  20.836  0.00  0.00    +0.000 A 
ATOM     29  N   UNL     1       0.293  11.763  19.874  0.00  0.00    +0.000 NA
ENDBRANCH  20  23
ENDBRANCH   3  19
TORSDOF 3
ENDMDL
MODEL 7
REMARK VINA RESULT:      -8.7      3.163      4.385
REMARK  Name = 
REMARK  4 active torsions:
REMARK  status: ('A' for Active; 'I' for Inactive)
REMARK    1  A    between atoms: C_1  and  C_2
REMARK    2  A    between atoms: C_2  and  C_3
REMARK    3  A    between atoms: C_5  and  N_6
REMARK    4  A    between atoms: C_7  and  C_9
REMARK                            x       y       z     vdW  Elec       q    Type
REMARK                         _______ _______ _______ _____ _____    ______ ____
ROOT
ATOM      1  C   UNL     1       2.630   5.212  18.809  0.00  0.00    +0.000 A 
ATOM      2  C   UNL     1       1.991   6.263  19.501  0.00  0.00    +0.000 A 
ATOM      3  C   UNL     1       2.208   7.621  19.220  0.00  0.00    +0.000 A 
ATOM      4  C   UNL     1       3.049   7.951  18.159  0.00  0.00    +0.000 A 
ATOM      5  C   UNL     1       3.660   6.936  17.418  0.00  0.00    +0.000 A 
ATOM      6  C   UNL     1       3.446   5.592  17.741  0.00  0.00    +0.000 A 
ATOM      7  F   UNL     1       4.054   4.672  16.984  0.00  0.00    +0.000 F 
ENDROOT
BRANCH   1   9
ATOM      8  C   UNL     1       1.646   2.984  18.027  0.00  0.00    +0.000 C 
ATOM      9  C   UNL     1       2.367   3.734  19.189  0.00  0.00    +0.000 C 
ATOM     10  N   UNL     1       3.662   3.058  19.303  0.00  0.00    +0.000 NA
ATOM     11  C   UNL     1       4.007   2.427  20.353  0.00  0.00    +0.000 C 
ATOM     12  N   UNL     1       5.165   1.738  20.433  0.00  0.00    +0.000 N 
ATOM     13  O   UNL     1       3.333   2.358  21.509  0.00  0.00    +0.000 OA
ATOM     14  C   UNL     1       2.202   3.211  21.705  0.00  0.00    +0.000 C 
ATOM     15  C   UNL     1       1.458   3.572  20.437  0.00  0.00    +0.000 C 
ATOM     16  F   UNL     1       0.552   2.556  20.237  0.00  0.00    +0.000 F 
ATOM     17  H   UNL     1       5.840   2.005  19.728  0.00  0.00    +0.000 HD
ATOM     18  H   UNL     1       5.530   1.640  21.369  0.00  0.00    +0.000 HD
ENDBRANCH   1   9
BRANCH   3  19
ATOM     19  N   UNL     1       1.604   8.656  19.971  0.00  0.00    +0.000 N 
ATOM     20  C   UNL     1       0.753   9.631  19.480  0.00  0.00    +0.000 C 
ATOM     21  O   UNL     1       0.348   9.735  18.326  0.00  0.00    +0.000 OA
ATOM     22  H   UNL     1       1.744   8.668  20.980  0.00  0.00    +0.000 HD
BRANCH  20  23
ATOM     23  C   UNL     1       0.255  10.619  20.484  0.00  0.00    +0.000 A 
ATOM     24  C   UNL     1       0.213  11.968  20.130  0.00  0.00    +0.000 A 
ATOM     25  C   UNL     1      -0.287  12.887  21.048  0.00  0.00    +0.000 A 
ATOM     26  C   UNL     1      -0.719  12.430  22.286  0.00  0.00    +0.000 A 
ATOM     27 CL   UNL     1      -1.363  13.527  23.436  0.00  0.00    +0.000 Cl
ATOM     28  C   UNL     1      -0.628  11.069  22.562  0.00  0.00    +0.000 A 
ATOM     29  N   UNL     1      -0.154  10.138  21.691  0.00  0.00    +0.000 NA
ENDBRANCH  20  23
ENDBRANCH   3  19
TORSDOF 3
ENDMDL
MODEL 8
REMARK VINA RESULT:      -8.5      3.136      4.429
REMARK  Name = 
REMARK  4 active torsions:
REMARK  status: ('A' for Active; 'I' for Inactive)
REMARK    1  A    between atoms: C_1  and  C_2
REMARK    2  A    between atoms: C_2  and  C_3
REMARK    3  A    between atoms: C_5  and  N_6
REMARK    4  A    between atoms: C_7  and  C_9
REMARK                            x       y       z     vdW  Elec       q    Type
REMARK                         _______ _______ _______ _____ _____    ______ ____
ROOT
ATOM      1  C   UNL     1       3.282   5.161  18.536  0.00  0.00    +0.000 A 
ATOM      2  C   UNL     1       2.531   6.134  19.231  0.00  0.00    +0.000 A 
ATOM      3  C   UNL     1       2.501   7.491  18.874  0.00  0.00    +0.000 A 
ATOM      4  C   UNL     1       3.196   7.891  17.734  0.00  0.00    +0.000 A 
ATOM      5  C   UNL     1       3.911   6.947  16.992  0.00  0.00    +0.000 A 
ATOM      6  C   UNL     1       3.945   5.607  17.391  0.00  0.00    +0.000 A 
ATOM      7  F   UNL     1       4.639   4.754  16.628  0.00  0.00    +0.000 F 
ENDROOT
BRANCH   1   9
ATOM      8  C   UNL     1       4.749   3.124  19.026  0.00  0.00    +0.000 C 
ATOM      9  C   UNL     1       3.294   3.685  19.001  0.00  0.00    +0.000 C 
ATOM     10  N   UNL     1       2.873   3.649  20.405  0.00  0.00    +0.000 NA
ATOM     11  C   UNL     1       1.903   2.927  20.803  0.00  0.00    +0.000 C 
ATOM     12  N   UNL     1       1.563   2.830  22.106  0.00  0.00    +0.000 N 
ATOM     13  O   UNL     1       1.080   2.193  20.042  0.00  0.00    +0.000 OA
ATOM     14  C   UNL     1       1.127   2.346  18.621  0.00  0.00    +0.000 C 
ATOM     15  C   UNL     1       2.483   2.740  18.074  0.00  0.00    +0.000 C 
ATOM     16  F   UNL     1       3.164   1.559  17.886  0.00  0.00    +0.000 F 
ATOM     17  H   UNL     1       1.933   3.582  22.673  0.00  0.00    +0.000 HD
ATOM     18  H   UNL     1       0.593   2.600  22.269  0.00  0.00    +0.000 HD
ENDBRANCH   1   9
BRANCH   3  19
ATOM     19  N   UNL     1       1.791   8.456  19.624  0.00  0.00    +0.000 N 
ATOM     20  C   UNL     1       1.106   8.230  20.807  0.00  0.00    +0.000 C 
ATOM     21  O   UNL     1       1.037   7.169  21.420  0.00  0.00    +0.000 OA
ATOM     22  H   UNL     1       1.824   9.428  19.319  0.00  0.00    +0.000 HD
BRANCH  20  23
ATOM     23  C   UNL     1       0.428   9.422  21.399  0.00  0.00    +0.000 A 
ATOM     24  C   UNL     1      -0.298   9.260  22.579  0.00  0.00    +0.000 A 
ATOM     25  C   UNL     1      -0.897  10.376  23.156  0.00  0.00    +0.000 A 
ATOM     26  C   UNL     1      -0.759  11.609  22.532  0.00  0.00    +0.000 A 
ATOM     27 CL   UNL     1      -1.463  13.012  23.222  0.00  0.00    +0.000 Cl
ATOM     28  C   UNL     1      -0.029  11.677  21.349  0.00  0.00    +0.000 A 
ATOM     29  N   UNL     1       0.578  10.614  20.758  0.00  0.00    +0.000 NA
ENDBRANCH  20  23
ENDBRANCH   3  19
TORSDOF 3
ENDMDL
MODEL 9
REMARK VINA RESULT:      -8.5      3.172      4.328
REMARK  Name = 
REMARK  4 active torsions:
REMARK  status: ('A' for Active; 'I' for Inactive)
REMARK    1  A    between atoms: C_1  and  C_2
REMARK    2  A    between atoms: C_2  and  C_3
REMARK    3  A    between atoms: C_5  and  N_6
REMARK    4  A    between atoms: C_7  and  C_9
REMARK                            x       y       z     vdW  Elec       q    Type
REMARK                         _______ _______ _______ _____ _____    ______ ____
ROOT
ATOM      1  C   UNL     1       3.220   5.354  18.710  0.00  0.00    +0.000 A 
ATOM      2  C   UNL     1       2.398   6.245  19.435  0.00  0.00    +0.000 A 
ATOM      3  C   UNL     1       2.277   7.610  19.132  0.00  0.00    +0.000 A 
ATOM      4  C   UNL     1       2.952   8.101  18.016  0.00  0.00    +0.000 A 
ATOM      5  C   UNL     1       3.735   7.239  17.245  0.00  0.00    +0.000 A 
ATOM      6  C   UNL     1       3.858   5.890  17.590  0.00  0.00    +0.000 A 
ATOM      7  F   UNL     1       4.615   5.118  16.802  0.00  0.00    +0.000 F 
ENDROOT
BRANCH   1   9
ATOM      8  C   UNL     1       4.822   3.420  19.196  0.00  0.00    +0.000 C 
ATOM      9  C   UNL     1       3.329   3.864  19.117  0.00  0.00    +0.000 C 
ATOM     10  N   UNL     1       2.845   3.735  20.494  0.00  0.00    +0.000 NA
ATOM     11  C   UNL     1       1.919   2.921  20.813  0.00  0.00    +0.000 C 
ATOM     12  N   UNL     1       1.525   2.742  22.092  0.00  0.00    +0.000 N 
ATOM     13  O   UNL     1       1.196   2.158  19.983  0.00  0.00    +0.000 OA
ATOM     14  C   UNL     1       1.299   2.376  18.573  0.00  0.00    +0.000 C 
ATOM     15  C   UNL     1       2.644   2.899  18.113  0.00  0.00    +0.000 C 
ATOM     16  F   UNL     1       3.427   1.785  17.914  0.00  0.00    +0.000 F 
ATOM     17  H   UNL     1       1.805   3.495  22.707  0.00  0.00    +0.000 HD
ATOM     18  H   UNL     1       0.571   2.428  22.196  0.00  0.00    +0.000 HD
ENDBRANCH   1   9
BRANCH   3  19
ATOM     19  N   UNL     1       1.497   8.494  19.913  0.00  0.00    +0.000 N 
ATOM     20  C   UNL     1       0.649   9.477  19.431  0.00  0.00    +0.000 C 
ATOM     21  O   UNL     1       0.401   9.717  18.253  0.00  0.00    +0.000 OA
ATOM     22  H   UNL     1       1.495   8.373  20.924  0.00  0.00    +0.000 HD
BRANCH  20  23
ATOM     23  C   UNL     1      -0.057  10.285  20.471  0.00  0.00    +0.000 A 
ATOM     24  C   UNL     1      -0.061   9.823  21.788  0.00  0.00    +0.000 A 
ATOM     25  C   UNL     1      -0.684  10.592  22.766  0.00  0.00    +0.000 A 
ATOM     26  C   UNL     1      -1.285  11.788  22.396  0.00  0.00    +0.000 A 
ATOM     27 CL   UNL     1      -2.042  12.776  23.576  0.00  0.00    +0.000 Cl
ATOM     28  C   UNL     1      -1.246  12.166  21.058  0.00  0.00    +0.000 A 
ATOM     29  N   UNL     1      -0.643  11.449  20.073  0.00  0.00    +0.000 NA
ENDBRANCH  20  23
ENDBRANCH   3  19
TORSDOF 3
ENDMDL
