MODEL 1
REMARK VINA RESULT:      -6.1      0.000      0.000
REMARK  Name = 
REMARK  2 active torsions:
REMARK  status: ('A' for Active; 'I' for Inactive)
REMARK    1  A    between atoms: O_1  and  C_2
REMARK    2  A    between atoms: C_8  and  O_9
REMARK                            x       y       z     vdW  Elec       q    Type
REMARK                         _______ _______ _______ _____ _____    ______ ____
ROOT
ATOM      1  C   UNL     1       2.179   2.887  18.219  0.00  0.00    +0.000 A 
ATOM      2  C   UNL     1       1.636   4.023  18.806  0.00  0.00    +0.000 A 
ATOM      3  C   UNL     1       2.225   5.264  18.566  0.00  0.00    +0.000 A 
ATOM      4  C   UNL     1       3.357   5.377  17.740  0.00  0.00    +0.000 A 
ATOM      5  C   UNL     1       3.884   4.223  17.127  0.00  0.00    +0.000 A 
ATOM      6  C   UNL     1       3.293   2.977  17.391  0.00  0.00    +0.000 A 
ATOM      7  C   UNL     1       5.090   4.289  16.217  0.00  0.00    +0.000 C 
ATOM      8  C   UNL     1       5.383   5.706  15.717  0.00  0.00    +0.000 C 
ATOM      9  C   UNL     1       5.336   6.704  16.870  0.00  0.00    +0.000 C 
ATOM     10  C   UNL     1       3.937   6.746  17.481  0.00  0.00    +0.000 C 
ENDROOT
BRANCH   1  11
ATOM     11  O   UNL     1       1.639   1.653  18.429  0.00  0.00    +0.000 OA
ATOM     12  H   UNL     1       0.842   1.752  18.974  0.00  0.00    +0.000 HD
ENDBRANCH   1  11
BRANCH   7  13
ATOM     13  O   UNL     1       6.241   3.815  16.913  0.00  0.00    +0.000 OA
ATOM     14  H   UNL     1       7.024   4.167  16.452  0.00  0.00    +0.000 HD
ENDBRANCH   7  13
TORSDOF 2
ENDMDL
MODEL 2
REMARK VINA RESULT:      -6.0      1.266      4.168
REMARK  Name = 
REMARK  2 active torsions:
REMARK  status: ('A' for Active; 'I' for Inactive)
REMARK    1  A    between atoms: O_1  and  C_2
REMARK    2  A    between atoms: C_8  and  O_9
REMARK                            x       y       z     vdW  Elec       q    Type
REMARK                         _______ _______ _______ _____ _____    ______ ____
ROOT
ATOM      1  C   UNL     1       4.786   3.864  17.034  0.00  0.00    +0.000 A 
ATOM      2  C   UNL     1       4.623   5.217  17.301  0.00  0.00    +0.000 A 
ATOM      3  C   UNL     1       3.687   5.619  18.253  0.00  0.00    +0.000 A 
ATOM      4  C   UNL     1       2.911   4.673  18.944  0.00  0.00    +0.000 A 
ATOM      5  C   UNL     1       3.102   3.300  18.687  0.00  0.00    +0.000 A 
ATOM      6  C   UNL     1       4.035   2.909  17.713  0.00  0.00    +0.000 A 
ATOM      7  C   UNL     1       2.305   2.239  19.413  0.00  0.00    +0.000 C 
ATOM      8  C   UNL     1       1.633   2.763  20.684  0.00  0.00    +0.000 C 
ATOM      9  C   UNL     1       0.927   4.088  20.413  0.00  0.00    +0.000 C 
ATOM     10  C   UNL     1       1.937   5.153  19.992  0.00  0.00    +0.000 C 
ENDROOT
BRANCH   1  11
ATOM     11  O   UNL     1       5.685   3.426  16.108  0.00  0.00    +0.000 OA
ATOM     12  H   UNL     1       5.657   2.456  16.084  0.00  0.00    +0.000 HD
ENDBRANCH   1  11
BRANCH   7  13
ATOM     13  O   UNL     1       1.291   1.729  18.550  0.00  0.00    +0.000 OA
ATOM     14  H   UNL     1       0.708   1.164  19.090  0.00  0.00    +0.000 HD
ENDBRANCH   7  13
TORSDOF 2
ENDMDL
MODEL 3
REMARK VINA RESULT:      -6.0      2.648      4.689
REMARK  Name = 
REMARK  2 active torsions:
REMARK  status: ('A' for Active; 'I' for Inactive)
REMARK    1  A    between atoms: O_1  and  C_2
REMARK    2  A    between atoms: C_8  and  O_9
REMARK                            x       y       z     vdW  Elec       q    Type
REMARK                         _______ _______ _______ _____ _____    ______ ____
ROOT
ATOM      1  C   UNL     1       2.013   6.862  20.281  0.00  0.00    +0.000 A 
ATOM      2  C   UNL     1       2.557   7.109  19.027  0.00  0.00    +0.000 A 
ATOM      3  C   UNL     1       2.667   6.063  18.111  0.00  0.00    +0.000 A 
ATOM      4  C   UNL     1       2.234   4.768  18.441  0.00  0.00    +0.000 A 
ATOM      5  C   UNL     1       1.657   4.532  19.705  0.00  0.00    +0.000 A 
ATOM      6  C   UNL     1       1.569   5.589  20.625  0.00  0.00    +0.000 A 
ATOM      7  C   UNL     1       1.161   3.161  20.106  0.00  0.00    +0.000 C 
ATOM      8  C   UNL     1       0.960   2.226  18.911  0.00  0.00    +0.000 C 
ATOM      9  C   UNL     1       2.169   2.274  17.981  0.00  0.00    +0.000 C 
ATOM     10  C   UNL     1       2.340   3.677  17.403  0.00  0.00    +0.000 C 
ENDROOT
BRANCH   1  11
ATOM     11  O   UNL     1       1.890   7.851  21.210  0.00  0.00    +0.000 OA
ATOM     12  H   UNL     1       2.178   8.688  20.811  0.00  0.00    +0.000 HD
ENDBRANCH   1  11
BRANCH   7  13
ATOM     13  O   UNL     1       2.097   2.555  20.995  0.00  0.00    +0.000 OA
ATOM     14  H   UNL     1       1.584   2.106  21.693  0.00  0.00    +0.000 HD
ENDBRANCH   7  13
TORSDOF 2
ENDMDL
MODEL 4
REMARK VINA RESULT:      -5.9      2.027      4.462
REMARK  Name = 
REMARK  2 active torsions:
REMARK  status: ('A' for Active; 'I' for Inactive)
REMARK    1  A    between atoms: O_1  and  C_2
REMARK    2  A    between atoms: C_8  and  O_9
REMARK                            x       y       z     vdW  Elec       q    Type
REMARK                         _______ _______ _______ _____ _____    ______ ____
ROOT
ATOM      1  C   UNL     1       5.539   4.338  18.644  0.00  0.00    +0.000 A 
ATOM      2  C   UNL     1       5.097   5.644  18.813  0.00  0.00    +0.000 A 
ATOM      3  C   UNL     1       3.832   5.873  19.356  0.00  0.00    +0.000 A 
ATOM      4  C   UNL     1       3.005   4.801  19.732  0.00  0.00    +0.000 A 
ATOM      5  C   UNL     1       3.473   3.480  19.583  0.00  0.00    +0.000 A 
ATOM      6  C   UNL     1       4.740   3.262  19.019  0.00  0.00    +0.000 A 
ATOM      7  C   UNL     1       2.631   2.290  19.986  0.00  0.00    +0.000 C 
ATOM      8  C   UNL     1       1.477   2.665  20.920  0.00  0.00    +0.000 C 
ATOM      9  C   UNL     1       0.732   3.888  20.391  0.00  0.00    +0.000 C 
ATOM     10  C   UNL     1       1.660   5.099  20.349  0.00  0.00    +0.000 C 
ENDROOT
BRANCH   1  11
ATOM     11  O   UNL     1       6.765   4.067  18.113  0.00  0.00    +0.000 OA
ATOM     12  H   UNL     1       6.755   4.306  17.173  0.00  0.00    +0.000 HD
ENDBRANCH   1  11
BRANCH   7  13
ATOM     13  O   UNL     1       2.082   1.677  18.822  0.00  0.00    +0.000 OA
ATOM     14  H   UNL     1       2.695   0.969  18.551  0.00  0.00    +0.000 HD
ENDBRANCH   7  13
TORSDOF 2
ENDMDL
MODEL 5
REMARK VINA RESULT:      -5.9      1.991      4.573
REMARK  Name = 
REMARK  2 active torsions:
REMARK  status: ('A' for Active; 'I' for Inactive)
REMARK    1  A    between atoms: O_1  and  C_2
REMARK    2  A    between atoms: C_8  and  O_9
REMARK                            x       y       z     vdW  Elec       q    Type
REMARK                         _______ _______ _______ _____ _____    ______ ____
ROOT
ATOM      1  C   UNL     1       5.517   4.062  18.217  0.00  0.00    +0.000 A 
ATOM      2  C   UNL     1       4.818   3.884  17.030  0.00  0.00    +0.000 A 
ATOM      3  C   UNL     1       3.443   3.653  17.074  0.00  0.00    +0.000 A 
ATOM      4  C   UNL     1       2.761   3.602  18.302  0.00  0.00    +0.000 A 
ATOM      5  C   UNL     1       3.474   3.812  19.499  0.00  0.00    +0.000 A 
ATOM      6  C   UNL     1       4.860   4.025  19.442  0.00  0.00    +0.000 A 
ATOM      7  C   UNL     1       2.787   3.783  20.846  0.00  0.00    +0.000 C 
ATOM      8  C   UNL     1       1.267   3.932  20.744  0.00  0.00    +0.000 C 
ATOM      9  C   UNL     1       0.707   3.008  19.666  0.00  0.00    +0.000 C 
ATOM     10  C   UNL     1       1.267   3.387  18.298  0.00  0.00    +0.000 C 
ENDROOT
BRANCH   1  11
ATOM     11  O   UNL     1       6.862   4.285  18.221  0.00  0.00    +0.000 OA
ATOM     12  H   UNL     1       7.309   3.491  17.887  0.00  0.00    +0.000 HD
ENDBRANCH   1  11
BRANCH   7  13
ATOM     13  O   UNL     1       3.071   2.548  21.501  0.00  0.00    +0.000 OA
ATOM     14  H   UNL     1       4.042   2.456  21.537  0.00  0.00    +0.000 HD
ENDBRANCH   7  13
TORSDOF 2
ENDMDL
MODEL 6
REMARK VINA RESULT:      -5.9      1.900      2.105
REMARK  Name = 
REMARK  2 active torsions:
REMARK  status: ('A' for Active; 'I' for Inactive)
REMARK    1  A    between atoms: O_1  and  C_2
REMARK    2  A    between atoms: C_8  and  O_9
REMARK                            x       y       z     vdW  Elec       q    Type
REMARK                         _______ _______ _______ _____ _____    ______ ____
ROOT
ATOM      1  C   UNL     1       2.453   3.477  21.031  0.00  0.00    +0.000 A 
ATOM      2  C   UNL     1       1.812   4.710  21.054  0.00  0.00    +0.000 A 
ATOM      3  C   UNL     1       2.121   5.659  20.079  0.00  0.00    +0.000 A 
ATOM      4  C   UNL     1       3.067   5.381  19.078  0.00  0.00    +0.000 A 
ATOM      5  C   UNL     1       3.691   4.118  19.046  0.00  0.00    +0.000 A 
ATOM      6  C   UNL     1       3.385   3.178  20.043  0.00  0.00    +0.000 A 
ATOM      7  C   UNL     1       4.704   3.761  17.982  0.00  0.00    +0.000 C 
ATOM      8  C   UNL     1       4.651   4.695  16.770  0.00  0.00    +0.000 C 
ATOM      9  C   UNL     1       4.608   6.154  17.217  0.00  0.00    +0.000 C 
ATOM     10  C   UNL     1       3.340   6.426  18.023  0.00  0.00    +0.000 C 
ENDROOT
BRANCH   1  11
ATOM     11  O   UNL     1       2.187   2.522  21.966  0.00  0.00    +0.000 OA
ATOM     12  H   UNL     1       1.317   2.705  22.357  0.00  0.00    +0.000 HD
ENDBRANCH   1  11
BRANCH   7  13
ATOM     13  O   UNL     1       6.018   3.820  18.534  0.00  0.00    +0.000 OA
ATOM     14  H   UNL     1       6.083   4.653  19.037  0.00  0.00    +0.000 HD
ENDBRANCH   7  13
TORSDOF 2
ENDMDL
MODEL 7
REMARK VINA RESULT:      -5.9      1.896      4.589
REMARK  Name = 
REMARK  2 active torsions:
REMARK  status: ('A' for Active; 'I' for Inactive)
REMARK    1  A    between atoms: O_1  and  C_2
REMARK    2  A    between atoms: C_8  and  O_9
REMARK                            x       y       z     vdW  Elec       q    Type
REMARK                         _______ _______ _______ _____ _____    ______ ____
ROOT
ATOM      1  C   UNL     1       6.616   5.980  16.626  0.00  0.00    +0.000 A 
ATOM      2  C   UNL     1       6.566   4.776  15.934  0.00  0.00    +0.000 A 
ATOM      3  C   UNL     1       5.457   3.944  16.088  0.00  0.00    +0.000 A 
ATOM      4  C   UNL     1       4.394   4.310  16.932  0.00  0.00    +0.000 A 
ATOM      5  C   UNL     1       4.441   5.545  17.608  0.00  0.00    +0.000 A 
ATOM      6  C   UNL     1       5.570   6.366  17.459  0.00  0.00    +0.000 A 
ATOM      7  C   UNL     1       3.318   5.995  18.516  0.00  0.00    +0.000 C 
ATOM      8  C   UNL     1       2.018   5.219  18.286  0.00  0.00    +0.000 C 
ATOM      9  C   UNL     1       2.292   3.719  18.222  0.00  0.00    +0.000 C 
ATOM     10  C   UNL     1       3.199   3.394  17.038  0.00  0.00    +0.000 C 
ENDROOT
BRANCH   1  11
ATOM     11  O   UNL     1       7.681   6.822  16.510  0.00  0.00    +0.000 OA
ATOM     12  H   UNL     1       8.367   6.542  17.137  0.00  0.00    +0.000 HD
ENDBRANCH   1  11
BRANCH   7  13
ATOM     13  O   UNL     1       3.705   5.823  19.877  0.00  0.00    +0.000 OA
ATOM     14  H   UNL     1       3.698   6.705  20.294  0.00  0.00    +0.000 HD
ENDBRANCH   7  13
TORSDOF 2
ENDMDL
MODEL 8
REMARK VINA RESULT:      -5.7      1.977      4.690
REMARK  Name = 
REMARK  2 active torsions:
REMARK  status: ('A' for Active; 'I' for Inactive)
REMARK    1  A    between atoms: O_1  and  C_2
REMARK    2  A    between atoms: C_8  and  O_9
REMARK                            x       y       z     vdW  Elec       q    Type
REMARK                         _______ _______ _______ _____ _____    ______ ____
ROOT
ATOM      1  C   UNL     1       4.258   5.456  17.147  0.00  0.00    +0.000 A 
ATOM      2  C   UNL     1       4.486   4.145  16.747  0.00  0.00    +0.000 A 
ATOM      3  C   UNL     1       3.840   3.105  17.415  0.00  0.00    +0.000 A 
ATOM      4  C   UNL     1       2.963   3.368  18.481  0.00  0.00    +0.000 A 
ATOM      5  C   UNL     1       2.716   4.702  18.861  0.00  0.00    +0.000 A 
ATOM      6  C   UNL     1       3.387   5.739  18.194  0.00  0.00    +0.000 A 
ATOM      7  C   UNL     1       1.771   5.042  19.992  0.00  0.00    +0.000 C 
ATOM      8  C   UNL     1       0.838   3.885  20.357  0.00  0.00    +0.000 C 
ATOM      9  C   UNL     1       1.621   2.582  20.485  0.00  0.00    +0.000 C 
ATOM     10  C   UNL     1       2.258   2.212  19.148  0.00  0.00    +0.000 C 
ENDROOT
BRANCH   1  11
ATOM     11  O   UNL     1       4.871   6.504  16.527  0.00  0.00    +0.000 OA
ATOM     12  H   UNL     1       4.206   7.185  16.339  0.00  0.00    +0.000 HD
ENDBRANCH   1  11
BRANCH   7  13
ATOM     13  O   UNL     1       2.520   5.395  21.152  0.00  0.00    +0.000 OA
ATOM     14  H   UNL     1       2.649   6.362  21.131  0.00  0.00    +0.000 HD
ENDBRANCH   7  13
TORSDOF 2
ENDMDL
MODEL 9
REMARK VINA RESULT:      -5.7      2.321      4.698
REMARK  Name = 
REMARK  2 active torsions:
REMARK  status: ('A' for Active; 'I' for Inactive)
REMARK    1  A    between atoms: O_1  and  C_2
REMARK    2  A    between atoms: C_8  and  O_9
REMARK                            x       y       z     vdW  Elec       q    Type
REMARK                         _______ _______ _______ _____ _____    ______ ____
ROOT
ATOM      1  C   UNL     1       7.409   6.187  18.454  0.00  0.00    +0.000 A 
ATOM      2  C   UNL     1       7.209   6.340  17.088  0.00  0.00    +0.000 A 
ATOM      3  C   UNL     1       6.154   5.665  16.472  0.00  0.00    +0.000 A 
ATOM      4  C   UNL     1       5.296   4.838  17.216  0.00  0.00    +0.000 A 
ATOM      5  C   UNL     1       5.489   4.712  18.606  0.00  0.00    +0.000 A 
ATOM      6  C   UNL     1       6.565   5.382  19.211  0.00  0.00    +0.000 A 
ATOM      7  C   UNL     1       4.586   3.847  19.457  0.00  0.00    +0.000 C 
ATOM      8  C   UNL     1       3.265   3.504  18.765  0.00  0.00    +0.000 C 
ATOM      9  C   UNL     1       3.512   3.038  17.333  0.00  0.00    +0.000 C 
ATOM     10  C   UNL     1       4.147   4.158  16.512  0.00  0.00    +0.000 C 
ENDROOT
BRANCH   1  11
ATOM     11  O   UNL     1       8.429   6.823  19.097  0.00  0.00    +0.000 OA
ATOM     12  H   UNL     1       9.270   6.507  18.731  0.00  0.00    +0.000 HD
ENDBRANCH   1  11
BRANCH   7  13
ATOM     13  O   UNL     1       5.253   2.628  19.776  0.00  0.00    +0.000 OA
ATOM     14  H   UNL     1       4.908   2.326  20.638  0.00  0.00    +0.000 HD
ENDBRANCH   7  13
TORSDOF 2
ENDMDL
