MODEL 1
REMARK VINA RESULT:      -6.7      0.000      0.000
REMARK  Name = 
REMARK  11 active torsions:
REMARK  status: ('A' for Active; 'I' for Inactive)
REMARK    1  A    between atoms: C_1  and  C_2
REMARK    2  A    between atoms: C_2  and  C_3
REMARK    3  A    between atoms: C_2  and  C_4
REMARK    4  A    between atoms: C_4  and  C_5
REMARK    5  A    between atoms: C_4  and  C_6
REMARK    6  A    between atoms: C_4  and  N_8
REMARK    7  A    between atoms: C_9  and  C_11
REMARK    8  A    between atoms: N_13  and  C_14
REMARK    9  A    between atoms: C_16  and  O_17
REMARK   10  A    between atoms: O_17  and  S_18
REMARK   11  A    between atoms: S_18  and  C_19
REMARK                            x       y       z     vdW  Elec       q    Type
REMARK                         _______ _______ _______ _____ _____    ______ ____
ROOT
ATOM      1  N   UNL     1       3.820   4.643  18.035  0.00  0.00    +0.000 N 
ATOM      2  C   UNL     1       4.147   3.931  16.900  0.00  0.00    +0.000 C 
ATOM      3  O   UNL     1       3.408   3.077  16.429  0.00  0.00    +0.000 OA
ATOM      4  H   UNL     1       4.413   5.420  18.294  0.00  0.00    +0.000 HD
ENDROOT
BRANCH   2   5
ATOM      5  C   UNL     1       5.430   4.224  16.291  0.00  0.00    +0.000 A 
ATOM      6  C   UNL     1       5.584   4.486  14.938  0.00  0.00    +0.000 A 
ATOM      7  N   UNL     1       6.904   4.730  14.728  0.00  0.00    +0.000 N 
ATOM      8  C   UNL     1       7.523   5.144  13.491  0.00  0.00    +0.000 C 
ATOM      9  N   UNL     1       7.652   4.565  15.832  0.00  0.00    +0.000 NA
ATOM     10  C   UNL     1       6.744   4.360  16.788  0.00  0.00    +0.000 A 
BRANCH  10  11
ATOM     11  O   UNL     1       7.161   4.237  18.060  0.00  0.00    +0.000 OA
BRANCH  11  12
ATOM     12  S   UNL     1       7.148   5.503  19.098  0.00  0.00    +0.000 S 
ATOM     13  C   UNL     1       7.478   6.838  17.952  0.00  0.00    +0.000 C 
ATOM     14  O   UNL     1       5.834   5.674  19.687  0.00  0.00    +0.000 OA
ATOM     15  O   UNL     1       8.316   5.364  19.950  0.00  0.00    +0.000 OA
ENDBRANCH  11  12
ENDBRANCH  10  11
ENDBRANCH   2   5
BRANCH   1  16
ATOM     16  C   UNL     1       2.510   4.495  18.712  0.00  0.00    +0.000 C 
ATOM     17  C   UNL     1       1.350   4.497  17.685  0.00  0.00    +0.000 C 
BRANCH  16  19
ATOM     18  C   UNL     1       3.765   2.839  20.284  0.00  0.00    +0.000 C 
ATOM     19  C   UNL     1       2.463   3.146  19.527  0.00  0.00    +0.000 C 
ATOM     20  C   UNL     1       1.290   3.068  20.519  0.00  0.00    +0.000 C 
ENDBRANCH  16  19
BRANCH  16  21
ATOM     21  C   UNL     1       2.274   5.624  19.663  0.00  0.00    +0.000 C 
ATOM     22  N   UNL     1       2.069   6.522  20.372  0.00  0.00    +0.000 NA
ENDBRANCH  16  21
ENDBRANCH   1  16
TORSDOF 6
ENDMDL
MODEL 2
REMARK VINA RESULT:      -6.7      2.315      3.475
REMARK  Name = 
REMARK  11 active torsions:
REMARK  status: ('A' for Active; 'I' for Inactive)
REMARK    1  A    between atoms: C_1  and  C_2
REMARK    2  A    between atoms: C_2  and  C_3
REMARK    3  A    between atoms: C_2  and  C_4
REMARK    4  A    between atoms: C_4  and  C_5
REMARK    5  A    between atoms: C_4  and  C_6
REMARK    6  A    between atoms: C_4  and  N_8
REMARK    7  A    between atoms: C_9  and  C_11
REMARK    8  A    between atoms: N_13  and  C_14
REMARK    9  A    between atoms: C_16  and  O_17
REMARK   10  A    between atoms: O_17  and  S_18
REMARK   11  A    between atoms: S_18  and  C_19
REMARK                            x       y       z     vdW  Elec       q    Type
REMARK                         _______ _______ _______ _____ _____    ______ ____
ROOT
ATOM      1  N   UNL     1       3.533   4.001  19.157  0.00  0.00    +0.000 N 
ATOM      2  C   UNL     1       4.385   3.759  18.101  0.00  0.00    +0.000 C 
ATOM      3  O   UNL     1       4.076   3.034  17.165  0.00  0.00    +0.000 OA
ATOM      4  H   UNL     1       3.799   4.709  19.829  0.00  0.00    +0.000 HD
ENDROOT
BRANCH   2   5
ATOM      5  C   UNL     1       5.692   4.388  18.156  0.00  0.00    +0.000 A 
ATOM      6  C   UNL     1       6.176   5.028  19.287  0.00  0.00    +0.000 A 
ATOM      7  N   UNL     1       7.422   5.479  18.984  0.00  0.00    +0.000 N 
ATOM      8  C   UNL     1       8.353   6.122  19.881  0.00  0.00    +0.000 C 
ATOM      9  N   UNL     1       7.766   5.257  17.704  0.00  0.00    +0.000 NA
ATOM     10  C   UNL     1       6.761   4.511  17.243  0.00  0.00    +0.000 A 
BRANCH  10  11
ATOM     11  O   UNL     1       6.831   4.035  15.988  0.00  0.00    +0.000 OA
BRANCH  11  12
ATOM     12  S   UNL     1       6.574   4.995  14.687  0.00  0.00    +0.000 S 
ATOM     13  C   UNL     1       6.051   3.763  13.499  0.00  0.00    +0.000 C 
ATOM     14  O   UNL     1       5.493   5.927  14.938  0.00  0.00    +0.000 OA
ATOM     15  O   UNL     1       7.873   5.486  14.259  0.00  0.00    +0.000 OA
ENDBRANCH  11  12
ENDBRANCH  10  11
ENDBRANCH   2   5
BRANCH   1  16
ATOM     16  C   UNL     1       2.145   3.481  19.189  0.00  0.00    +0.000 C 
ATOM     17  C   UNL     1       2.131   1.933  19.152  0.00  0.00    +0.000 C 
BRANCH  16  19
ATOM     18  C   UNL     1       1.747   3.122  21.738  0.00  0.00    +0.000 C 
ATOM     19  C   UNL     1       1.409   3.964  20.498  0.00  0.00    +0.000 C 
ATOM     20  C   UNL     1       1.653   5.446  20.830  0.00  0.00    +0.000 C 
ENDBRANCH  16  19
BRANCH  16  21
ATOM     21  C   UNL     1       1.369   3.969  18.008  0.00  0.00    +0.000 C 
ATOM     22  N   UNL     1       0.756   4.308  17.081  0.00  0.00    +0.000 NA
ENDBRANCH  16  21
ENDBRANCH   1  16
TORSDOF 6
ENDMDL
MODEL 3
REMARK VINA RESULT:      -6.7      1.122      1.131
REMARK  Name = 
REMARK  11 active torsions:
REMARK  status: ('A' for Active; 'I' for Inactive)
REMARK    1  A    between atoms: C_1  and  C_2
REMARK    2  A    between atoms: C_2  and  C_3
REMARK    3  A    between atoms: C_2  and  C_4
REMARK    4  A    between atoms: C_4  and  C_5
REMARK    5  A    between atoms: C_4  and  C_6
REMARK    6  A    between atoms: C_4  and  N_8
REMARK    7  A    between atoms: C_9  and  C_11
REMARK    8  A    between atoms: N_13  and  C_14
REMARK    9  A    between atoms: C_16  and  O_17
REMARK   10  A    between atoms: O_17  and  S_18
REMARK   11  A    between atoms: S_18  and  C_19
REMARK                            x       y       z     vdW  Elec       q    Type
REMARK                         _______ _______ _______ _____ _____    ______ ____
ROOT
ATOM      1  N   UNL     1       3.718   3.810  17.404  0.00  0.00    +0.000 N 
ATOM      2  C   UNL     1       4.327   4.995  17.048  0.00  0.00    +0.000 C 
ATOM      3  O   UNL     1       3.843   6.086  17.318  0.00  0.00    +0.000 OA
ATOM      4  H   UNL     1       4.234   2.951  17.266  0.00  0.00    +0.000 HD
ENDROOT
BRANCH   2   5
ATOM      5  C   UNL     1       5.573   4.894  16.310  0.00  0.00    +0.000 A 
ATOM      6  C   UNL     1       5.665   5.126  14.946  0.00  0.00    +0.000 A 
ATOM      7  N   UNL     1       6.969   4.960  14.603  0.00  0.00    +0.000 N 
ATOM      8  C   UNL     1       7.561   5.192  13.307  0.00  0.00    +0.000 C 
ATOM      9  N   UNL     1       7.735   4.551  15.629  0.00  0.00    +0.000 NA
ATOM     10  C   UNL     1       6.908   4.613  16.673  0.00  0.00    +0.000 A 
BRANCH  10  11
ATOM     11  O   UNL     1       7.389   4.342  17.898  0.00  0.00    +0.000 OA
BRANCH  11  12
ATOM     12  S   UNL     1       7.395   5.465  19.089  0.00  0.00    +0.000 S 
ATOM     13  C   UNL     1       7.724   6.933  18.121  0.00  0.00    +0.000 C 
ATOM     14  O   UNL     1       6.089   5.566  19.710  0.00  0.00    +0.000 OA
ATOM     15  O   UNL     1       8.571   5.211  19.905  0.00  0.00    +0.000 OA
ENDBRANCH  11  12
ENDBRANCH  10  11
ENDBRANCH   2   5
BRANCH   1  16
ATOM     16  C   UNL     1       2.483   3.770  18.223  0.00  0.00    +0.000 C 
ATOM     17  C   UNL     1       1.298   4.431  17.475  0.00  0.00    +0.000 C 
BRANCH  16  19
ATOM     18  C   UNL     1       3.315   1.352  18.715  0.00  0.00    +0.000 C 
ATOM     19  C   UNL     1       2.099   2.280  18.564  0.00  0.00    +0.000 C 
ATOM     20  C   UNL     1       1.220   2.143  19.819  0.00  0.00    +0.000 C 
ENDBRANCH  16  19
BRANCH  16  21
ATOM     21  C   UNL     1       2.675   4.510  19.508  0.00  0.00    +0.000 C 
ATOM     22  N   UNL     1       2.796   5.059  20.525  0.00  0.00    +0.000 NA
ENDBRANCH  16  21
ENDBRANCH   1  16
TORSDOF 6
ENDMDL
MODEL 4
REMARK VINA RESULT:      -6.6      1.257      1.981
REMARK  Name = 
REMARK  11 active torsions:
REMARK  status: ('A' for Active; 'I' for Inactive)
REMARK    1  A    between atoms: C_1  and  C_2
REMARK    2  A    between atoms: C_2  and  C_3
REMARK    3  A    between atoms: C_2  and  C_4
REMARK    4  A    between atoms: C_4  and  C_5
REMARK    5  A    between atoms: C_4  and  C_6
REMARK    6  A    between atoms: C_4  and  N_8
REMARK    7  A    between atoms: C_9  and  C_11
REMARK    8  A    between atoms: N_13  and  C_14
REMARK    9  A    between atoms: C_16  and  O_17
REMARK   10  A    between atoms: O_17  and  S_18
REMARK   11  A    between atoms: S_18  and  C_19
REMARK                            x       y       z     vdW  Elec       q    Type
REMARK                         _______ _______ _______ _____ _____    ______ ____
ROOT
ATOM      1  N   UNL     1       4.164   4.423  18.173  0.00  0.00    +0.000 N 
ATOM      2  C   UNL     1       4.586   3.591  17.157  0.00  0.00    +0.000 C 
ATOM      3  O   UNL     1       4.223   2.425  17.074  0.00  0.00    +0.000 OA
ATOM      4  H   UNL     1       4.396   5.405  18.108  0.00  0.00    +0.000 HD
ENDROOT
BRANCH   2   5
ATOM      5  C   UNL     1       5.507   4.155  16.188  0.00  0.00    +0.000 A 
ATOM      6  C   UNL     1       5.669   3.642  14.910  0.00  0.00    +0.000 A 
ATOM      7  N   UNL     1       6.590   4.421  14.284  0.00  0.00    +0.000 N 
ATOM      8  C   UNL     1       7.009   4.330  12.906  0.00  0.00    +0.000 C 
ATOM      9  N   UNL     1       7.113   5.365  15.085  0.00  0.00    +0.000 NA
ATOM     10  C   UNL     1       6.382   5.262  16.196  0.00  0.00    +0.000 A 
BRANCH  10  11
ATOM     11  O   UNL     1       6.595   6.137  17.194  0.00  0.00    +0.000 OA
BRANCH  11  12
ATOM     12  S   UNL     1       7.329   5.692  18.588  0.00  0.00    +0.000 S 
ATOM     13  C   UNL     1       8.365   7.126  18.857  0.00  0.00    +0.000 C 
ATOM     14  O   UNL     1       6.365   5.572  19.664  0.00  0.00    +0.000 OA
ATOM     15  O   UNL     1       8.205   4.578  18.269  0.00  0.00    +0.000 OA
ENDBRANCH  11  12
ENDBRANCH  10  11
ENDBRANCH   2   5
BRANCH   1  16
ATOM     16  C   UNL     1       3.167   3.996  19.183  0.00  0.00    +0.000 C 
ATOM     17  C   UNL     1       2.765   5.177  20.100  0.00  0.00    +0.000 C 
BRANCH  16  19
ATOM     18  C   UNL     1       0.822   2.897  19.456  0.00  0.00    +0.000 C 
ATOM     19  C   UNL     1       1.872   3.441  18.475  0.00  0.00    +0.000 C 
ATOM     20  C   UNL     1       1.193   4.462  17.547  0.00  0.00    +0.000 C 
ENDBRANCH  16  19
BRANCH  16  21
ATOM     21  C   UNL     1       3.724   2.916  20.054  0.00  0.00    +0.000 C 
ATOM     22  N   UNL     1       4.119   2.057  20.730  0.00  0.00    +0.000 NA
ENDBRANCH  16  21
ENDBRANCH   1  16
TORSDOF 6
ENDMDL
MODEL 5
REMARK VINA RESULT:      -6.6      1.293      1.964
REMARK  Name = 
REMARK  11 active torsions:
REMARK  status: ('A' for Active; 'I' for Inactive)
REMARK    1  A    between atoms: C_1  and  C_2
REMARK    2  A    between atoms: C_2  and  C_3
REMARK    3  A    between atoms: C_2  and  C_4
REMARK    4  A    between atoms: C_4  and  C_5
REMARK    5  A    between atoms: C_4  and  C_6
REMARK    6  A    between atoms: C_4  and  N_8
REMARK    7  A    between atoms: C_9  and  C_11
REMARK    8  A    between atoms: N_13  and  C_14
REMARK    9  A    between atoms: C_16  and  O_17
REMARK   10  A    between atoms: O_17  and  S_18
REMARK   11  A    between atoms: S_18  and  C_19
REMARK                            x       y       z     vdW  Elec       q    Type
REMARK                         _______ _______ _______ _____ _____    ______ ____
ROOT
ATOM      1  N   UNL     1       4.121   4.618  18.043  0.00  0.00    +0.000 N 
ATOM      2  C   UNL     1       4.559   3.753  17.062  0.00  0.00    +0.000 C 
ATOM      3  O   UNL     1       4.168   2.596  16.989  0.00  0.00    +0.000 OA
ATOM      4  H   UNL     1       4.383   5.592  17.968  0.00  0.00    +0.000 HD
ENDROOT
BRANCH   2   5
ATOM      5  C   UNL     1       5.535   4.271  16.121  0.00  0.00    +0.000 A 
ATOM      6  C   UNL     1       5.703   3.755  14.845  0.00  0.00    +0.000 A 
ATOM      7  N   UNL     1       6.679   4.487  14.247  0.00  0.00    +0.000 N 
ATOM      8  C   UNL     1       7.129   4.378  12.879  0.00  0.00    +0.000 C 
ATOM      9  N   UNL     1       7.230   5.399  15.066  0.00  0.00    +0.000 NA
ATOM     10  C   UNL     1       6.467   5.331  16.157  0.00  0.00    +0.000 A 
BRANCH  10  11
ATOM     11  O   UNL     1       6.699   6.190  17.164  0.00  0.00    +0.000 OA
BRANCH  11  12
ATOM     12  S   UNL     1       7.343   5.696  18.586  0.00  0.00    +0.000 S 
ATOM     13  C   UNL     1       8.406   7.092  18.939  0.00  0.00    +0.000 C 
ATOM     14  O   UNL     1       6.319   5.586  19.607  0.00  0.00    +0.000 OA
ATOM     15  O   UNL     1       8.201   4.561  18.291  0.00  0.00    +0.000 OA
ENDBRANCH  11  12
ENDBRANCH  10  11
ENDBRANCH   2   5
BRANCH   1  16
ATOM     16  C   UNL     1       3.073   4.240  19.020  0.00  0.00    +0.000 C 
ATOM     17  C   UNL     1       3.546   3.071  19.919  0.00  0.00    +0.000 C 
BRANCH  16  19
ATOM     18  C   UNL     1       2.551   6.788  19.164  0.00  0.00    +0.000 C 
ATOM     19  C   UNL     1       2.710   5.470  19.938  0.00  0.00    +0.000 C 
ATOM     20  C   UNL     1       1.449   5.248  20.792  0.00  0.00    +0.000 C 
ENDBRANCH  16  19
BRANCH  16  21
ATOM     21  C   UNL     1       1.829   3.796  18.319  0.00  0.00    +0.000 C 
ATOM     22  N   UNL     1       0.846   3.489  17.781  0.00  0.00    +0.000 NA
ENDBRANCH  16  21
ENDBRANCH   1  16
TORSDOF 6
ENDMDL
MODEL 6
REMARK VINA RESULT:      -6.5      0.786      1.194
REMARK  Name = 
REMARK  11 active torsions:
REMARK  status: ('A' for Active; 'I' for Inactive)
REMARK    1  A    between atoms: C_1  and  C_2
REMARK    2  A    between atoms: C_2  and  C_3
REMARK    3  A    between atoms: C_2  and  C_4
REMARK    4  A    between atoms: C_4  and  C_5
REMARK    5  A    between atoms: C_4  and  C_6
REMARK    6  A    between atoms: C_4  and  N_8
REMARK    7  A    between atoms: C_9  and  C_11
REMARK    8  A    between atoms: N_13  and  C_14
REMARK    9  A    between atoms: C_16  and  O_17
REMARK   10  A    between atoms: O_17  and  S_18
REMARK   11  A    between atoms: S_18  and  C_19
REMARK                            x       y       z     vdW  Elec       q    Type
REMARK                         _______ _______ _______ _____ _____    ______ ____
ROOT
ATOM      1  N   UNL     1       4.351   3.713  18.441  0.00  0.00    +0.000 N 
ATOM      2  C   UNL     1       4.260   3.990  17.093  0.00  0.00    +0.000 C 
ATOM      3  O   UNL     1       3.191   4.004  16.499  0.00  0.00    +0.000 OA
ATOM      4  H   UNL     1       5.245   3.846  18.893  0.00  0.00    +0.000 HD
ENDROOT
BRANCH   2   5
ATOM      5  C   UNL     1       5.505   4.245  16.392  0.00  0.00    +0.000 A 
ATOM      6  C   UNL     1       5.572   4.463  15.024  0.00  0.00    +0.000 A 
ATOM      7  N   UNL     1       6.879   4.682  14.721  0.00  0.00    +0.000 N 
ATOM      8  C   UNL     1       7.420   5.048  13.435  0.00  0.00    +0.000 C 
ATOM      9  N   UNL     1       7.695   4.541  15.780  0.00  0.00    +0.000 NA
ATOM     10  C   UNL     1       6.850   4.380  16.799  0.00  0.00    +0.000 A 
BRANCH  10  11
ATOM     11  O   UNL     1       7.348   4.291  18.044  0.00  0.00    +0.000 OA
BRANCH  11  12
ATOM     12  S   UNL     1       7.274   5.546  19.093  0.00  0.00    +0.000 S 
ATOM     13  C   UNL     1       7.628   6.897  17.974  0.00  0.00    +0.000 C 
ATOM     14  O   UNL     1       5.937   5.691  19.632  0.00  0.00    +0.000 OA
ATOM     15  O   UNL     1       8.411   5.416  19.989  0.00  0.00    +0.000 OA
ENDBRANCH  11  12
ENDBRANCH  10  11
ENDBRANCH   2   5
BRANCH   1  16
ATOM     16  C   UNL     1       3.153   3.508  19.289  0.00  0.00    +0.000 C 
ATOM     17  C   UNL     1       2.155   2.534  18.614  0.00  0.00    +0.000 C 
BRANCH  16  19
ATOM     18  C   UNL     1       2.370   2.486  21.553  0.00  0.00    +0.000 C 
ATOM     19  C   UNL     1       3.567   2.918  20.691  0.00  0.00    +0.000 C 
ATOM     20  C   UNL     1       4.552   1.740  20.595  0.00  0.00    +0.000 C 
ENDBRANCH  16  19
BRANCH  16  21
ATOM     21  C   UNL     1       2.438   4.801  19.518  0.00  0.00    +0.000 C 
ATOM     22  N   UNL     1       1.919   5.824  19.706  0.00  0.00    +0.000 NA
ENDBRANCH  16  21
ENDBRANCH   1  16
TORSDOF 6
ENDMDL
MODEL 7
REMARK VINA RESULT:      -6.4      2.723      6.129
REMARK  Name = 
REMARK  11 active torsions:
REMARK  status: ('A' for Active; 'I' for Inactive)
REMARK    1  A    between atoms: C_1  and  C_2
REMARK    2  A    between atoms: C_2  and  C_3
REMARK    3  A    between atoms: C_2  and  C_4
REMARK    4  A    between atoms: C_4  and  C_5
REMARK    5  A    between atoms: C_4  and  C_6
REMARK    6  A    between atoms: C_4  and  N_8
REMARK    7  A    between atoms: C_9  and  C_11
REMARK    8  A    between atoms: N_13  and  C_14
REMARK    9  A    between atoms: C_16  and  O_17
REMARK   10  A    between atoms: O_17  and  S_18
REMARK   11  A    between atoms: S_18  and  C_19
REMARK                            x       y       z     vdW  Elec       q    Type
REMARK                         _______ _______ _______ _____ _____    ______ ____
ROOT
ATOM      1  N   UNL     1       5.366   5.584  18.244  0.00  0.00    +0.000 N 
ATOM      2  C   UNL     1       4.253   6.381  18.076  0.00  0.00    +0.000 C 
ATOM      3  O   UNL     1       4.151   7.175  17.151  0.00  0.00    +0.000 OA
ATOM      4  H   UNL     1       5.329   4.861  18.950  0.00  0.00    +0.000 HD
ENDROOT
BRANCH   2   5
ATOM      5  C   UNL     1       3.202   6.255  19.069  0.00  0.00    +0.000 A 
ATOM      6  C   UNL     1       2.550   7.345  19.624  0.00  0.00    +0.000 A 
ATOM      7  N   UNL     1       1.627   6.856  20.492  0.00  0.00    +0.000 N 
ATOM      8  C   UNL     1       0.645   7.613  21.232  0.00  0.00    +0.000 C 
ATOM      9  N   UNL     1       1.677   5.518  20.615  0.00  0.00    +0.000 NA
ATOM     10  C   UNL     1       2.557   5.158  19.680  0.00  0.00    +0.000 A 
BRANCH  10  11
ATOM     11  O   UNL     1       2.785   3.849  19.476  0.00  0.00    +0.000 OA
BRANCH  11  12
ATOM     12  S   UNL     1       2.048   3.025  18.268  0.00  0.00    +0.000 S 
ATOM     13  C   UNL     1       0.667   2.332  19.172  0.00  0.00    +0.000 C 
ATOM     14  O   UNL     1       1.563   3.930  17.246  0.00  0.00    +0.000 OA
ATOM     15  O   UNL     1       2.927   1.925  17.909  0.00  0.00    +0.000 OA
ENDBRANCH  11  12
ENDBRANCH  10  11
ENDBRANCH   2   5
BRANCH   1  16
ATOM     16  C   UNL     1       6.477   5.561  17.264  0.00  0.00    +0.000 C 
ATOM     17  C   UNL     1       7.563   4.536  17.678  0.00  0.00    +0.000 C 
BRANCH  16  19
ATOM     18  C   UNL     1       7.050   4.969  14.793  0.00  0.00    +0.000 C 
ATOM     19  C   UNL     1       5.938   5.176  15.832  0.00  0.00    +0.000 C 
ATOM     20  C   UNL     1       5.029   3.935  15.831  0.00  0.00    +0.000 C 
ENDBRANCH  16  19
BRANCH  16  21
ATOM     21  C   UNL     1       7.132   6.901  17.172  0.00  0.00    +0.000 C 
ATOM     22  N   UNL     1       7.636   7.948  17.141  0.00  0.00    +0.000 NA
ENDBRANCH  16  21
ENDBRANCH   1  16
TORSDOF 6
ENDMDL
MODEL 8
REMARK VINA RESULT:      -6.4      0.898      1.003
REMARK  Name = 
REMARK  11 active torsions:
REMARK  status: ('A' for Active; 'I' for Inactive)
REMARK    1  A    between atoms: C_1  and  C_2
REMARK    2  A    between atoms: C_2  and  C_3
REMARK    3  A    between atoms: C_2  and  C_4
REMARK    4  A    between atoms: C_4  and  C_5
REMARK    5  A    between atoms: C_4  and  C_6
REMARK    6  A    between atoms: C_4  and  N_8
REMARK    7  A    between atoms: C_9  and  C_11
REMARK    8  A    between atoms: N_13  and  C_14
REMARK    9  A    between atoms: C_16  and  O_17
REMARK   10  A    between atoms: O_17  and  S_18
REMARK   11  A    between atoms: S_18  and  C_19
REMARK                            x       y       z     vdW  Elec       q    Type
REMARK                         _______ _______ _______ _____ _____    ______ ____
ROOT
ATOM      1  N   UNL     1       3.760   4.778  17.540  0.00  0.00    +0.000 N 
ATOM      2  C   UNL     1       4.442   3.877  16.750  0.00  0.00    +0.000 C 
ATOM      3  O   UNL     1       4.190   2.680  16.757  0.00  0.00    +0.000 OA
ATOM      4  H   UNL     1       3.930   5.764  17.389  0.00  0.00    +0.000 HD
ENDROOT
BRANCH   2   5
ATOM      5  C   UNL     1       5.502   4.410  15.914  0.00  0.00    +0.000 A 
ATOM      6  C   UNL     1       5.746   3.963  14.625  0.00  0.00    +0.000 A 
ATOM      7  N   UNL     1       6.790   4.689  14.144  0.00  0.00    +0.000 N 
ATOM      8  C   UNL     1       7.335   4.643  12.808  0.00  0.00    +0.000 C 
ATOM      9  N   UNL     1       7.311   5.528  15.055  0.00  0.00    +0.000 NA
ATOM     10  C   UNL     1       6.467   5.427  16.083  0.00  0.00    +0.000 A 
BRANCH  10  11
ATOM     11  O   UNL     1       6.655   6.215  17.155  0.00  0.00    +0.000 OA
BRANCH  11  12
ATOM     12  S   UNL     1       7.204   5.618  18.577  0.00  0.00    +0.000 S 
ATOM     13  C   UNL     1       8.324   6.933  19.045  0.00  0.00    +0.000 C 
ATOM     14  O   UNL     1       6.130   5.518  19.545  0.00  0.00    +0.000 OA
ATOM     15  O   UNL     1       8.012   4.452  18.263  0.00  0.00    +0.000 OA
ENDBRANCH  11  12
ENDBRANCH  10  11
ENDBRANCH   2   5
BRANCH   1  16
ATOM     16  C   UNL     1       2.608   4.379  18.382  0.00  0.00    +0.000 C 
ATOM     17  C   UNL     1       1.308   4.296  17.543  0.00  0.00    +0.000 C 
BRANCH  16  19
ATOM     18  C   UNL     1       3.588   3.059  20.402  0.00  0.00    +0.000 C 
ATOM     19  C   UNL     1       2.874   2.972  19.044  0.00  0.00    +0.000 C 
ATOM     20  C   UNL     1       1.604   2.121  19.211  0.00  0.00    +0.000 C 
ENDBRANCH  16  19
BRANCH  16  21
ATOM     21  C   UNL     1       2.378   5.374  19.474  0.00  0.00    +0.000 C 
ATOM     22  N   UNL     1       2.166   6.125  20.335  0.00  0.00    +0.000 NA
ENDBRANCH  16  21
ENDBRANCH   1  16
TORSDOF 6
ENDMDL
MODEL 9
REMARK VINA RESULT:      -6.3      1.785      2.351
REMARK  Name = 
REMARK  11 active torsions:
REMARK  status: ('A' for Active; 'I' for Inactive)
REMARK    1  A    between atoms: C_1  and  C_2
REMARK    2  A    between atoms: C_2  and  C_3
REMARK    3  A    between atoms: C_2  and  C_4
REMARK    4  A    between atoms: C_4  and  C_5
REMARK    5  A    between atoms: C_4  and  C_6
REMARK    6  A    between atoms: C_4  and  N_8
REMARK    7  A    between atoms: C_9  and  C_11
REMARK    8  A    between atoms: N_13  and  C_14
REMARK    9  A    between atoms: C_16  and  O_17
REMARK   10  A    between atoms: O_17  and  S_18
REMARK   11  A    between atoms: S_18  and  C_19
REMARK                            x       y       z     vdW  Elec       q    Type
REMARK                         _______ _______ _______ _____ _____    ______ ____
ROOT
ATOM      1  N   UNL     1       4.963   3.710  17.975  0.00  0.00    +0.000 N 
ATOM      2  C   UNL     1       4.563   3.985  16.684  0.00  0.00    +0.000 C 
ATOM      3  O   UNL     1       3.384   4.022  16.359  0.00  0.00    +0.000 OA
ATOM      4  H   UNL     1       5.941   3.824  18.202  0.00  0.00    +0.000 HD
ENDROOT
BRANCH   2   5
ATOM      5  C   UNL     1       5.612   4.210  15.707  0.00  0.00    +0.000 A 
ATOM      6  C   UNL     1       5.456   3.948  14.355  0.00  0.00    +0.000 A 
ATOM      7  N   UNL     1       6.622   4.289  13.747  0.00  0.00    +0.000 N 
ATOM      8  C   UNL     1       6.896   4.282  12.330  0.00  0.00    +0.000 C 
ATOM      9  N   UNL     1       7.573   4.680  14.614  0.00  0.00    +0.000 NA
ATOM     10  C   UNL     1       6.924   4.727  15.778  0.00  0.00    +0.000 A 
BRANCH  10  11
ATOM     11  O   UNL     1       7.577   5.170  16.866  0.00  0.00    +0.000 OA
BRANCH  11  12
ATOM     12  S   UNL     1       7.242   6.625  17.539  0.00  0.00    +0.000 S 
ATOM     13  C   UNL     1       8.019   6.406  19.136  0.00  0.00    +0.000 C 
ATOM     14  O   UNL     1       7.900   7.693  16.814  0.00  0.00    +0.000 OA
ATOM     15  O   UNL     1       5.806   6.670  17.757  0.00  0.00    +0.000 OA
ENDBRANCH  11  12
ENDBRANCH  10  11
ENDBRANCH   2   5
BRANCH   1  16
ATOM     16  C   UNL     1       3.994   3.535  19.083  0.00  0.00    +0.000 C 
ATOM     17  C   UNL     1       3.718   4.882  19.798  0.00  0.00    +0.000 C 
BRANCH  16  19
ATOM     18  C   UNL     1       2.571   1.429  18.516  0.00  0.00    +0.000 C 
ATOM     19  C   UNL     1       2.630   2.965  18.534  0.00  0.00    +0.000 C 
ATOM     20  C   UNL     1       1.396   3.494  19.285  0.00  0.00    +0.000 C 
ENDBRANCH  16  19
BRANCH  16  21
ATOM     21  C   UNL     1       4.524   2.581  20.105  0.00  0.00    +0.000 C 
ATOM     22  N   UNL     1       4.973   1.845  20.883  0.00  0.00    +0.000 NA
ENDBRANCH  16  21
ENDBRANCH   1  16
TORSDOF 6
ENDMDL
