MODEL 1
REMARK VINA RESULT:      -6.8      0.000      0.000
REMARK  Name = 
REMARK  10 active torsions:
REMARK  status: ('A' for Active; 'I' for Inactive)
REMARK    1  A    between atoms: C_1  and  C_2
REMARK    2  A    between atoms: C_2  and  C_3
REMARK    3  A    between atoms: C_2  and  N_4
REMARK    4  A    between atoms: N_6  and  C_7
REMARK    5  A    between atoms: N_11  and  C_12
REMARK    6  A    between atoms: C_12  and  C_13
REMARK    7  A    between atoms: C_13  and  C_14
REMARK    8  A    between atoms: C_13  and  C_15
REMARK    9  A    between atoms: C_13  and  C_16
REMARK   10  A    between atoms: N_17  and  C_18
REMARK                            x       y       z     vdW  Elec       q    Type
REMARK                         _______ _______ _______ _____ _____    ______ ____
ROOT
ATOM      1  N   UNL     1       1.608  11.844  18.311  0.00  0.00    +0.000 N 
ATOM      2  C   UNL     1       1.040  10.629  18.656  0.00  0.00    +0.000 C 
ATOM      3  N   UNL     1      -0.047  10.318  19.289  0.00  0.00    +0.000 NA
ATOM      4  N   UNL     1       1.916   9.655  18.188  0.00  0.00    +0.000 N 
ATOM      5  H   UNL     1       1.602  12.001  17.308  0.00  0.00    +0.000 HD
ATOM      6  H   UNL     1       2.732  10.033  17.729  0.00  0.00    +0.000 HD
ENDROOT
BRANCH   4   7
ATOM      7  C   UNL     1       2.082   8.325  18.637  0.00  0.00    +0.000 A 
ATOM      8  C   UNL     1       1.753   7.995  19.961  0.00  0.00    +0.000 A 
ATOM      9  C   UNL     1       1.984   6.705  20.469  0.00  0.00    +0.000 A 
ATOM     10  C   UNL     1       2.575   5.728  19.668  0.00  0.00    +0.000 A 
ATOM     11 CL   UNL     1       2.878   4.173  20.359  0.00  0.00    +0.000 Cl
ATOM     12  C   UNL     1       2.903   6.034  18.351  0.00  0.00    +0.000 A 
ATOM     13 CL   UNL     1       3.635   4.885  17.288  0.00  0.00    +0.000 Cl
ATOM     14  C   UNL     1       2.646   7.316  17.854  0.00  0.00    +0.000 A 
ENDBRANCH   4   7
BRANCH   3  15
ATOM     15  C   UNL     1      -0.986  11.196  19.706  0.00  0.00    +0.000 A 
ATOM     16  N   UNL     1      -1.229  11.719  20.897  0.00  0.00    +0.000 NA
ATOM     17  C   UNL     1      -2.354  12.486  20.781  0.00  0.00    +0.000 A 
ATOM     18  C   UNL     1      -2.771  12.529  19.479  0.00  0.00    +0.000 A 
ATOM     19  N   UNL     1      -1.864  11.763  18.794  0.00  0.00    +0.000 N 
BRANCH  19  20
ATOM     20  C   UNL     1      -1.932  11.534  17.364  0.00  0.00    +0.000 C 
BRANCH  20  21
ATOM     21  C   UNL     1      -3.116  10.666  16.858  0.00  0.00    +0.000 C 
ATOM     22  C   UNL     1      -4.399  11.502  16.729  0.00  0.00    +0.000 C 
ATOM     23  C   UNL     1      -2.721  10.097  15.479  0.00  0.00    +0.000 C 
ATOM     24  C   UNL     1      -3.421   9.476  17.786  0.00  0.00    +0.000 C 
ENDBRANCH  20  21
ENDBRANCH  19  20
ENDBRANCH   3  15
BRANCH   1  26
ATOM     25  C   UNL     1       2.172  12.887  20.440  0.00  0.00    +0.000 C 
ATOM     26  C   UNL     1       1.485  13.075  19.087  0.00  0.00    +0.000 C 
ATOM     27  C   UNL     1       2.117  14.249  18.341  0.00  0.00    +0.000 C 
ENDBRANCH   1  26
TORSDOF 5
ENDMDL
MODEL 2
REMARK VINA RESULT:      -6.5      1.738      4.037
REMARK  Name = 
REMARK  10 active torsions:
REMARK  status: ('A' for Active; 'I' for Inactive)
REMARK    1  A    between atoms: C_1  and  C_2
REMARK    2  A    between atoms: C_2  and  C_3
REMARK    3  A    between atoms: C_2  and  N_4
REMARK    4  A    between atoms: N_6  and  C_7
REMARK    5  A    between atoms: N_11  and  C_12
REMARK    6  A    between atoms: C_12  and  C_13
REMARK    7  A    between atoms: C_13  and  C_14
REMARK    8  A    between atoms: C_13  and  C_15
REMARK    9  A    between atoms: C_13  and  C_16
REMARK   10  A    between atoms: N_17  and  C_18
REMARK                            x       y       z     vdW  Elec       q    Type
REMARK                         _______ _______ _______ _____ _____    ______ ____
ROOT
ATOM      1  N   UNL     1       0.753  10.008  21.619  0.00  0.00    +0.000 N 
ATOM      2  C   UNL     1       0.971   9.340  20.427  0.00  0.00    +0.000 C 
ATOM      3  N   UNL     1       0.514   9.517  19.226  0.00  0.00    +0.000 NA
ATOM      4  N   UNL     1       1.845   8.302  20.729  0.00  0.00    +0.000 N 
ATOM      5  H   UNL     1       1.580  10.500  21.942  0.00  0.00    +0.000 HD
ATOM      6  H   UNL     1       2.110   8.267  21.702  0.00  0.00    +0.000 HD
ENDROOT
BRANCH   4   7
ATOM      7  C   UNL     1       2.040   7.081  20.044  0.00  0.00    +0.000 A 
ATOM      8  C   UNL     1       2.624   7.089  18.767  0.00  0.00    +0.000 A 
ATOM      9  C   UNL     1       2.757   5.906  18.019  0.00  0.00    +0.000 A 
ATOM     10  C   UNL     1       2.283   4.696  18.525  0.00  0.00    +0.000 A 
ATOM     11 CL   UNL     1       2.430   3.282  17.543  0.00  0.00    +0.000 Cl
ATOM     12  C   UNL     1       1.707   4.667  19.791  0.00  0.00    +0.000 A 
ATOM     13 CL   UNL     1       1.097   3.212  20.497  0.00  0.00    +0.000 Cl
ATOM     14  C   UNL     1       1.602   5.848  20.532  0.00  0.00    +0.000 A 
ENDBRANCH   4   7
BRANCH   3  15
ATOM     15  C   UNL     1      -0.274  10.542  18.834  0.00  0.00    +0.000 A 
ATOM     16  N   UNL     1      -1.587  10.635  18.699  0.00  0.00    +0.000 NA
ATOM     17  C   UNL     1      -1.855  11.874  18.187  0.00  0.00    +0.000 A 
ATOM     18  C   UNL     1      -0.707  12.609  18.090  0.00  0.00    +0.000 A 
ATOM     19  N   UNL     1       0.281  11.783  18.562  0.00  0.00    +0.000 N 
BRANCH  19  20
ATOM     20  C   UNL     1       1.677  12.169  18.635  0.00  0.00    +0.000 C 
BRANCH  20  21
ATOM     21  C   UNL     1       1.972  13.592  19.182  0.00  0.00    +0.000 C 
ATOM     22  C   UNL     1       2.727  13.525  20.518  0.00  0.00    +0.000 C 
ATOM     23  C   UNL     1       2.833  14.325  18.131  0.00  0.00    +0.000 C 
ATOM     24  C   UNL     1       0.695  14.422  19.402  0.00  0.00    +0.000 C 
ENDBRANCH  20  21
ENDBRANCH  19  20
ENDBRANCH   3  15
BRANCH   1  26
ATOM     25  C   UNL     1      -0.969  10.136  23.339  0.00  0.00    +0.000 C 
ATOM     26  C   UNL     1      -0.493  10.674  21.989  0.00  0.00    +0.000 C 
ATOM     27  C   UNL     1      -0.292  12.187  22.074  0.00  0.00    +0.000 C 
ENDBRANCH   1  26
TORSDOF 5
ENDMDL
MODEL 3
REMARK VINA RESULT:      -6.5      4.172      8.190
REMARK  Name = 
REMARK  10 active torsions:
REMARK  status: ('A' for Active; 'I' for Inactive)
REMARK    1  A    between atoms: C_1  and  C_2
REMARK    2  A    between atoms: C_2  and  C_3
REMARK    3  A    between atoms: C_2  and  N_4
REMARK    4  A    between atoms: N_6  and  C_7
REMARK    5  A    between atoms: N_11  and  C_12
REMARK    6  A    between atoms: C_12  and  C_13
REMARK    7  A    between atoms: C_13  and  C_14
REMARK    8  A    between atoms: C_13  and  C_15
REMARK    9  A    between atoms: C_13  and  C_16
REMARK   10  A    between atoms: N_17  and  C_18
REMARK                            x       y       z     vdW  Elec       q    Type
REMARK                         _______ _______ _______ _____ _____    ______ ____
ROOT
ATOM      1  N   UNL     1       5.225   6.005  17.649  0.00  0.00    +0.000 N 
ATOM      2  C   UNL     1       3.937   6.047  18.155  0.00  0.00    +0.000 C 
ATOM      3  N   UNL     1       2.998   5.157  18.237  0.00  0.00    +0.000 NA
ATOM      4  N   UNL     1       3.750   7.348  18.607  0.00  0.00    +0.000 N 
ATOM      5  H   UNL     1       5.928   6.092  18.377  0.00  0.00    +0.000 HD
ATOM      6  H   UNL     1       4.553   7.944  18.468  0.00  0.00    +0.000 HD
ENDROOT
BRANCH   4   7
ATOM      7  C   UNL     1       2.541   8.059  18.782  0.00  0.00    +0.000 A 
ATOM      8  C   UNL     1       2.022   8.816  17.719  0.00  0.00    +0.000 A 
ATOM      9  C   UNL     1       0.869   9.604  17.880  0.00  0.00    +0.000 A 
ATOM     10  C   UNL     1       0.228   9.671  19.117  0.00  0.00    +0.000 A 
ATOM     11 CL   UNL     1      -1.157  10.692  19.269  0.00  0.00    +0.000 Cl
ATOM     12  C   UNL     1       0.724   8.923  20.181  0.00  0.00    +0.000 A 
ATOM     13 CL   UNL     1      -0.009   8.943  21.746  0.00  0.00    +0.000 Cl
ATOM     14  C   UNL     1       1.859   8.126  19.998  0.00  0.00    +0.000 A 
ENDBRANCH   4   7
BRANCH   3  15
ATOM     15  C   UNL     1       3.125   3.855  17.895  0.00  0.00    +0.000 A 
ATOM     16  N   UNL     1       3.256   3.269  16.716  0.00  0.00    +0.000 NA
ATOM     17  C   UNL     1       3.256   1.920  16.933  0.00  0.00    +0.000 A 
ATOM     18  C   UNL     1       3.224   1.650  18.273  0.00  0.00    +0.000 A 
ATOM     19  N   UNL     1       3.206   2.881  18.877  0.00  0.00    +0.000 N 
BRANCH  19  20
ATOM     20  C   UNL     1       3.168   3.062  20.316  0.00  0.00    +0.000 C 
BRANCH  20  21
ATOM     21  C   UNL     1       1.783   3.396  20.934  0.00  0.00    +0.000 C 
ATOM     22  C   UNL     1       1.527   2.561  22.199  0.00  0.00    +0.000 C 
ATOM     23  C   UNL     1       1.782   4.897  21.289  0.00  0.00    +0.000 C 
ATOM     24  C   UNL     1       0.620   3.143  19.960  0.00  0.00    +0.000 C 
ENDBRANCH  20  21
ENDBRANCH  19  20
ENDBRANCH   3  15
BRANCH   1  26
ATOM     25  C   UNL     1       5.411   5.925  15.221  0.00  0.00    +0.000 C 
ATOM     26  C   UNL     1       5.658   5.173  16.530  0.00  0.00    +0.000 C 
ATOM     27  C   UNL     1       7.140   4.824  16.657  0.00  0.00    +0.000 C 
ENDBRANCH   1  26
TORSDOF 5
ENDMDL
MODEL 4
REMARK VINA RESULT:      -6.5      1.713      3.508
REMARK  Name = 
REMARK  10 active torsions:
REMARK  status: ('A' for Active; 'I' for Inactive)
REMARK    1  A    between atoms: C_1  and  C_2
REMARK    2  A    between atoms: C_2  and  C_3
REMARK    3  A    between atoms: C_2  and  N_4
REMARK    4  A    between atoms: N_6  and  C_7
REMARK    5  A    between atoms: N_11  and  C_12
REMARK    6  A    between atoms: C_12  and  C_13
REMARK    7  A    between atoms: C_13  and  C_14
REMARK    8  A    between atoms: C_13  and  C_15
REMARK    9  A    between atoms: C_13  and  C_16
REMARK   10  A    between atoms: N_17  and  C_18
REMARK                            x       y       z     vdW  Elec       q    Type
REMARK                         _______ _______ _______ _____ _____    ______ ____
ROOT
ATOM      1  N   UNL     1       2.139  11.486  17.854  0.00  0.00    +0.000 N 
ATOM      2  C   UNL     1       1.662  10.205  18.075  0.00  0.00    +0.000 C 
ATOM      3  N   UNL     1       0.553   9.756  18.573  0.00  0.00    +0.000 NA
ATOM      4  N   UNL     1       2.673   9.347  17.656  0.00  0.00    +0.000 N 
ATOM      5  H   UNL     1       2.219  11.702  16.866  0.00  0.00    +0.000 HD
ATOM      6  H   UNL     1       3.490   9.826  17.305  0.00  0.00    +0.000 HD
ENDROOT
BRANCH   4   7
ATOM      7  C   UNL     1       2.925   8.014  18.052  0.00  0.00    +0.000 A 
ATOM      8  C   UNL     1       3.793   7.217  17.290  0.00  0.00    +0.000 A 
ATOM      9  C   UNL     1       4.002   5.862  17.602  0.00  0.00    +0.000 A 
ATOM     10  C   UNL     1       3.324   5.273  18.669  0.00  0.00    +0.000 A 
ATOM     11 CL   UNL     1       3.584   3.593  18.979  0.00  0.00    +0.000 Cl
ATOM     12  C   UNL     1       2.465   6.049  19.441  0.00  0.00    +0.000 A 
ATOM     13 CL   UNL     1       1.587   5.402  20.783  0.00  0.00    +0.000 Cl
ATOM     14  C   UNL     1       2.284   7.400  19.131  0.00  0.00    +0.000 A 
ENDBRANCH   4   7
BRANCH   3  15
ATOM     15  C   UNL     1      -0.506  10.516  18.931  0.00  0.00    +0.000 A 
ATOM     16  N   UNL     1      -1.603  10.853  18.274  0.00  0.00    +0.000 NA
ATOM     17  C   UNL     1      -2.306  11.712  19.072  0.00  0.00    +0.000 A 
ATOM     18  C   UNL     1      -1.695  11.842  20.288  0.00  0.00    +0.000 A 
ATOM     19  N   UNL     1      -0.591  11.032  20.214  0.00  0.00    +0.000 N 
BRANCH  19  20
ATOM     20  C   UNL     1       0.354  10.872  21.303  0.00  0.00    +0.000 C 
BRANCH  20  21
ATOM     21  C   UNL     1       0.095   9.689  22.275  0.00  0.00    +0.000 C 
ATOM     22  C   UNL     1       1.398   9.229  22.947  0.00  0.00    +0.000 C 
ATOM     23  C   UNL     1      -0.902  10.178  23.347  0.00  0.00    +0.000 C 
ATOM     24  C   UNL     1      -0.531   8.470  21.575  0.00  0.00    +0.000 C 
ENDBRANCH  20  21
ENDBRANCH  19  20
ENDBRANCH   3  15
BRANCH   1  26
ATOM     25  C   UNL     1       3.091  13.458  18.923  0.00  0.00    +0.000 C 
ATOM     26  C   UNL     1       1.816  12.651  18.673  0.00  0.00    +0.000 C 
ATOM     27  C   UNL     1       0.774  13.527  17.979  0.00  0.00    +0.000 C 
ENDBRANCH   1  26
TORSDOF 5
ENDMDL
MODEL 5
REMARK VINA RESULT:      -6.4      0.829      1.485
REMARK  Name = 
REMARK  10 active torsions:
REMARK  status: ('A' for Active; 'I' for Inactive)
REMARK    1  A    between atoms: C_1  and  C_2
REMARK    2  A    between atoms: C_2  and  C_3
REMARK    3  A    between atoms: C_2  and  N_4
REMARK    4  A    between atoms: N_6  and  C_7
REMARK    5  A    between atoms: N_11  and  C_12
REMARK    6  A    between atoms: C_12  and  C_13
REMARK    7  A    between atoms: C_13  and  C_14
REMARK    8  A    between atoms: C_13  and  C_15
REMARK    9  A    between atoms: C_13  and  C_16
REMARK   10  A    between atoms: N_17  and  C_18
REMARK                            x       y       z     vdW  Elec       q    Type
REMARK                         _______ _______ _______ _____ _____    ______ ____
ROOT
ATOM      1  N   UNL     1       1.779  11.971  18.211  0.00  0.00    +0.000 N 
ATOM      2  C   UNL     1       1.338  10.687  18.485  0.00  0.00    +0.000 C 
ATOM      3  N   UNL     1       0.330  10.232  19.161  0.00  0.00    +0.000 NA
ATOM      4  N   UNL     1       2.252   9.835  17.875  0.00  0.00    +0.000 N 
ATOM      5  H   UNL     1       1.685  12.209  17.228  0.00  0.00    +0.000 HD
ATOM      6  H   UNL     1       2.998  10.319  17.396  0.00  0.00    +0.000 HD
ENDROOT
BRANCH   4   7
ATOM      7  C   UNL     1       2.559   8.493  18.192  0.00  0.00    +0.000 A 
ATOM      8  C   UNL     1       3.368   7.743  17.323  0.00  0.00    +0.000 A 
ATOM      9  C   UNL     1       3.625   6.381  17.560  0.00  0.00    +0.000 A 
ATOM     10  C   UNL     1       3.055   5.737  18.657  0.00  0.00    +0.000 A 
ATOM     11 CL   UNL     1       3.367   4.051  18.873  0.00  0.00    +0.000 Cl
ATOM     12  C   UNL     1       2.255   6.464  19.533  0.00  0.00    +0.000 A 
ATOM     13 CL   UNL     1       1.511   5.748  20.919  0.00  0.00    +0.000 Cl
ATOM     14  C   UNL     1       2.027   7.824  19.297  0.00  0.00    +0.000 A 
ENDBRANCH   4   7
BRANCH   3  15
ATOM     15  C   UNL     1      -0.643  10.988  19.716  0.00  0.00    +0.000 A 
ATOM     16  N   UNL     1      -0.839  11.385  20.963  0.00  0.00    +0.000 NA
ATOM     17  C   UNL     1      -2.026  12.061  20.991  0.00  0.00    +0.000 A 
ATOM     18  C   UNL     1      -2.539  12.178  19.729  0.00  0.00    +0.000 A 
ATOM     19  N   UNL     1      -1.626  11.553  18.919  0.00  0.00    +0.000 N 
BRANCH  19  20
ATOM     20  C   UNL     1      -1.780  11.441  17.482  0.00  0.00    +0.000 C 
BRANCH  20  21
ATOM     21  C   UNL     1      -3.031  10.670  16.978  0.00  0.00    +0.000 C 
ATOM     22  C   UNL     1      -4.269  11.580  16.954  0.00  0.00    +0.000 C 
ATOM     23  C   UNL     1      -2.723  10.167  15.552  0.00  0.00    +0.000 C 
ATOM     24  C   UNL     1      -3.363   9.444  17.846  0.00  0.00    +0.000 C 
ENDBRANCH  20  21
ENDBRANCH  19  20
ENDBRANCH   3  15
BRANCH   1  26
ATOM     25  C   UNL     1       2.973  13.789  19.309  0.00  0.00    +0.000 C 
ATOM     26  C   UNL     1       1.615  13.119  19.098  0.00  0.00    +0.000 C 
ATOM     27  C   UNL     1       0.626  14.123  18.507  0.00  0.00    +0.000 C 
ENDBRANCH   1  26
TORSDOF 5
ENDMDL
MODEL 6
REMARK VINA RESULT:      -6.4      1.685      2.861
REMARK  Name = 
REMARK  10 active torsions:
REMARK  status: ('A' for Active; 'I' for Inactive)
REMARK    1  A    between atoms: C_1  and  C_2
REMARK    2  A    between atoms: C_2  and  C_3
REMARK    3  A    between atoms: C_2  and  N_4
REMARK    4  A    between atoms: N_6  and  C_7
REMARK    5  A    between atoms: N_11  and  C_12
REMARK    6  A    between atoms: C_12  and  C_13
REMARK    7  A    between atoms: C_13  and  C_14
REMARK    8  A    between atoms: C_13  and  C_15
REMARK    9  A    between atoms: C_13  and  C_16
REMARK   10  A    between atoms: N_17  and  C_18
REMARK                            x       y       z     vdW  Elec       q    Type
REMARK                         _______ _______ _______ _____ _____    ______ ____
ROOT
ATOM      1  N   UNL     1       0.741  10.187  21.764  0.00  0.00    +0.000 N 
ATOM      2  C   UNL     1       1.172   9.596  20.589  0.00  0.00    +0.000 C 
ATOM      3  N   UNL     1       1.098   9.959  19.346  0.00  0.00    +0.000 NA
ATOM      4  N   UNL     1       1.754   8.390  20.962  0.00  0.00    +0.000 N 
ATOM      5  H   UNL     1       1.515  10.485  22.351  0.00  0.00    +0.000 HD
ATOM      6  H   UNL     1       1.731   8.221  21.957  0.00  0.00    +0.000 HD
ENDROOT
BRANCH   4   7
ATOM      7  C   UNL     1       1.936   7.218  20.193  0.00  0.00    +0.000 A 
ATOM      8  C   UNL     1       2.498   7.312  18.910  0.00  0.00    +0.000 A 
ATOM      9  C   UNL     1       2.616   6.183  18.081  0.00  0.00    +0.000 A 
ATOM     10  C   UNL     1       2.148   4.942  18.511  0.00  0.00    +0.000 A 
ATOM     11 CL   UNL     1       2.277   3.598  17.433  0.00  0.00    +0.000 Cl
ATOM     12  C   UNL     1       1.594   4.827  19.782  0.00  0.00    +0.000 A 
ATOM     13 CL   UNL     1       0.992   3.328  20.397  0.00  0.00    +0.000 Cl
ATOM     14  C   UNL     1       1.503   5.955  20.603  0.00  0.00    +0.000 A 
ENDBRANCH   4   7
BRANCH   3  15
ATOM     15  C   UNL     1       0.620  11.145  18.907  0.00  0.00    +0.000 A 
ATOM     16  N   UNL     1       1.222  12.299  18.673  0.00  0.00    +0.000 NA
ATOM     17  C   UNL     1       0.254  13.198  18.323  0.00  0.00    +0.000 A 
ATOM     18  C   UNL     1      -0.964  12.580  18.240  0.00  0.00    +0.000 A 
ATOM     19  N   UNL     1      -0.714  11.268  18.548  0.00  0.00    +0.000 N 
BRANCH  19  20
ATOM     20  C   UNL     1      -1.742  10.246  18.580  0.00  0.00    +0.000 C 
BRANCH  20  21
ATOM     21  C   UNL     1      -2.948  10.449  17.623  0.00  0.00    +0.000 C 
ATOM     22  C   UNL     1      -2.475  10.688  16.181  0.00  0.00    +0.000 C 
ATOM     23  C   UNL     1      -3.812   9.172  17.685  0.00  0.00    +0.000 C 
ATOM     24  C   UNL     1      -3.838  11.636  18.030  0.00  0.00    +0.000 C 
ENDBRANCH  20  21
ENDBRANCH  19  20
ENDBRANCH   3  15
BRANCH   1  26
ATOM     25  C   UNL     1      -1.218  10.639  23.141  0.00  0.00    +0.000 C 
ATOM     26  C   UNL     1      -0.437  11.040  21.889  0.00  0.00    +0.000 C 
ATOM     27  C   UNL     1      -0.031  12.512  21.979  0.00  0.00    +0.000 C 
ENDBRANCH   1  26
TORSDOF 5
ENDMDL
MODEL 7
REMARK VINA RESULT:      -6.3      4.291      8.741
REMARK  Name = 
REMARK  10 active torsions:
REMARK  status: ('A' for Active; 'I' for Inactive)
REMARK    1  A    between atoms: C_1  and  C_2
REMARK    2  A    between atoms: C_2  and  C_3
REMARK    3  A    between atoms: C_2  and  N_4
REMARK    4  A    between atoms: N_6  and  C_7
REMARK    5  A    between atoms: N_11  and  C_12
REMARK    6  A    between atoms: C_12  and  C_13
REMARK    7  A    between atoms: C_13  and  C_14
REMARK    8  A    between atoms: C_13  and  C_15
REMARK    9  A    between atoms: C_13  and  C_16
REMARK   10  A    between atoms: N_17  and  C_18
REMARK                            x       y       z     vdW  Elec       q    Type
REMARK                         _______ _______ _______ _____ _____    ______ ____
ROOT
ATOM      1  N   UNL     1       3.199   4.323  18.013  0.00  0.00    +0.000 N 
ATOM      2  C   UNL     1       3.457   5.663  18.247  0.00  0.00    +0.000 C 
ATOM      3  N   UNL     1       4.541   6.307  18.546  0.00  0.00    +0.000 NA
ATOM      4  N   UNL     1       2.234   6.312  18.122  0.00  0.00    +0.000 N 
ATOM      5  H   UNL     1       2.948   4.142  17.045  0.00  0.00    +0.000 HD
ATOM      6  H   UNL     1       1.468   5.692  17.903  0.00  0.00    +0.000 HD
ENDROOT
BRANCH   4   7
ATOM      7  C   UNL     1       1.824   7.544  18.680  0.00  0.00    +0.000 A 
ATOM      8  C   UNL     1       1.728   8.679  17.859  0.00  0.00    +0.000 A 
ATOM      9  C   UNL     1       1.407   9.939  18.393  0.00  0.00    +0.000 A 
ATOM     10  C   UNL     1       1.203  10.092  19.764  0.00  0.00    +0.000 A 
ATOM     11 CL   UNL     1       0.857  11.673  20.370  0.00  0.00    +0.000 Cl
ATOM     12  C   UNL     1       1.287   8.978  20.593  0.00  0.00    +0.000 A 
ATOM     13 CL   UNL     1       1.046   9.076  22.302  0.00  0.00    +0.000 Cl
ATOM     14  C   UNL     1       1.586   7.727  20.044  0.00  0.00    +0.000 A 
ENDBRANCH   4   7
BRANCH   3  15
ATOM     15  C   UNL     1       5.779   5.766  18.610  0.00  0.00    +0.000 A 
ATOM     16  N   UNL     1       6.473   5.287  19.629  0.00  0.00    +0.000 NA
ATOM     17  C   UNL     1       7.706   4.942  19.152  0.00  0.00    +0.000 A 
ATOM     18  C   UNL     1       7.760   5.112  17.796  0.00  0.00    +0.000 A 
ATOM     19  N   UNL     1       6.515   5.573  17.451  0.00  0.00    +0.000 N 
BRANCH  19  20
ATOM     20  C   UNL     1       6.132   5.891  16.089  0.00  0.00    +0.000 C 
BRANCH  20  21
ATOM     21  C   UNL     1       6.108   4.708  15.084  0.00  0.00    +0.000 C 
ATOM     22  C   UNL     1       4.834   4.739  14.224  0.00  0.00    +0.000 C 
ATOM     23  C   UNL     1       7.352   4.839  14.181  0.00  0.00    +0.000 C 
ATOM     24  C   UNL     1       6.175   3.336  15.778  0.00  0.00    +0.000 C 
ENDBRANCH  20  21
ENDBRANCH  19  20
ENDBRANCH   3  15
BRANCH   1  26
ATOM     25  C   UNL     1       3.555   3.163  20.126  0.00  0.00    +0.000 C 
ATOM     26  C   UNL     1       3.910   3.212  18.639  0.00  0.00    +0.000 C 
ATOM     27  C   UNL     1       3.539   1.888  17.972  0.00  0.00    +0.000 C 
ENDBRANCH   1  26
TORSDOF 5
ENDMDL
MODEL 8
REMARK VINA RESULT:      -6.3      4.666      7.940
REMARK  Name = 
REMARK  10 active torsions:
REMARK  status: ('A' for Active; 'I' for Inactive)
REMARK    1  A    between atoms: C_1  and  C_2
REMARK    2  A    between atoms: C_2  and  C_3
REMARK    3  A    between atoms: C_2  and  N_4
REMARK    4  A    between atoms: N_6  and  C_7
REMARK    5  A    between atoms: N_11  and  C_12
REMARK    6  A    between atoms: C_12  and  C_13
REMARK    7  A    between atoms: C_13  and  C_14
REMARK    8  A    between atoms: C_13  and  C_15
REMARK    9  A    between atoms: C_13  and  C_16
REMARK   10  A    between atoms: N_17  and  C_18
REMARK                            x       y       z     vdW  Elec       q    Type
REMARK                         _______ _______ _______ _____ _____    ______ ____
ROOT
ATOM      1  N   UNL     1      -3.301  11.903  17.544  0.00  0.00    +0.000 N 
ATOM      2  C   UNL     1      -3.235  12.201  18.894  0.00  0.00    +0.000 C 
ATOM      3  N   UNL     1      -2.329  11.985  19.796  0.00  0.00    +0.000 NA
ATOM      4  N   UNL     1      -4.436  12.829  19.204  0.00  0.00    +0.000 N 
ATOM      5  H   UNL     1      -3.274  12.736  16.964  0.00  0.00    +0.000 HD
ATOM      6  H   UNL     1      -5.060  12.919  18.415  0.00  0.00    +0.000 HD
ENDROOT
BRANCH   4   7
ATOM      7  C   UNL     1      -5.087  12.929  20.454  0.00  0.00    +0.000 A 
ATOM      8  C   UNL     1      -6.221  12.142  20.710  0.00  0.00    +0.000 A 
ATOM      9  C   UNL     1      -6.945  12.274  21.907  0.00  0.00    +0.000 A 
ATOM     10  C   UNL     1      -6.563  13.217  22.861  0.00  0.00    +0.000 A 
ATOM     11 CL   UNL     1      -7.517  13.368  24.294  0.00  0.00    +0.000 Cl
ATOM     12  C   UNL     1      -5.437  14.001  22.629  0.00  0.00    +0.000 A 
ATOM     13 CL   UNL     1      -4.890  15.191  23.758  0.00  0.00    +0.000 Cl
ATOM     14  C   UNL     1      -4.714  13.842  21.443  0.00  0.00    +0.000 A 
ENDBRANCH   4   7
BRANCH   3  15
ATOM     15  C   UNL     1      -1.108  11.454  19.564  0.00  0.00    +0.000 A 
ATOM     16  N   UNL     1      -0.643  10.226  19.725  0.00  0.00    +0.000 NA
ATOM     17  C   UNL     1       0.689  10.254  19.419  0.00  0.00    +0.000 A 
ATOM     18  C   UNL     1       1.049  11.492  18.965  0.00  0.00    +0.000 A 
ATOM     19  N   UNL     1      -0.107  12.228  18.999  0.00  0.00    +0.000 N 
BRANCH  19  20
ATOM     20  C   UNL     1      -0.178  13.620  18.597  0.00  0.00    +0.000 C 
BRANCH  20  21
ATOM     21  C   UNL     1       0.069  14.675  19.709  0.00  0.00    +0.000 C 
ATOM     22  C   UNL     1       0.775  14.046  20.920  0.00  0.00    +0.000 C 
ATOM     23  C   UNL     1       0.954  15.787  19.107  0.00  0.00    +0.000 C 
ATOM     24  C   UNL     1      -1.231  15.329  20.209  0.00  0.00    +0.000 C 
ENDBRANCH  20  21
ENDBRANCH  19  20
ENDBRANCH   3  15
BRANCH   1  26
ATOM     25  C   UNL     1      -3.318   9.468  17.468  0.00  0.00    +0.000 C 
ATOM     26  C   UNL     1      -2.682  10.742  16.912  0.00  0.00    +0.000 C 
ATOM     27  C   UNL     1      -2.860  10.793  15.395  0.00  0.00    +0.000 C 
ENDBRANCH   1  26
TORSDOF 5
ENDMDL
MODEL 9
REMARK VINA RESULT:      -6.3      4.454      8.793
REMARK  Name = 
REMARK  10 active torsions:
REMARK  status: ('A' for Active; 'I' for Inactive)
REMARK    1  A    between atoms: C_1  and  C_2
REMARK    2  A    between atoms: C_2  and  C_3
REMARK    3  A    between atoms: C_2  and  N_4
REMARK    4  A    between atoms: N_6  and  C_7
REMARK    5  A    between atoms: N_11  and  C_12
REMARK    6  A    between atoms: C_12  and  C_13
REMARK    7  A    between atoms: C_13  and  C_14
REMARK    8  A    between atoms: C_13  and  C_15
REMARK    9  A    between atoms: C_13  and  C_16
REMARK   10  A    between atoms: N_17  and  C_18
REMARK                            x       y       z     vdW  Elec       q    Type
REMARK                         _______ _______ _______ _____ _____    ______ ____
ROOT
ATOM      1  N   UNL     1       3.146   4.043  19.106  0.00  0.00    +0.000 N 
ATOM      2  C   UNL     1       3.421   5.367  18.808  0.00  0.00    +0.000 C 
ATOM      3  N   UNL     1       4.530   6.022  18.667  0.00  0.00    +0.000 NA
ATOM      4  N   UNL     1       2.184   5.991  18.682  0.00  0.00    +0.000 N 
ATOM      5  H   UNL     1       2.726   3.551  18.324  0.00  0.00    +0.000 HD
ATOM      6  H   UNL     1       1.402   5.371  18.833  0.00  0.00    +0.000 HD
ENDROOT
BRANCH   4   7
ATOM      7  C   UNL     1       1.863   7.358  18.838  0.00  0.00    +0.000 A 
ATOM      8  C   UNL     1       2.007   8.232  17.748  0.00  0.00    +0.000 A 
ATOM      9  C   UNL     1       1.779   9.612  17.886  0.00  0.00    +0.000 A 
ATOM     10  C   UNL     1       1.429  10.148  19.125  0.00  0.00    +0.000 A 
ATOM     11 CL   UNL     1       1.207  11.857  19.247  0.00  0.00    +0.000 Cl
ATOM     12  C   UNL     1       1.275   9.297  20.216  0.00  0.00    +0.000 A 
ATOM     13 CL   UNL     1       0.841   9.875  21.786  0.00  0.00    +0.000 Cl
ATOM     14  C   UNL     1       1.484   7.923  20.057  0.00  0.00    +0.000 A 
ENDBRANCH   4   7
BRANCH   3  15
ATOM     15  C   UNL     1       5.767   5.477  18.696  0.00  0.00    +0.000 A 
ATOM     16  N   UNL     1       6.722   5.522  19.611  0.00  0.00    +0.000 NA
ATOM     17  C   UNL     1       7.807   4.870  19.096  0.00  0.00    +0.000 A 
ATOM     18  C   UNL     1       7.503   4.321  17.881  0.00  0.00    +0.000 A 
ATOM     19  N   UNL     1       6.191   4.655  17.664  0.00  0.00    +0.000 N 
BRANCH  19  20
ATOM     20  C   UNL     1       5.456   4.269  16.475  0.00  0.00    +0.000 C 
BRANCH  20  21
ATOM     21  C   UNL     1       5.827   5.012  15.162  0.00  0.00    +0.000 C 
ATOM     22  C   UNL     1       5.236   4.297  13.937  0.00  0.00    +0.000 C 
ATOM     23  C   UNL     1       5.256   6.442  15.260  0.00  0.00    +0.000 C 
ATOM     24  C   UNL     1       7.347   5.128  14.953  0.00  0.00    +0.000 C 
ENDBRANCH  20  21
ENDBRANCH  19  20
ENDBRANCH   3  15
BRANCH   1  26
ATOM     25  C   UNL     1       3.189   2.785  21.193  0.00  0.00    +0.000 C 
ATOM     26  C   UNL     1       3.978   3.185  19.946  0.00  0.00    +0.000 C 
ATOM     27  C   UNL     1       4.409   1.934  19.180  0.00  0.00    +0.000 C 
ENDBRANCH   1  26
TORSDOF 5
ENDMDL
