MODEL 1
REMARK VINA RESULT:      -7.3      0.000      0.000
REMARK  Name = 
REMARK  6 active torsions:
REMARK  status: ('A' for Active; 'I' for Inactive)
REMARK    1  A    between atoms: C_1  and  C_2
REMARK    2  A    between atoms: C_2  and  C_3
REMARK    3  A    between atoms: N_5  and  C_6
REMARK    4  A    between atoms: C_8  and  C_9
REMARK    5  A    between atoms: C_9  and  O_10
REMARK    6  A    between atoms: C_11  and  O_12
REMARK                            x       y       z     vdW  Elec       q    Type
REMARK                         _______ _______ _______ _____ _____    ______ ____
ROOT
ATOM      1  C   UNL     1       5.610   4.843  16.153  0.00  0.00    +0.000 A 
ATOM      2  C   UNL     1       4.838   4.454  17.169  0.00  0.00    +0.000 A 
ATOM      3  N   UNL     1       5.214   4.570  18.494  0.00  0.00    +0.000 N 
ATOM      4  C   UNL     1       6.450   5.087  18.847  0.00  0.00    +0.000 A 
ATOM      5  O   UNL     1       6.820   5.247  20.012  0.00  0.00    +0.000 OA
ATOM      6  N   UNL     1       7.262   5.451  17.803  0.00  0.00    +0.000 N 
ATOM      7  C   UNL     1       6.914   5.466  16.482  0.00  0.00    +0.000 A 
ATOM      8  O   UNL     1       7.617   5.991  15.634  0.00  0.00    +0.000 OA
ATOM      9  H   UNL     1       8.144   5.879  18.040  0.00  0.00    +0.000 HD
ENDROOT
BRANCH   3  10
ATOM     10  C   UNL     1       4.279   4.240  19.562  0.00  0.00    +0.000 C 
ATOM     11  O   UNL     1       2.974   4.807  19.293  0.00  0.00    +0.000 OA
ATOM     12  C   UNL     1       1.970   3.805  19.530  0.00  0.00    +0.000 C 
ATOM     13  C   UNL     1       2.653   2.731  20.372  0.00  0.00    +0.000 C 
ATOM     14  C   UNL     1       4.076   2.750  19.852  0.00  0.00    +0.000 C 
ATOM     15  F   UNL     1       4.130   2.015  18.709  0.00  0.00    +0.000 F 
BRANCH  13  16
ATOM     16  O   UNL     1       2.616   3.072  21.764  0.00  0.00    +0.000 OA
ATOM     17  H   UNL     1       2.455   2.270  22.294  0.00  0.00    +0.000 HD
ENDBRANCH  13  16
BRANCH  12  18
ATOM     18  C   UNL     1       1.420   3.265  18.198  0.00  0.00    +0.000 C 
BRANCH  18  19
ATOM     19  O   UNL     1       0.921   1.933  18.330  0.00  0.00    +0.000 OA
ATOM     20  H   UNL     1       0.124   1.848  17.781  0.00  0.00    +0.000 HD
ENDBRANCH  18  19
ENDBRANCH  12  18
ENDBRANCH   3  10
BRANCH   1  22
ATOM     21  C   UNL     1       6.083   3.782  13.932  0.00  0.00    +0.000 C 
ATOM     22  C   UNL     1       5.192   4.736  14.717  0.00  0.00    +0.000 C 
ENDBRANCH   1  22
TORSDOF 5
ENDMDL
MODEL 2
REMARK VINA RESULT:      -7.2      1.058      1.063
REMARK  Name = 
REMARK  6 active torsions:
REMARK  status: ('A' for Active; 'I' for Inactive)
REMARK    1  A    between atoms: C_1  and  C_2
REMARK    2  A    between atoms: C_2  and  C_3
REMARK    3  A    between atoms: N_5  and  C_6
REMARK    4  A    between atoms: C_8  and  C_9
REMARK    5  A    between atoms: C_9  and  O_10
REMARK    6  A    between atoms: C_11  and  O_12
REMARK                            x       y       z     vdW  Elec       q    Type
REMARK                         _______ _______ _______ _____ _____    ______ ____
ROOT
ATOM      1  C   UNL     1       5.821   4.449  15.268  0.00  0.00    +0.000 A 
ATOM      2  C   UNL     1       5.137   4.116  16.364  0.00  0.00    +0.000 A 
ATOM      3  N   UNL     1       5.663   4.197  17.639  0.00  0.00    +0.000 N 
ATOM      4  C   UNL     1       6.966   4.616  17.854  0.00  0.00    +0.000 A 
ATOM      5  O   UNL     1       7.472   4.741  18.970  0.00  0.00    +0.000 OA
ATOM      6  N   UNL     1       7.685   4.921  16.726  0.00  0.00    +0.000 N 
ATOM      7  C   UNL     1       7.197   4.969  15.450  0.00  0.00    +0.000 A 
ATOM      8  O   UNL     1       7.842   5.442  14.529  0.00  0.00    +0.000 OA
ATOM      9  H   UNL     1       8.618   5.279  16.864  0.00  0.00    +0.000 HD
ENDROOT
BRANCH   3  10
ATOM     10  C   UNL     1       4.827   3.935  18.804  0.00  0.00    +0.000 C 
ATOM     11  O   UNL     1       3.781   4.929  18.918  0.00  0.00    +0.000 OA
ATOM     12  C   UNL     1       2.531   4.266  19.180  0.00  0.00    +0.000 C 
ATOM     13  C   UNL     1       2.903   2.865  19.658  0.00  0.00    +0.000 C 
ATOM     14  C   UNL     1       4.156   2.559  18.865  0.00  0.00    +0.000 C 
ATOM     15  F   UNL     1       3.791   2.136  17.624  0.00  0.00    +0.000 F 
BRANCH  13  16
ATOM     16  O   UNL     1       3.179   2.862  21.065  0.00  0.00    +0.000 OA
ATOM     17  H   UNL     1       2.898   2.013  21.452  0.00  0.00    +0.000 HD
ENDBRANCH  13  16
BRANCH  12  18
ATOM     18  C   UNL     1       1.650   4.256  17.918  0.00  0.00    +0.000 C 
BRANCH  18  19
ATOM     19  O   UNL     1       0.802   3.108  17.872  0.00  0.00    +0.000 OA
ATOM     20  H   UNL     1       0.123   3.199  18.563  0.00  0.00    +0.000 HD
ENDBRANCH  18  19
ENDBRANCH  12  18
ENDBRANCH   3  10
BRANCH   1  22
ATOM     21  C   UNL     1       6.024   3.436  12.986  0.00  0.00    +0.000 C 
ATOM     22  C   UNL     1       5.241   4.381  13.887  0.00  0.00    +0.000 C 
ENDBRANCH   1  22
TORSDOF 5
ENDMDL
MODEL 3
REMARK VINA RESULT:      -7.1      2.120      3.313
REMARK  Name = 
REMARK  6 active torsions:
REMARK  status: ('A' for Active; 'I' for Inactive)
REMARK    1  A    between atoms: C_1  and  C_2
REMARK    2  A    between atoms: C_2  and  C_3
REMARK    3  A    between atoms: N_5  and  C_6
REMARK    4  A    between atoms: C_8  and  C_9
REMARK    5  A    between atoms: C_9  and  O_10
REMARK    6  A    between atoms: C_11  and  O_12
REMARK                            x       y       z     vdW  Elec       q    Type
REMARK                         _______ _______ _______ _____ _____    ______ ____
ROOT
ATOM      1  C   UNL     1       6.569   5.368  18.142  0.00  0.00    +0.000 A 
ATOM      2  C   UNL     1       5.442   5.174  18.827  0.00  0.00    +0.000 A 
ATOM      3  N   UNL     1       4.498   4.226  18.480  0.00  0.00    +0.000 N 
ATOM      4  C   UNL     1       4.663   3.422  17.364  0.00  0.00    +0.000 A 
ATOM      5  O   UNL     1       3.872   2.538  17.031  0.00  0.00    +0.000 OA
ATOM      6  N   UNL     1       5.804   3.646  16.635  0.00  0.00    +0.000 N 
ATOM      7  C   UNL     1       6.826   4.485  16.979  0.00  0.00    +0.000 A 
ATOM      8  O   UNL     1       7.893   4.481  16.387  0.00  0.00    +0.000 OA
ATOM      9  H   UNL     1       5.969   3.035  15.849  0.00  0.00    +0.000 HD
ENDROOT
BRANCH   3  10
ATOM     10  C   UNL     1       3.345   3.980  19.337  0.00  0.00    +0.000 C 
ATOM     11  O   UNL     1       3.359   4.866  20.482  0.00  0.00    +0.000 OA
ATOM     12  C   UNL     1       2.046   5.428  20.655  0.00  0.00    +0.000 C 
ATOM     13  C   UNL     1       1.107   4.533  19.851  0.00  0.00    +0.000 C 
ATOM     14  C   UNL     1       1.968   4.109  18.679  0.00  0.00    +0.000 C 
ATOM     15  F   UNL     1       1.958   5.104  17.751  0.00  0.00    +0.000 F 
BRANCH  13  16
ATOM     16  O   UNL     1       0.702   3.394  20.622  0.00  0.00    +0.000 OA
ATOM     17  H   UNL     1       1.230   3.347  21.439  0.00  0.00    +0.000 HD
ENDBRANCH  13  16
BRANCH  12  18
ATOM     18  C   UNL     1       2.021   6.896  20.191  0.00  0.00    +0.000 C 
BRANCH  18  19
ATOM     19  O   UNL     1       1.827   7.795  21.283  0.00  0.00    +0.000 OA
ATOM     20  H   UNL     1       1.800   8.702  20.934  0.00  0.00    +0.000 HD
ENDBRANCH  18  19
ENDBRANCH  12  18
ENDBRANCH   3  10
BRANCH   1  22
ATOM     21  C   UNL     1       7.581   7.599  17.617  0.00  0.00    +0.000 C 
ATOM     22  C   UNL     1       7.603   6.382  18.532  0.00  0.00    +0.000 C 
ENDBRANCH   1  22
TORSDOF 5
ENDMDL
MODEL 4
REMARK VINA RESULT:      -7.0      1.624      2.485
REMARK  Name = 
REMARK  6 active torsions:
REMARK  status: ('A' for Active; 'I' for Inactive)
REMARK    1  A    between atoms: C_1  and  C_2
REMARK    2  A    between atoms: C_2  and  C_3
REMARK    3  A    between atoms: N_5  and  C_6
REMARK    4  A    between atoms: C_8  and  C_9
REMARK    5  A    between atoms: C_9  and  O_10
REMARK    6  A    between atoms: C_11  and  O_12
REMARK                            x       y       z     vdW  Elec       q    Type
REMARK                         _______ _______ _______ _____ _____    ______ ____
ROOT
ATOM      1  C   UNL     1       5.663   4.527  16.273  0.00  0.00    +0.000 A 
ATOM      2  C   UNL     1       4.551   3.838  16.538  0.00  0.00    +0.000 A 
ATOM      3  N   UNL     1       4.267   3.307  17.782  0.00  0.00    +0.000 N 
ATOM      4  C   UNL     1       5.150   3.444  18.840  0.00  0.00    +0.000 A 
ATOM      5  O   UNL     1       4.930   3.023  19.977  0.00  0.00    +0.000 OA
ATOM      6  N   UNL     1       6.313   4.118  18.561  0.00  0.00    +0.000 N 
ATOM      7  C   UNL     1       6.608   4.760  17.391  0.00  0.00    +0.000 A 
ATOM      8  O   UNL     1       7.569   5.504  17.287  0.00  0.00    +0.000 OA
ATOM      9  H   UNL     1       6.945   4.274  19.331  0.00  0.00    +0.000 HD
ENDROOT
BRANCH   3  10
ATOM     10  C   UNL     1       2.982   2.670  18.040  0.00  0.00    +0.000 C 
ATOM     11  O   UNL     1       2.951   2.099  19.370  0.00  0.00    +0.000 OA
ATOM     12  C   UNL     1       1.714   2.462  20.007  0.00  0.00    +0.000 C 
ATOM     13  C   UNL     1       0.788   2.910  18.880  0.00  0.00    +0.000 C 
ATOM     14  C   UNL     1       1.742   3.557  17.897  0.00  0.00    +0.000 C 
ATOM     15  F   UNL     1       1.997   4.828  18.312  0.00  0.00    +0.000 F 
BRANCH  13  16
ATOM     16  O   UNL     1       0.129   1.785  18.283  0.00  0.00    +0.000 OA
ATOM     17  H   UNL     1       0.783   1.090  18.084  0.00  0.00    +0.000 HD
ENDBRANCH  13  16
BRANCH  12  18
ATOM     18  C   UNL     1       1.951   3.559  21.061  0.00  0.00    +0.000 C 
BRANCH  18  19
ATOM     19  O   UNL     1       2.585   3.042  22.232  0.00  0.00    +0.000 OA
ATOM     20  H   UNL     1       3.425   3.514  22.360  0.00  0.00    +0.000 HD
ENDBRANCH  18  19
ENDBRANCH  12  18
ENDBRANCH   3  10
BRANCH   1  22
ATOM     21  C   UNL     1       6.290   4.054  13.894  0.00  0.00    +0.000 C 
ATOM     22  C   UNL     1       5.959   5.121  14.929  0.00  0.00    +0.000 C 
ENDBRANCH   1  22
TORSDOF 5
ENDMDL
MODEL 5
REMARK VINA RESULT:      -7.0      1.593      1.842
REMARK  Name = 
REMARK  6 active torsions:
REMARK  status: ('A' for Active; 'I' for Inactive)
REMARK    1  A    between atoms: C_1  and  C_2
REMARK    2  A    between atoms: C_2  and  C_3
REMARK    3  A    between atoms: N_5  and  C_6
REMARK    4  A    between atoms: C_8  and  C_9
REMARK    5  A    between atoms: C_9  and  O_10
REMARK    6  A    between atoms: C_11  and  O_12
REMARK                            x       y       z     vdW  Elec       q    Type
REMARK                         _______ _______ _______ _____ _____    ______ ____
ROOT
ATOM      1  C   UNL     1       6.129   4.267  14.845  0.00  0.00    +0.000 A 
ATOM      2  C   UNL     1       5.295   4.316  15.885  0.00  0.00    +0.000 A 
ATOM      3  N   UNL     1       5.440   5.205  16.932  0.00  0.00    +0.000 N 
ATOM      4  C   UNL     1       6.496   6.102  16.972  0.00  0.00    +0.000 A 
ATOM      5  O   UNL     1       6.652   6.940  17.862  0.00  0.00    +0.000 OA
ATOM      6  N   UNL     1       7.378   6.027  15.924  0.00  0.00    +0.000 N 
ATOM      7  C   UNL     1       7.236   5.252  14.807  0.00  0.00    +0.000 A 
ATOM      8  O   UNL     1       7.954   5.388  13.830  0.00  0.00    +0.000 OA
ATOM      9  H   UNL     1       8.124   6.706  15.907  0.00  0.00    +0.000 HD
ENDROOT
BRANCH   3  10
ATOM     10  C   UNL     1       4.429   5.291  17.978  0.00  0.00    +0.000 C 
ATOM     11  O   UNL     1       3.126   4.928  17.462  0.00  0.00    +0.000 OA
ATOM     12  C   UNL     1       2.494   4.020  18.381  0.00  0.00    +0.000 C 
ATOM     13  C   UNL     1       3.257   4.169  19.694  0.00  0.00    +0.000 C 
ATOM     14  C   UNL     1       4.673   4.446  19.232  0.00  0.00    +0.000 C 
ATOM     15  F   UNL     1       5.266   3.262  18.918  0.00  0.00    +0.000 F 
BRANCH  13  16
ATOM     16  O   UNL     1       2.749   5.271  20.459  0.00  0.00    +0.000 OA
ATOM     17  H   UNL     1       2.878   6.100  19.965  0.00  0.00    +0.000 HD
ENDBRANCH  13  16
BRANCH  12  18
ATOM     18  C   UNL     1       2.523   2.584  17.829  0.00  0.00    +0.000 C 
BRANCH  18  19
ATOM     19  O   UNL     1       2.167   1.625  18.825  0.00  0.00    +0.000 OA
ATOM     20  H   UNL     1       2.367   2.001  19.699  0.00  0.00    +0.000 HD
ENDBRANCH  18  19
ENDBRANCH  12  18
ENDBRANCH   3  10
BRANCH   1  22
ATOM     21  C   UNL     1       5.083   3.900  12.598  0.00  0.00    +0.000 C 
ATOM     22  C   UNL     1       5.958   3.315  13.699  0.00  0.00    +0.000 C 
ENDBRANCH   1  22
TORSDOF 5
ENDMDL
MODEL 6
REMARK VINA RESULT:      -6.8      1.450      2.125
REMARK  Name = 
REMARK  6 active torsions:
REMARK  status: ('A' for Active; 'I' for Inactive)
REMARK    1  A    between atoms: C_1  and  C_2
REMARK    2  A    between atoms: C_2  and  C_3
REMARK    3  A    between atoms: N_5  and  C_6
REMARK    4  A    between atoms: C_8  and  C_9
REMARK    5  A    between atoms: C_9  and  O_10
REMARK    6  A    between atoms: C_11  and  O_12
REMARK                            x       y       z     vdW  Elec       q    Type
REMARK                         _______ _______ _______ _____ _____    ______ ____
ROOT
ATOM      1  C   UNL     1       6.420   4.827  16.026  0.00  0.00    +0.000 A 
ATOM      2  C   UNL     1       5.516   3.979  16.520  0.00  0.00    +0.000 A 
ATOM      3  N   UNL     1       5.043   4.045  17.816  0.00  0.00    +0.000 N 
ATOM      4  C   UNL     1       5.507   5.004  18.702  0.00  0.00    +0.000 A 
ATOM      5  O   UNL     1       5.093   5.131  19.855  0.00  0.00    +0.000 OA
ATOM      6  N   UNL     1       6.466   5.853  18.209  0.00  0.00    +0.000 N 
ATOM      7  C   UNL     1       6.897   5.914  16.914  0.00  0.00    +0.000 A 
ATOM      8  O   UNL     1       7.601   6.824  16.509  0.00  0.00    +0.000 OA
ATOM      9  H   UNL     1       6.778   6.591  18.822  0.00  0.00    +0.000 HD
ENDROOT
BRANCH   3  10
ATOM     10  C   UNL     1       3.967   3.166  18.259  0.00  0.00    +0.000 C 
ATOM     11  O   UNL     1       3.679   3.377  19.662  0.00  0.00    +0.000 OA
ATOM     12  C   UNL     1       2.255   3.475  19.838  0.00  0.00    +0.000 C 
ATOM     13  C   UNL     1       1.644   2.885  18.570  0.00  0.00    +0.000 C 
ATOM     14  C   UNL     1       2.641   3.278  17.500  0.00  0.00    +0.000 C 
ATOM     15  F   UNL     1       2.395   4.563  17.127  0.00  0.00    +0.000 F 
BRANCH  13  16
ATOM     16  O   UNL     1       1.540   1.458  18.669  0.00  0.00    +0.000 OA
ATOM     17  H   UNL     1       2.423   1.075  18.817  0.00  0.00    +0.000 HD
ENDBRANCH  13  16
BRANCH  12  18
ATOM     18  C   UNL     1       1.839   4.938  20.080  0.00  0.00    +0.000 C 
BRANCH  18  19
ATOM     19  O   UNL     1       2.504   5.496  21.214  0.00  0.00    +0.000 OA
ATOM     20  H   UNL     1       3.463   5.418  21.078  0.00  0.00    +0.000 HD
ENDBRANCH  18  19
ENDBRANCH  12  18
ENDBRANCH   3  10
BRANCH   1  22
ATOM     21  C   UNL     1       6.027   3.897  13.733  0.00  0.00    +0.000 C 
ATOM     22  C   UNL     1       6.916   4.766  14.613  0.00  0.00    +0.000 C 
ENDBRANCH   1  22
TORSDOF 5
ENDMDL
MODEL 7
REMARK VINA RESULT:      -6.8      1.939      2.813
REMARK  Name = 
REMARK  6 active torsions:
REMARK  status: ('A' for Active; 'I' for Inactive)
REMARK    1  A    between atoms: C_1  and  C_2
REMARK    2  A    between atoms: C_2  and  C_3
REMARK    3  A    between atoms: N_5  and  C_6
REMARK    4  A    between atoms: C_8  and  C_9
REMARK    5  A    between atoms: C_9  and  O_10
REMARK    6  A    between atoms: C_11  and  O_12
REMARK                            x       y       z     vdW  Elec       q    Type
REMARK                         _______ _______ _______ _____ _____    ______ ____
ROOT
ATOM      1  C   UNL     1       6.044   3.986  13.769  0.00  0.00    +0.000 A 
ATOM      2  C   UNL     1       5.383   4.164  14.914  0.00  0.00    +0.000 A 
ATOM      3  N   UNL     1       5.807   5.023  15.909  0.00  0.00    +0.000 N 
ATOM      4  C   UNL     1       6.980   5.749  15.779  0.00  0.00    +0.000 A 
ATOM      5  O   UNL     1       7.384   6.556  16.618  0.00  0.00    +0.000 OA
ATOM      6  N   UNL     1       7.683   5.539  14.620  0.00  0.00    +0.000 N 
ATOM      7  C   UNL     1       7.269   4.792  13.553  0.00  0.00    +0.000 A 
ATOM      8  O   UNL     1       7.853   4.815  12.482  0.00  0.00    +0.000 OA
ATOM      9  H   UNL     1       8.512   6.097  14.483  0.00  0.00    +0.000 HD
ENDROOT
BRANCH   3  10
ATOM     10  C   UNL     1       4.978   5.265  17.084  0.00  0.00    +0.000 C 
ATOM     11  O   UNL     1       3.710   4.576  16.966  0.00  0.00    +0.000 OA
ATOM     12  C   UNL     1       3.429   3.899  18.203  0.00  0.00    +0.000 C 
ATOM     13  C   UNL     1       4.345   4.541  19.240  0.00  0.00    +0.000 C 
ATOM     14  C   UNL     1       5.584   4.874  18.435  0.00  0.00    +0.000 C 
ATOM     15  F   UNL     1       6.346   3.752  18.326  0.00  0.00    +0.000 F 
BRANCH  13  16
ATOM     16  O   UNL     1       3.754   5.731  19.779  0.00  0.00    +0.000 OA
ATOM     17  H   UNL     1       3.590   6.369  19.061  0.00  0.00    +0.000 HD
ENDBRANCH  13  16
BRANCH  12  18
ATOM     18  C   UNL     1       3.658   2.384  18.054  0.00  0.00    +0.000 C 
BRANCH  18  19
ATOM     19  O   UNL     1       2.427   1.670  17.934  0.00  0.00    +0.000 OA
ATOM     20  H   UNL     1       1.750   2.134  18.455  0.00  0.00    +0.000 HD
ENDBRANCH  18  19
ENDBRANCH  12  18
ENDBRANCH   3  10
BRANCH   1  22
ATOM     21  C   UNL     1       4.504   3.719  11.811  0.00  0.00    +0.000 C 
ATOM     22  C   UNL     1       5.570   3.069  12.682  0.00  0.00    +0.000 C 
ENDBRANCH   1  22
TORSDOF 5
ENDMDL
MODEL 8
REMARK VINA RESULT:      -6.7      1.643      2.129
REMARK  Name = 
REMARK  6 active torsions:
REMARK  status: ('A' for Active; 'I' for Inactive)
REMARK    1  A    between atoms: C_1  and  C_2
REMARK    2  A    between atoms: C_2  and  C_3
REMARK    3  A    between atoms: N_5  and  C_6
REMARK    4  A    between atoms: C_8  and  C_9
REMARK    5  A    between atoms: C_9  and  O_10
REMARK    6  A    between atoms: C_11  and  O_12
REMARK                            x       y       z     vdW  Elec       q    Type
REMARK                         _______ _______ _______ _____ _____    ______ ____
ROOT
ATOM      1  C   UNL     1       5.825   4.435  14.948  0.00  0.00    +0.000 A 
ATOM      2  C   UNL     1       5.153   4.108  16.053  0.00  0.00    +0.000 A 
ATOM      3  N   UNL     1       5.699   4.178  17.320  0.00  0.00    +0.000 N 
ATOM      4  C   UNL     1       7.011   4.578  17.517  0.00  0.00    +0.000 A 
ATOM      5  O   UNL     1       7.536   4.693  18.626  0.00  0.00    +0.000 OA
ATOM      6  N   UNL     1       7.718   4.876  16.379  0.00  0.00    +0.000 N 
ATOM      7  C   UNL     1       7.211   4.935  15.111  0.00  0.00    +0.000 A 
ATOM      8  O   UNL     1       7.848   5.401  14.181  0.00  0.00    +0.000 OA
ATOM      9  H   UNL     1       8.657   5.220  16.503  0.00  0.00    +0.000 HD
ENDROOT
BRANCH   3  10
ATOM     10  C   UNL     1       4.877   3.924  18.497  0.00  0.00    +0.000 C 
ATOM     11  O   UNL     1       4.668   5.144  19.248  0.00  0.00    +0.000 OA
ATOM     12  C   UNL     1       3.275   5.248  19.592  0.00  0.00    +0.000 C 
ATOM     13  C   UNL     1       2.702   3.846  19.411  0.00  0.00    +0.000 C 
ATOM     14  C   UNL     1       3.500   3.303  18.244  0.00  0.00    +0.000 C 
ATOM     15  F   UNL     1       2.955   3.772  17.089  0.00  0.00    +0.000 F 
BRANCH  13  16
ATOM     16  O   UNL     1       2.914   3.051  20.586  0.00  0.00    +0.000 OA
ATOM     17  H   UNL     1       2.068   2.666  20.878  0.00  0.00    +0.000 HD
ENDBRANCH  13  16
BRANCH  12  18
ATOM     18  C   UNL     1       2.578   6.301  18.711  0.00  0.00    +0.000 C 
BRANCH  18  19
ATOM     19  O   UNL     1       3.506   6.991  17.874  0.00  0.00    +0.000 OA
ATOM     20  H   UNL     1       3.902   6.350  17.260  0.00  0.00    +0.000 HD
ENDBRANCH  18  19
ENDBRANCH  12  18
ENDBRANCH   3  10
BRANCH   1  22
ATOM     21  C   UNL     1       5.871   3.304  12.712  0.00  0.00    +0.000 C 
ATOM     22  C   UNL     1       5.224   4.379  13.576  0.00  0.00    +0.000 C 
ENDBRANCH   1  22
TORSDOF 5
ENDMDL
MODEL 9
REMARK VINA RESULT:      -6.7      2.179      2.589
REMARK  Name = 
REMARK  6 active torsions:
REMARK  status: ('A' for Active; 'I' for Inactive)
REMARK    1  A    between atoms: C_1  and  C_2
REMARK    2  A    between atoms: C_2  and  C_3
REMARK    3  A    between atoms: N_5  and  C_6
REMARK    4  A    between atoms: C_8  and  C_9
REMARK    5  A    between atoms: C_9  and  O_10
REMARK    6  A    between atoms: C_11  and  O_12
REMARK                            x       y       z     vdW  Elec       q    Type
REMARK                         _______ _______ _______ _____ _____    ______ ____
ROOT
ATOM      1  C   UNL     1       5.332   4.992  16.492  0.00  0.00    +0.000 A 
ATOM      2  C   UNL     1       4.333   4.330  17.075  0.00  0.00    +0.000 A 
ATOM      3  N   UNL     1       3.306   4.954  17.758  0.00  0.00    +0.000 N 
ATOM      4  C   UNL     1       3.269   6.333  17.895  0.00  0.00    +0.000 A 
ATOM      5  O   UNL     1       2.359   6.942  18.460  0.00  0.00    +0.000 OA
ATOM      6  N   UNL     1       4.317   7.015  17.329  0.00  0.00    +0.000 N 
ATOM      7  C   UNL     1       5.301   6.473  16.551  0.00  0.00    +0.000 A 
ATOM      8  O   UNL     1       6.081   7.167  15.920  0.00  0.00    +0.000 OA
ATOM      9  H   UNL     1       4.281   8.021  17.373  0.00  0.00    +0.000 HD
ENDROOT
BRANCH   3  10
ATOM     10  C   UNL     1       2.179   4.184  18.270  0.00  0.00    +0.000 C 
ATOM     11  O   UNL     1       2.207   2.832  17.753  0.00  0.00    +0.000 OA
ATOM     12  C   UNL     1       1.974   1.913  18.835  0.00  0.00    +0.000 C 
ATOM     13  C   UNL     1       1.370   2.748  19.960  0.00  0.00    +0.000 C 
ATOM     14  C   UNL     1       2.058   4.087  19.793  0.00  0.00    +0.000 C 
ATOM     15  F   UNL     1       3.284   4.022  20.380  0.00  0.00    +0.000 F 
BRANCH  13  16
ATOM     16  O   UNL     1      -0.048   2.882  19.792  0.00  0.00    +0.000 OA
ATOM     17  H   UNL     1      -0.276   2.796  18.849  0.00  0.00    +0.000 HD
ENDBRANCH  13  16
BRANCH  12  18
ATOM     18  C   UNL     1       3.285   1.215  19.243  0.00  0.00    +0.000 C 
BRANCH  18  19
ATOM     19  O   UNL     1       4.019   0.760  18.106  0.00  0.00    +0.000 OA
ATOM     20  H   UNL     1       3.796  -0.173  17.950  0.00  0.00    +0.000 HD
ENDBRANCH  18  19
ENDBRANCH  12  18
ENDBRANCH   3  10
BRANCH   1  22
ATOM     21  C   UNL     1       6.045   4.039  14.287  0.00  0.00    +0.000 C 
ATOM     22  C   UNL     1       6.434   4.314  15.733  0.00  0.00    +0.000 C 
ENDBRANCH   1  22
TORSDOF 5
ENDMDL
