MODEL 1
REMARK VINA RESULT:      -7.5      0.000      0.000
REMARK  Name = 
REMARK  7 active torsions:
REMARK  status: ('A' for Active; 'I' for Inactive)
REMARK    1  A    between atoms: C_1  and  O_2
REMARK    2  A    between atoms: O_2  and  C_3
REMARK    3  A    between atoms: C_3  and  C_5
REMARK    4  A    between atoms: C_10  and  N_11
REMARK    5  A    between atoms: N_14  and  C_15
REMARK    6  A    between atoms: N_18  and  C_19
REMARK    7  A    between atoms: C_19  and  C_20
REMARK                            x       y       z     vdW  Elec       q    Type
REMARK                         _______ _______ _______ _____ _____    ______ ____
ROOT
ATOM      1  N   UNL     1       2.716   7.104  18.838  0.00  0.00    +0.000 N 
ATOM      2  C   UNL     1       2.275   8.250  18.197  0.00  0.00    +0.000 C 
ATOM      3  O   UNL     1       2.466   8.512  17.012  0.00  0.00    +0.000 OA
ATOM      4  N   UNL     1       1.546   9.057  19.045  0.00  0.00    +0.000 N 
ATOM      5  H   UNL     1       2.059   6.740  19.521  0.00  0.00    +0.000 HD
ATOM      6  H   UNL     1       1.933   9.077  19.979  0.00  0.00    +0.000 HD
ENDROOT
BRANCH   1  12
ATOM      7  C   UNL     1       3.078   4.819  17.938  0.00  0.00    +0.000 A 
ATOM      8  C   UNL     1       3.913   3.919  17.251  0.00  0.00    +0.000 A 
ATOM      9  C   UNL     1       5.185   4.301  16.826  0.00  0.00    +0.000 A 
ATOM     10  C   UNL     1       5.628   5.595  17.072  0.00  0.00    +0.000 A 
ATOM     11  C   UNL     1       4.798   6.507  17.733  0.00  0.00    +0.000 A 
ATOM     12  C   UNL     1       3.516   6.138  18.171  0.00  0.00    +0.000 A 
BRANCH   7  13
ATOM     13  C   UNL     1       1.719   4.308  18.247  0.00  0.00    +0.000 C 
ATOM     14  O   UNL     1       1.023   3.741  17.416  0.00  0.00    +0.000 OA
BRANCH  13  16
ATOM     15  C   UNL     1       1.330   3.289  20.308  0.00  0.00    +0.000 C 
ATOM     16  O   UNL     1       1.391   4.501  19.549  0.00  0.00    +0.000 OA
ENDBRANCH  13  16
ENDBRANCH   7  13
ENDBRANCH   1  12
BRANCH   4  17
ATOM     17  C   UNL     1       0.950  10.320  18.573  0.00  0.00    +0.000 C 
ATOM     18  C   UNL     1       1.490  11.520  19.356  0.00  0.00    +0.000 C 
ATOM     19  C   UNL     1       1.026  11.495  20.816  0.00  0.00    +0.000 C 
ATOM     20  N   UNL     1      -0.437  11.417  20.963  0.00  0.00    +0.000 NA
ATOM     21  C   UNL     1      -1.016  10.324  20.155  0.00  0.00    +0.000 C 
ATOM     22  C   UNL     1      -0.579  10.357  18.692  0.00  0.00    +0.000 C 
BRANCH  20  23
ATOM     23  C   UNL     1      -0.813  11.194  22.378  0.00  0.00    +0.000 C 
BRANCH  23  24
ATOM     24  C   UNL     1      -1.639  12.294  23.010  0.00  0.00    +0.000 A 
ATOM     25  C   UNL     1      -2.949  12.051  23.448  0.00  0.00    +0.000 A 
ATOM     26  C   UNL     1      -3.685  13.060  24.074  0.00  0.00    +0.000 A 
ATOM     27  C   UNL     1      -3.120  14.319  24.273  0.00  0.00    +0.000 A 
ATOM     28  C   UNL     1      -1.823  14.575  23.837  0.00  0.00    +0.000 A 
ATOM     29  C   UNL     1      -1.087  13.570  23.207  0.00  0.00    +0.000 A 
ENDBRANCH  23  24
ENDBRANCH  20  23
ENDBRANCH   4  17
TORSDOF 6
ENDMDL
MODEL 2
REMARK VINA RESULT:      -7.4      2.442      8.843
REMARK  Name = 
REMARK  7 active torsions:
REMARK  status: ('A' for Active; 'I' for Inactive)
REMARK    1  A    between atoms: C_1  and  O_2
REMARK    2  A    between atoms: O_2  and  C_3
REMARK    3  A    between atoms: C_3  and  C_5
REMARK    4  A    between atoms: C_10  and  N_11
REMARK    5  A    between atoms: N_14  and  C_15
REMARK    6  A    between atoms: N_18  and  C_19
REMARK    7  A    between atoms: C_19  and  C_20
REMARK                            x       y       z     vdW  Elec       q    Type
REMARK                         _______ _______ _______ _____ _____    ______ ____
ROOT
ATOM      1  N   UNL     1       1.998   7.716  20.782  0.00  0.00    +0.000 N 
ATOM      2  C   UNL     1       1.506   6.429  20.637  0.00  0.00    +0.000 C 
ATOM      3  O   UNL     1       0.323   6.112  20.729  0.00  0.00    +0.000 OA
ATOM      4  N   UNL     1       2.510   5.535  20.329  0.00  0.00    +0.000 N 
ATOM      5  H   UNL     1       2.760   7.935  20.149  0.00  0.00    +0.000 HD
ATOM      6  H   UNL     1       3.364   5.732  20.831  0.00  0.00    +0.000 HD
ENDROOT
BRANCH   1  12
ATOM      7  C   UNL     1       0.676   9.731  20.187  0.00  0.00    +0.000 A 
ATOM      8  C   UNL     1      -0.179  10.770  20.600  0.00  0.00    +0.000 A 
ATOM      9  C   UNL     1      -0.535  10.917  21.940  0.00  0.00    +0.000 A 
ATOM     10  C   UNL     1      -0.051  10.014  22.879  0.00  0.00    +0.000 A 
ATOM     11  C   UNL     1       0.779   8.962  22.478  0.00  0.00    +0.000 A 
ATOM     12  C   UNL     1       1.151   8.801  21.133  0.00  0.00    +0.000 A 
BRANCH   7  13
ATOM     13  C   UNL     1       0.894   9.639  18.722  0.00  0.00    +0.000 C 
ATOM     14  O   UNL     1      -0.014   9.754  17.910  0.00  0.00    +0.000 OA
BRANCH  13  16
ATOM     15  C   UNL     1       2.455   8.341  17.574  0.00  0.00    +0.000 C 
ATOM     16  O   UNL     1       2.205   9.472  18.417  0.00  0.00    +0.000 OA
ENDBRANCH  13  16
ENDBRANCH   7  13
ENDBRANCH   1  12
BRANCH   4  17
ATOM     17  C   UNL     1       2.217   4.108  20.098  0.00  0.00    +0.000 C 
ATOM     18  C   UNL     1       3.476   3.249  20.250  0.00  0.00    +0.000 C 
ATOM     19  C   UNL     1       4.489   3.533  19.136  0.00  0.00    +0.000 C 
ATOM     20  N   UNL     1       3.931   3.371  17.784  0.00  0.00    +0.000 NA
ATOM     21  C   UNL     1       2.666   4.115  17.615  0.00  0.00    +0.000 C 
ATOM     22  C   UNL     1       1.641   3.817  18.708  0.00  0.00    +0.000 C 
BRANCH  20  23
ATOM     23  C   UNL     1       4.888   3.849  16.760  0.00  0.00    +0.000 C 
BRANCH  23  24
ATOM     24  C   UNL     1       5.807   4.968  17.203  0.00  0.00    +0.000 A 
ATOM     25  C   UNL     1       6.975   4.697  17.930  0.00  0.00    +0.000 A 
ATOM     26  C   UNL     1       7.840   5.732  18.292  0.00  0.00    +0.000 A 
ATOM     27  C   UNL     1       7.551   7.047  17.929  0.00  0.00    +0.000 A 
ATOM     28  C   UNL     1       6.391   7.330  17.213  0.00  0.00    +0.000 A 
ATOM     29  C   UNL     1       5.522   6.298  16.854  0.00  0.00    +0.000 A 
ENDBRANCH  23  24
ENDBRANCH  20  23
ENDBRANCH   4  17
TORSDOF 6
ENDMDL
MODEL 3
REMARK VINA RESULT:      -7.3      2.448      8.932
REMARK  Name = 
REMARK  7 active torsions:
REMARK  status: ('A' for Active; 'I' for Inactive)
REMARK    1  A    between atoms: C_1  and  O_2
REMARK    2  A    between atoms: O_2  and  C_3
REMARK    3  A    between atoms: C_3  and  C_5
REMARK    4  A    between atoms: C_10  and  N_11
REMARK    5  A    between atoms: N_14  and  C_15
REMARK    6  A    between atoms: N_18  and  C_19
REMARK    7  A    between atoms: C_19  and  C_20
REMARK                            x       y       z     vdW  Elec       q    Type
REMARK                         _______ _______ _______ _____ _____    ______ ____
ROOT
ATOM      1  N   UNL     1       2.043   7.782  20.658  0.00  0.00    +0.000 N 
ATOM      2  C   UNL     1       1.635   6.468  20.500  0.00  0.00    +0.000 C 
ATOM      3  O   UNL     1       0.499   6.052  20.710  0.00  0.00    +0.000 OA
ATOM      4  N   UNL     1       2.659   5.673  20.028  0.00  0.00    +0.000 N 
ATOM      5  H   UNL     1       2.706   8.092  19.954  0.00  0.00    +0.000 HD
ATOM      6  H   UNL     1       3.551   5.916  20.439  0.00  0.00    +0.000 HD
ENDROOT
BRANCH   1  12
ATOM      7  C   UNL     1       0.566   9.753  20.342  0.00  0.00    +0.000 A 
ATOM      8  C   UNL     1      -0.312  10.697  20.906  0.00  0.00    +0.000 A 
ATOM      9  C   UNL     1      -0.571  10.706  22.275  0.00  0.00    +0.000 A 
ATOM     10  C   UNL     1       0.034   9.761  23.093  0.00  0.00    +0.000 A 
ATOM     11  C   UNL     1       0.890   8.801  22.541  0.00  0.00    +0.000 A 
ATOM     12  C   UNL     1       1.166   8.778  21.164  0.00  0.00    +0.000 A 
BRANCH   7  13
ATOM     13  C   UNL     1       0.676   9.799  18.862  0.00  0.00    +0.000 C 
ATOM     14  O   UNL     1       1.491   9.131  18.240  0.00  0.00    +0.000 OA
BRANCH  13  16
ATOM     15  C   UNL     1      -1.236   9.917  17.533  0.00  0.00    +0.000 C 
ATOM     16  O   UNL     1      -0.257  10.614  18.312  0.00  0.00    +0.000 OA
ENDBRANCH  13  16
ENDBRANCH   7  13
ENDBRANCH   1  12
BRANCH   4  17
ATOM     17  C   UNL     1       2.449   4.240  19.754  0.00  0.00    +0.000 C 
ATOM     18  C   UNL     1       3.711   3.424  20.052  0.00  0.00    +0.000 C 
ATOM     19  C   UNL     1       4.841   3.756  19.073  0.00  0.00    +0.000 C 
ATOM     20  N   UNL     1       4.458   3.590  17.661  0.00  0.00    +0.000 NA
ATOM     21  C   UNL     1       3.197   4.291  17.344  0.00  0.00    +0.000 C 
ATOM     22  C   UNL     1       2.058   3.945  18.301  0.00  0.00    +0.000 C 
BRANCH  20  23
ATOM     23  C   UNL     1       5.515   4.113  16.765  0.00  0.00    +0.000 C 
BRANCH  23  24
ATOM     24  C   UNL     1       6.334   5.257  17.327  0.00  0.00    +0.000 A 
ATOM     25  C   UNL     1       7.318   5.028  18.299  0.00  0.00    +0.000 A 
ATOM     26  C   UNL     1       8.101   6.082  18.774  0.00  0.00    +0.000 A 
ATOM     27  C   UNL     1       7.914   7.374  18.282  0.00  0.00    +0.000 A 
ATOM     28  C   UNL     1       6.934   7.614  17.322  0.00  0.00    +0.000 A 
ATOM     29  C   UNL     1       6.147   6.563  16.848  0.00  0.00    +0.000 A 
ENDBRANCH  23  24
ENDBRANCH  20  23
ENDBRANCH   4  17
TORSDOF 6
ENDMDL
MODEL 4
REMARK VINA RESULT:      -7.2      2.526      8.726
REMARK  Name = 
REMARK  7 active torsions:
REMARK  status: ('A' for Active; 'I' for Inactive)
REMARK    1  A    between atoms: C_1  and  O_2
REMARK    2  A    between atoms: O_2  and  C_3
REMARK    3  A    between atoms: C_3  and  C_5
REMARK    4  A    between atoms: C_10  and  N_11
REMARK    5  A    between atoms: N_14  and  C_15
REMARK    6  A    between atoms: N_18  and  C_19
REMARK    7  A    between atoms: C_19  and  C_20
REMARK                            x       y       z     vdW  Elec       q    Type
REMARK                         _______ _______ _______ _____ _____    ______ ____
ROOT
ATOM      1  N   UNL     1       2.360   7.185  20.415  0.00  0.00    +0.000 N 
ATOM      2  C   UNL     1       1.685   5.990  20.601  0.00  0.00    +0.000 C 
ATOM      3  O   UNL     1       0.522   5.777  20.267  0.00  0.00    +0.000 OA
ATOM      4  N   UNL     1       2.497   5.034  21.174  0.00  0.00    +0.000 N 
ATOM      5  H   UNL     1       3.337   7.069  20.169  0.00  0.00    +0.000 HD
ATOM      6  H   UNL     1       3.107   5.424  21.880  0.00  0.00    +0.000 HD
ENDROOT
BRANCH   1  12
ATOM      7  C   UNL     1       0.985   9.238  20.658  0.00  0.00    +0.000 A 
ATOM      8  C   UNL     1       0.389  10.361  20.056  0.00  0.00    +0.000 A 
ATOM      9  C   UNL     1       0.480  10.571  18.681  0.00  0.00    +0.000 A 
ATOM     10  C   UNL     1       1.181   9.664  17.896  0.00  0.00    +0.000 A 
ATOM     11  C   UNL     1       1.798   8.556  18.486  0.00  0.00    +0.000 A 
ATOM     12  C   UNL     1       1.715   8.327  19.869  0.00  0.00    +0.000 A 
BRANCH   7  13
ATOM     13  C   UNL     1       0.890   9.191  22.139  0.00  0.00    +0.000 C 
ATOM     14  O   UNL     1       1.865   9.318  22.867  0.00  0.00    +0.000 OA
BRANCH  13  16
ATOM     15  C   UNL     1      -0.895  10.199  23.251  0.00  0.00    +0.000 C 
ATOM     16  O   UNL     1      -0.392   9.051  22.559  0.00  0.00    +0.000 OA
ENDBRANCH  13  16
ENDBRANCH   7  13
ENDBRANCH   1  12
BRANCH   4  17
ATOM     17  C   UNL     1       2.002   3.670  21.439  0.00  0.00    +0.000 C 
ATOM     18  C   UNL     1       3.140   2.646  21.398  0.00  0.00    +0.000 C 
ATOM     19  C   UNL     1       3.708   2.491  19.984  0.00  0.00    +0.000 C 
ATOM     20  N   UNL     1       2.688   2.149  18.979  0.00  0.00    +0.000 NA
ATOM     21  C   UNL     1       1.527   3.060  19.037  0.00  0.00    +0.000 C 
ATOM     22  C   UNL     1       0.939   3.200  20.440  0.00  0.00    +0.000 C 
BRANCH  20  23
ATOM     23  C   UNL     1       3.255   2.210  17.612  0.00  0.00    +0.000 C 
BRANCH  23  24
ATOM     24  C   UNL     1       3.926   3.518  17.247  0.00  0.00    +0.000 A 
ATOM     25  C   UNL     1       3.345   4.746  17.591  0.00  0.00    +0.000 A 
ATOM     26  C   UNL     1       3.995   5.945  17.293  0.00  0.00    +0.000 A 
ATOM     27  C   UNL     1       5.234   5.931  16.652  0.00  0.00    +0.000 A 
ATOM     28  C   UNL     1       5.818   4.717  16.299  0.00  0.00    +0.000 A 
ATOM     29  C   UNL     1       5.168   3.517  16.592  0.00  0.00    +0.000 A 
ENDBRANCH  23  24
ENDBRANCH  20  23
ENDBRANCH   4  17
TORSDOF 6
ENDMDL
MODEL 5
REMARK VINA RESULT:      -7.2      2.657     10.059
REMARK  Name = 
REMARK  7 active torsions:
REMARK  status: ('A' for Active; 'I' for Inactive)
REMARK    1  A    between atoms: C_1  and  O_2
REMARK    2  A    between atoms: O_2  and  C_3
REMARK    3  A    between atoms: C_3  and  C_5
REMARK    4  A    between atoms: C_10  and  N_11
REMARK    5  A    between atoms: N_14  and  C_15
REMARK    6  A    between atoms: N_18  and  C_19
REMARK    7  A    between atoms: C_19  and  C_20
REMARK                            x       y       z     vdW  Elec       q    Type
REMARK                         _______ _______ _______ _____ _____    ______ ____
ROOT
ATOM      1  N   UNL     1       2.017   8.185  19.713  0.00  0.00    +0.000 N 
ATOM      2  C   UNL     1       2.207   6.822  19.870  0.00  0.00    +0.000 C 
ATOM      3  O   UNL     1       1.615   6.116  20.682  0.00  0.00    +0.000 OA
ATOM      4  N   UNL     1       3.123   6.330  18.963  0.00  0.00    +0.000 N 
ATOM      5  H   UNL     1       2.062   8.495  18.748  0.00  0.00    +0.000 HD
ATOM      6  H   UNL     1       3.892   6.968  18.814  0.00  0.00    +0.000 HD
ENDROOT
BRANCH   1  12
ATOM      7  C   UNL     1       0.201   9.841  20.064  0.00  0.00    +0.000 A 
ATOM      8  C   UNL     1      -0.651  10.515  20.958  0.00  0.00    +0.000 A 
ATOM      9  C   UNL     1      -0.555  10.311  22.333  0.00  0.00    +0.000 A 
ATOM     10  C   UNL     1       0.386   9.416  22.828  0.00  0.00    +0.000 A 
ATOM     11  C   UNL     1       1.222   8.721  21.949  0.00  0.00    +0.000 A 
ATOM     12  C   UNL     1       1.142   8.917  20.560  0.00  0.00    +0.000 A 
BRANCH   7  13
ATOM     13  C   UNL     1      -0.074  10.082  18.626  0.00  0.00    +0.000 C 
ATOM     14  O   UNL     1       0.658   9.672  17.735  0.00  0.00    +0.000 OA
BRANCH  13  16
ATOM     15  C   UNL     1      -2.187  10.034  17.639  0.00  0.00    +0.000 C 
ATOM     16  O   UNL     1      -1.240  10.750  18.440  0.00  0.00    +0.000 OA
ENDBRANCH  13  16
ENDBRANCH   7  13
ENDBRANCH   1  12
BRANCH   4  17
ATOM     17  C   UNL     1       3.463   4.896  18.922  0.00  0.00    +0.000 C 
ATOM     18  C   UNL     1       4.905   4.652  19.374  0.00  0.00    +0.000 C 
ATOM     19  C   UNL     1       5.915   5.230  18.377  0.00  0.00    +0.000 C 
ATOM     20  N   UNL     1       5.728   4.733  17.004  0.00  0.00    +0.000 NA
ATOM     21  C   UNL     1       4.329   4.869  16.552  0.00  0.00    +0.000 C 
ATOM     22  C   UNL     1       3.318   4.272  17.529  0.00  0.00    +0.000 C 
BRANCH  20  23
ATOM     23  C   UNL     1       6.594   5.472  16.055  0.00  0.00    +0.000 C 
BRANCH  23  24
ATOM     24  C   UNL     1       6.623   4.925  14.643  0.00  0.00    +0.000 A 
ATOM     25  C   UNL     1       7.589   5.355  13.723  0.00  0.00    +0.000 A 
ATOM     26  C   UNL     1       7.637   4.808  12.439  0.00  0.00    +0.000 A 
ATOM     27  C   UNL     1       6.725   3.823  12.061  0.00  0.00    +0.000 A 
ATOM     28  C   UNL     1       5.756   3.392  12.964  0.00  0.00    +0.000 A 
ATOM     29  C   UNL     1       5.703   3.941  14.247  0.00  0.00    +0.000 A 
ENDBRANCH  23  24
ENDBRANCH  20  23
ENDBRANCH   4  17
TORSDOF 6
ENDMDL
MODEL 6
REMARK VINA RESULT:      -7.0      2.873      4.393
REMARK  Name = 
REMARK  7 active torsions:
REMARK  status: ('A' for Active; 'I' for Inactive)
REMARK    1  A    between atoms: C_1  and  O_2
REMARK    2  A    between atoms: O_2  and  C_3
REMARK    3  A    between atoms: C_3  and  C_5
REMARK    4  A    between atoms: C_10  and  N_11
REMARK    5  A    between atoms: N_14  and  C_15
REMARK    6  A    between atoms: N_18  and  C_19
REMARK    7  A    between atoms: C_19  and  C_20
REMARK                            x       y       z     vdW  Elec       q    Type
REMARK                         _______ _______ _______ _____ _____    ______ ____
ROOT
ATOM      1  N   UNL     1       2.560   6.194  19.069  0.00  0.00    +0.000 N 
ATOM      2  C   UNL     1       1.901   6.504  20.248  0.00  0.00    +0.000 C 
ATOM      3  O   UNL     1       1.484   5.682  21.060  0.00  0.00    +0.000 OA
ATOM      4  N   UNL     1       1.806   7.867  20.431  0.00  0.00    +0.000 N 
ATOM      5  H   UNL     1       3.309   6.838  18.838  0.00  0.00    +0.000 HD
ATOM      6  H   UNL     1       1.622   8.357  19.566  0.00  0.00    +0.000 HD
ENDROOT
BRANCH   1  12
ATOM      7  C   UNL     1       4.022   4.297  18.416  0.00  0.00    +0.000 A 
ATOM      8  C   UNL     1       4.137   2.950  18.027  0.00  0.00    +0.000 A 
ATOM      9  C   UNL     1       3.006   2.158  17.837  0.00  0.00    +0.000 A 
ATOM     10  C   UNL     1       1.746   2.704  18.050  0.00  0.00    +0.000 A 
ATOM     11  C   UNL     1       1.618   4.035  18.460  0.00  0.00    +0.000 A 
ATOM     12  C   UNL     1       2.747   4.849  18.653  0.00  0.00    +0.000 A 
BRANCH   7  13
ATOM     13  C   UNL     1       5.309   4.992  18.672  0.00  0.00    +0.000 C 
ATOM     14  O   UNL     1       6.208   4.493  19.335  0.00  0.00    +0.000 OA
BRANCH  13  16
ATOM     15  C   UNL     1       5.571   6.085  16.628  0.00  0.00    +0.000 C 
ATOM     16  O   UNL     1       5.368   6.192  18.042  0.00  0.00    +0.000 OA
ENDBRANCH  13  16
ENDBRANCH   7  13
ENDBRANCH   1  12
BRANCH   4  17
ATOM     17  C   UNL     1       1.170   8.434  21.635  0.00  0.00    +0.000 C 
ATOM     18  C   UNL     1      -0.355   8.471  21.495  0.00  0.00    +0.000 C 
ATOM     19  C   UNL     1      -0.798   9.470  20.421  0.00  0.00    +0.000 C 
ATOM     20  N   UNL     1      -0.280  10.831  20.641  0.00  0.00    +0.000 NA
ATOM     21  C   UNL     1       1.179  10.837  20.867  0.00  0.00    +0.000 C 
ATOM     22  C   UNL     1       1.626   9.862  21.954  0.00  0.00    +0.000 C 
BRANCH  20  23
ATOM     23  C   UNL     1      -0.572  11.698  19.476  0.00  0.00    +0.000 C 
BRANCH  23  24
ATOM     24  C   UNL     1      -1.803  11.320  18.678  0.00  0.00    +0.000 A 
ATOM     25  C   UNL     1      -3.054  11.877  18.978  0.00  0.00    +0.000 A 
ATOM     26  C   UNL     1      -4.173  11.560  18.205  0.00  0.00    +0.000 A 
ATOM     27  C   UNL     1      -4.055  10.687  17.124  0.00  0.00    +0.000 A 
ATOM     28  C   UNL     1      -2.819  10.121  16.821  0.00  0.00    +0.000 A 
ATOM     29  C   UNL     1      -1.699  10.434  17.594  0.00  0.00    +0.000 A 
ENDBRANCH  23  24
ENDBRANCH  20  23
ENDBRANCH   4  17
TORSDOF 6
ENDMDL
MODEL 7
REMARK VINA RESULT:      -6.9      2.129      3.127
REMARK  Name = 
REMARK  7 active torsions:
REMARK  status: ('A' for Active; 'I' for Inactive)
REMARK    1  A    between atoms: C_1  and  O_2
REMARK    2  A    between atoms: O_2  and  C_3
REMARK    3  A    between atoms: C_3  and  C_5
REMARK    4  A    between atoms: C_10  and  N_11
REMARK    5  A    between atoms: N_14  and  C_15
REMARK    6  A    between atoms: N_18  and  C_19
REMARK    7  A    between atoms: C_19  and  C_20
REMARK                            x       y       z     vdW  Elec       q    Type
REMARK                         _______ _______ _______ _____ _____    ______ ____
ROOT
ATOM      1  N   UNL     1       2.782   6.614  19.971  0.00  0.00    +0.000 N 
ATOM      2  C   UNL     1       2.252   7.276  18.876  0.00  0.00    +0.000 C 
ATOM      3  O   UNL     1       1.953   6.746  17.809  0.00  0.00    +0.000 OA
ATOM      4  N   UNL     1       2.053   8.615  19.141  0.00  0.00    +0.000 N 
ATOM      5  H   UNL     1       2.438   6.957  20.862  0.00  0.00    +0.000 HD
ATOM      6  H   UNL     1       2.798   9.008  19.700  0.00  0.00    +0.000 HD
ENDROOT
BRANCH   1  12
ATOM      7  C   UNL     1       4.303   4.748  19.365  0.00  0.00    +0.000 A 
ATOM      8  C   UNL     1       4.568   3.366  19.369  0.00  0.00    +0.000 A 
ATOM      9  C   UNL     1       3.643   2.460  19.885  0.00  0.00    +0.000 A 
ATOM     10  C   UNL     1       2.448   2.930  20.416  0.00  0.00    +0.000 A 
ATOM     11  C   UNL     1       2.183   4.303  20.440  0.00  0.00    +0.000 A 
ATOM     12  C   UNL     1       3.103   5.231  19.922  0.00  0.00    +0.000 A 
BRANCH   7  13
ATOM     13  C   UNL     1       5.414   5.601  18.873  0.00  0.00    +0.000 C 
ATOM     14  O   UNL     1       5.318   6.298  17.872  0.00  0.00    +0.000 OA
BRANCH  13  16
ATOM     15  C   UNL     1       7.738   5.732  19.008  0.00  0.00    +0.000 C 
ATOM     16  O   UNL     1       6.494   5.547  19.692  0.00  0.00    +0.000 OA
ENDBRANCH  13  16
ENDBRANCH   7  13
ENDBRANCH   1  12
BRANCH   4  17
ATOM     17  C   UNL     1       1.468   9.515  18.130  0.00  0.00    +0.000 C 
ATOM     18  C   UNL     1       2.001  10.943  18.279  0.00  0.00    +0.000 C 
ATOM     19  C   UNL     1       1.515  11.593  19.579  0.00  0.00    +0.000 C 
ATOM     20  N   UNL     1       0.050  11.585  19.723  0.00  0.00    +0.000 NA
ATOM     21  C   UNL     1      -0.521  10.241  19.502  0.00  0.00    +0.000 C 
ATOM     22  C   UNL     1      -0.061   9.597  18.195  0.00  0.00    +0.000 C 
BRANCH  20  23
ATOM     23  C   UNL     1      -0.348  12.040  21.075  0.00  0.00    +0.000 C 
BRANCH  23  24
ATOM     24  C   UNL     1      -1.816  12.377  21.240  0.00  0.00    +0.000 A 
ATOM     25  C   UNL     1      -2.611  12.695  20.130  0.00  0.00    +0.000 A 
ATOM     26  C   UNL     1      -3.974  12.956  20.288  0.00  0.00    +0.000 A 
ATOM     27  C   UNL     1      -4.558  12.898  21.553  0.00  0.00    +0.000 A 
ATOM     28  C   UNL     1      -3.777  12.590  22.664  0.00  0.00    +0.000 A 
ATOM     29  C   UNL     1      -2.413  12.333  22.510  0.00  0.00    +0.000 A 
ENDBRANCH  23  24
ENDBRANCH  20  23
ENDBRANCH   4  17
TORSDOF 6
ENDMDL
MODEL 8
REMARK VINA RESULT:      -6.8      2.519      4.003
REMARK  Name = 
REMARK  7 active torsions:
REMARK  status: ('A' for Active; 'I' for Inactive)
REMARK    1  A    between atoms: C_1  and  O_2
REMARK    2  A    between atoms: O_2  and  C_3
REMARK    3  A    between atoms: C_3  and  C_5
REMARK    4  A    between atoms: C_10  and  N_11
REMARK    5  A    between atoms: N_14  and  C_15
REMARK    6  A    between atoms: N_18  and  C_19
REMARK    7  A    between atoms: C_19  and  C_20
REMARK                            x       y       z     vdW  Elec       q    Type
REMARK                         _______ _______ _______ _____ _____    ______ ____
ROOT
ATOM      1  N   UNL     1       2.729   6.539  18.924  0.00  0.00    +0.000 N 
ATOM      2  C   UNL     1       2.039   6.744  20.108  0.00  0.00    +0.000 C 
ATOM      3  O   UNL     1       1.660   5.854  20.866  0.00  0.00    +0.000 OA
ATOM      4  N   UNL     1       1.863   8.087  20.366  0.00  0.00    +0.000 N 
ATOM      5  H   UNL     1       3.442   7.237  18.741  0.00  0.00    +0.000 HD
ATOM      6  H   UNL     1       1.661   8.614  19.527  0.00  0.00    +0.000 HD
ENDROOT
BRANCH   1  12
ATOM      7  C   UNL     1       4.307   4.728  18.298  0.00  0.00    +0.000 A 
ATOM      8  C   UNL     1       4.502   3.416  17.829  0.00  0.00    +0.000 A 
ATOM      9  C   UNL     1       3.421   2.616  17.463  0.00  0.00    +0.000 A 
ATOM     10  C   UNL     1       2.130   3.117  17.578  0.00  0.00    +0.000 A 
ATOM     11  C   UNL     1       1.921   4.412  18.066  0.00  0.00    +0.000 A 
ATOM     12  C   UNL     1       2.999   5.233  18.436  0.00  0.00    +0.000 A 
BRANCH   7  13
ATOM     13  C   UNL     1       5.538   5.431  18.739  0.00  0.00    +0.000 C 
ATOM     14  O   UNL     1       6.175   5.090  19.727  0.00  0.00    +0.000 OA
BRANCH  13  16
ATOM     15  C   UNL     1       7.288   6.690  17.849  0.00  0.00    +0.000 C 
ATOM     16  O   UNL     1       5.879   6.433  17.891  0.00  0.00    +0.000 OA
ENDBRANCH  13  16
ENDBRANCH   7  13
ENDBRANCH   1  12
BRANCH   4  17
ATOM     17  C   UNL     1       1.181   8.547  21.590  0.00  0.00    +0.000 C 
ATOM     18  C   UNL     1      -0.342   8.499  21.431  0.00  0.00    +0.000 C 
ATOM     19  C   UNL     1      -0.834   9.527  20.407  0.00  0.00    +0.000 C 
ATOM     20  N   UNL     1      -0.404  10.902  20.707  0.00  0.00    +0.000 NA
ATOM     21  C   UNL     1       1.050  10.985  20.953  0.00  0.00    +0.000 C 
ATOM     22  C   UNL     1       1.545   9.981  21.992  0.00  0.00    +0.000 C 
BRANCH  20  23
ATOM     23  C   UNL     1      -0.735  11.813  19.587  0.00  0.00    +0.000 C 
BRANCH  23  24
ATOM     24  C   UNL     1      -2.212  11.945  19.274  0.00  0.00    +0.000 A 
ATOM     25  C   UNL     1      -2.743  11.442  18.078  0.00  0.00    +0.000 A 
ATOM     26  C   UNL     1      -4.113  11.525  17.822  0.00  0.00    +0.000 A 
ATOM     27  C   UNL     1      -4.968  12.106  18.758  0.00  0.00    +0.000 A 
ATOM     28  C   UNL     1      -4.451  12.616  19.946  0.00  0.00    +0.000 A 
ATOM     29  C   UNL     1      -3.081  12.538  20.203  0.00  0.00    +0.000 A 
ENDBRANCH  23  24
ENDBRANCH  20  23
ENDBRANCH   4  17
TORSDOF 6
ENDMDL
MODEL 9
REMARK VINA RESULT:      -6.8      0.936      1.454
REMARK  Name = 
REMARK  7 active torsions:
REMARK  status: ('A' for Active; 'I' for Inactive)
REMARK    1  A    between atoms: C_1  and  O_2
REMARK    2  A    between atoms: O_2  and  C_3
REMARK    3  A    between atoms: C_3  and  C_5
REMARK    4  A    between atoms: C_10  and  N_11
REMARK    5  A    between atoms: N_14  and  C_15
REMARK    6  A    between atoms: N_18  and  C_19
REMARK    7  A    between atoms: C_19  and  C_20
REMARK                            x       y       z     vdW  Elec       q    Type
REMARK                         _______ _______ _______ _____ _____    ______ ____
ROOT
ATOM      1  N   UNL     1       2.313   7.721  19.079  0.00  0.00    +0.000 N 
ATOM      2  C   UNL     1       1.880   8.851  18.404  0.00  0.00    +0.000 C 
ATOM      3  O   UNL     1       2.022   9.051  17.201  0.00  0.00    +0.000 OA
ATOM      4  N   UNL     1       1.219   9.721  19.245  0.00  0.00    +0.000 N 
ATOM      5  H   UNL     1       1.679   7.412  19.808  0.00  0.00    +0.000 HD
ATOM      6  H   UNL     1       1.650   9.771  20.158  0.00  0.00    +0.000 HD
ENDROOT
BRANCH   1  12
ATOM      7  C   UNL     1       2.892   5.332  18.730  0.00  0.00    +0.000 A 
ATOM      8  C   UNL     1       3.637   4.369  18.025  0.00  0.00    +0.000 A 
ATOM      9  C   UNL     1       4.557   4.747  17.049  0.00  0.00    +0.000 A 
ATOM     10  C   UNL     1       4.731   6.094  16.758  0.00  0.00    +0.000 A 
ATOM     11  C   UNL     1       3.980   7.060  17.435  0.00  0.00    +0.000 A 
ATOM     12  C   UNL     1       3.049   6.698  18.423  0.00  0.00    +0.000 A 
BRANCH   7  13
ATOM     13  C   UNL     1       1.882   4.785  19.671  0.00  0.00    +0.000 C 
ATOM     14  O   UNL     1       1.461   5.419  20.629  0.00  0.00    +0.000 OA
BRANCH  13  16
ATOM     15  C   UNL     1       1.439   2.609  20.382  0.00  0.00    +0.000 C 
ATOM     16  O   UNL     1       1.466   3.549  19.302  0.00  0.00    +0.000 OA
ENDBRANCH  13  16
ENDBRANCH   7  13
ENDBRANCH   1  12
BRANCH   4  17
ATOM     17  C   UNL     1       0.641  10.980  18.741  0.00  0.00    +0.000 C 
ATOM     18  C   UNL     1       1.298  12.198  19.398  0.00  0.00    +0.000 C 
ATOM     19  C   UNL     1       0.957  12.286  20.889  0.00  0.00    +0.000 C 
ATOM     20  N   UNL     1      -0.491  12.290  21.158  0.00  0.00    +0.000 NA
ATOM     21  C   UNL     1      -1.183  11.179  20.473  0.00  0.00    +0.000 C 
ATOM     22  C   UNL     1      -0.869  11.101  18.980  0.00  0.00    +0.000 C 
BRANCH  20  23
ATOM     23  C   UNL     1      -0.756  12.174  22.610  0.00  0.00    +0.000 C 
BRANCH  23  24
ATOM     24  C   UNL     1      -1.989  12.901  23.104  0.00  0.00    +0.000 A 
ATOM     25  C   UNL     1      -2.048  14.302  23.102  0.00  0.00    +0.000 A 
ATOM     26  C   UNL     1      -3.209  14.962  23.513  0.00  0.00    +0.000 A 
ATOM     27  C   UNL     1      -4.323  14.232  23.926  0.00  0.00    +0.000 A 
ATOM     28  C   UNL     1      -4.274  12.840  23.939  0.00  0.00    +0.000 A 
ATOM     29  C   UNL     1      -3.114  12.178  23.532  0.00  0.00    +0.000 A 
ENDBRANCH  23  24
ENDBRANCH  20  23
ENDBRANCH   4  17
TORSDOF 6
ENDMDL
