MODEL 1
REMARK VINA RESULT:      -7.8      0.000      0.000
REMARK  Name = 
REMARK  9 active torsions:
REMARK  status: ('A' for Active; 'I' for Inactive)
REMARK    1  A    between atoms: C_1  and  O_2
REMARK    2  A    between atoms: O_2  and  C_3
REMARK    3  A    between atoms: C_3  and  C_4
REMARK    4  A    between atoms: C_3  and  O_24
REMARK    5  A    between atoms: C_4  and  N_5
REMARK    6  A    between atoms: C_9  and  O_10
REMARK    7  A    between atoms: O_10  and  C_11
REMARK    8  A    between atoms: C_11  and  C_12
REMARK    9  A    between atoms: O_24  and  C_25
REMARK                            x       y       z     vdW  Elec       q    Type
REMARK                         _______ _______ _______ _____ _____    ______ ____
ROOT
ATOM      1  N   UNL     1       4.685   5.130  17.891  0.00  0.00    +0.000 N 
ATOM      2  C   UNL     1       3.871   6.230  18.116  0.00  0.00    +0.000 A 
ATOM      3  C   UNL     1       3.703   7.416  17.384  0.00  0.00    +0.000 A 
ATOM      4  C   UNL     1       2.752   8.345  17.816  0.00  0.00    +0.000 A 
ATOM      5  C   UNL     1       2.016   8.119  18.969  0.00  0.00    +0.000 A 
ATOM      6  C   UNL     1       2.186   6.938  19.710  0.00  0.00    +0.000 A 
ATOM      7  C   UNL     1       3.120   5.967  19.276  0.00  0.00    +0.000 A 
ATOM      8  C   UNL     1       3.511   4.672  19.739  0.00  0.00    +0.000 A 
ATOM      9  C   UNL     1       3.060   3.844  20.829  0.00  0.00    +0.000 A 
ATOM     10  O   UNL     1       2.208   4.228  21.619  0.00  0.00    +0.000 OA
ATOM     11  O   UNL     1       3.598   2.599  20.959  0.00  0.00    +0.000 OA
ATOM     12  C   UNL     1       4.535   2.144  20.091  0.00  0.00    +0.000 A 
ATOM     13  O   UNL     1       5.005   1.023  20.126  0.00  0.00    +0.000 OA
ATOM     14  N   UNL     1       5.013   2.993  19.070  0.00  0.00    +0.000 N 
ATOM     15  C   UNL     1       4.471   4.226  18.890  0.00  0.00    +0.000 A 
ATOM     16  H   UNL     1       5.647   2.595  18.378  0.00  0.00    +0.000 HD
ENDROOT
BRANCH   1  17
ATOM     17  C   UNL     1       5.559   4.927  16.738  0.00  0.00    +0.000 C 
BRANCH  17  18
ATOM     18  C   UNL     1       6.878   5.730  16.824  0.00  0.00    +0.000 C 
BRANCH  18  20
ATOM     19  C   UNL     1       7.096   4.892  14.596  0.00  0.00    +0.000 C 
ATOM     20  O   UNL     1       7.509   5.861  15.552  0.00  0.00    +0.000 OA
ENDBRANCH  18  20
BRANCH  18  21
ATOM     21  O   UNL     1       7.733   5.037  17.757  0.00  0.00    +0.000 OA
ATOM     22  C   UNL     1       7.901   5.722  18.995  0.00  0.00    +0.000 C 
ENDBRANCH  18  21
ENDBRANCH  17  18
ENDBRANCH   1  17
BRANCH   5  23
ATOM     23  O   UNL     1       1.062   9.039  19.490  0.00  0.00    +0.000 OA
BRANCH  23  24
ATOM     24  C   UNL     1       0.734  10.288  18.949  0.00  0.00    +0.000 C 
ATOM     25  C   UNL     1      -0.594  10.217  18.252  0.00  0.00    +0.000 C 
ATOM     26  O   UNL     1       1.393  11.317  19.026  0.00  0.00    +0.000 OA
ENDBRANCH  23  24
ENDBRANCH   5  23
TORSDOF 6
ENDMDL
MODEL 2
REMARK VINA RESULT:      -7.8      0.703      1.387
REMARK  Name = 
REMARK  9 active torsions:
REMARK  status: ('A' for Active; 'I' for Inactive)
REMARK    1  A    between atoms: C_1  and  O_2
REMARK    2  A    between atoms: O_2  and  C_3
REMARK    3  A    between atoms: C_3  and  C_4
REMARK    4  A    between atoms: C_3  and  O_24
REMARK    5  A    between atoms: C_4  and  N_5
REMARK    6  A    between atoms: C_9  and  O_10
REMARK    7  A    between atoms: O_10  and  C_11
REMARK    8  A    between atoms: C_11  and  C_12
REMARK    9  A    between atoms: O_24  and  C_25
REMARK                            x       y       z     vdW  Elec       q    Type
REMARK                         _______ _______ _______ _____ _____    ______ ____
ROOT
ATOM      1  N   UNL     1       4.526   5.391  17.759  0.00  0.00    +0.000 N 
ATOM      2  C   UNL     1       3.711   6.474  18.051  0.00  0.00    +0.000 A 
ATOM      3  C   UNL     1       3.491   7.675  17.356  0.00  0.00    +0.000 A 
ATOM      4  C   UNL     1       2.553   8.580  17.857  0.00  0.00    +0.000 A 
ATOM      5  C   UNL     1       1.878   8.317  19.040  0.00  0.00    +0.000 A 
ATOM      6  C   UNL     1       2.100   7.122  19.744  0.00  0.00    +0.000 A 
ATOM      7  C   UNL     1       3.023   6.174  19.240  0.00  0.00    +0.000 A 
ATOM      8  C   UNL     1       3.453   4.874  19.652  0.00  0.00    +0.000 A 
ATOM      9  C   UNL     1       3.068   4.015  20.743  0.00  0.00    +0.000 A 
ATOM     10  O   UNL     1       2.252   4.369  21.584  0.00  0.00    +0.000 OA
ATOM     11  O   UNL     1       3.627   2.774  20.816  0.00  0.00    +0.000 OA
ATOM     12  C   UNL     1       4.524   2.353  19.891  0.00  0.00    +0.000 A 
ATOM     13  O   UNL     1       5.010   1.237  19.876  0.00  0.00    +0.000 OA
ATOM     14  N   UNL     1       4.940   3.232  18.868  0.00  0.00    +0.000 N 
ATOM     15  C   UNL     1       4.374   4.461  18.745  0.00  0.00    +0.000 A 
ATOM     16  H   UNL     1       5.542   2.858  18.135  0.00  0.00    +0.000 HD
ENDROOT
BRANCH   1  17
ATOM     17  C   UNL     1       5.344   5.227  16.559  0.00  0.00    +0.000 C 
BRANCH  17  18
ATOM     18  C   UNL     1       6.807   5.688  16.750  0.00  0.00    +0.000 C 
BRANCH  18  20
ATOM     19  C   UNL     1       7.697   7.671  17.743  0.00  0.00    +0.000 C 
ATOM     20  O   UNL     1       6.935   7.106  16.684  0.00  0.00    +0.000 OA
ENDBRANCH  18  20
BRANCH  18  21
ATOM     21  O   UNL     1       7.587   5.050  15.717  0.00  0.00    +0.000 OA
ATOM     22  C   UNL     1       6.800   4.360  14.750  0.00  0.00    +0.000 C 
ENDBRANCH  18  21
ENDBRANCH  17  18
ENDBRANCH   1  17
BRANCH   5  23
ATOM     23  O   UNL     1       0.941   9.212  19.631  0.00  0.00    +0.000 OA
BRANCH  23  24
ATOM     24  C   UNL     1       0.513  10.434  19.098  0.00  0.00    +0.000 C 
ATOM     25  C   UNL     1      -0.785  10.251  18.364  0.00  0.00    +0.000 C 
ATOM     26  O   UNL     1       1.071  11.518  19.205  0.00  0.00    +0.000 OA
ENDBRANCH  23  24
ENDBRANCH   5  23
TORSDOF 6
ENDMDL
MODEL 3
REMARK VINA RESULT:      -7.7      2.090      6.661
REMARK  Name = 
REMARK  9 active torsions:
REMARK  status: ('A' for Active; 'I' for Inactive)
REMARK    1  A    between atoms: C_1  and  O_2
REMARK    2  A    between atoms: O_2  and  C_3
REMARK    3  A    between atoms: C_3  and  C_4
REMARK    4  A    between atoms: C_3  and  O_24
REMARK    5  A    between atoms: C_4  and  N_5
REMARK    6  A    between atoms: C_9  and  O_10
REMARK    7  A    between atoms: O_10  and  C_11
REMARK    8  A    between atoms: C_11  and  C_12
REMARK    9  A    between atoms: O_24  and  C_25
REMARK                            x       y       z     vdW  Elec       q    Type
REMARK                         _______ _______ _______ _____ _____    ______ ____
ROOT
ATOM      1  N   UNL     1       2.757   5.777  19.831  0.00  0.00    +0.000 N 
ATOM      2  C   UNL     1       3.548   5.598  18.706  0.00  0.00    +0.000 A 
ATOM      3  C   UNL     1       4.301   4.494  18.276  0.00  0.00    +0.000 A 
ATOM      4  C   UNL     1       4.965   4.569  17.049  0.00  0.00    +0.000 A 
ATOM      5  C   UNL     1       4.914   5.727  16.287  0.00  0.00    +0.000 A 
ATOM      6  C   UNL     1       4.169   6.838  16.716  0.00  0.00    +0.000 A 
ATOM      7  C   UNL     1       3.461   6.775  17.941  0.00  0.00    +0.000 A 
ATOM      8  C   UNL     1       2.593   7.666  18.645  0.00  0.00    +0.000 A 
ATOM      9  C   UNL     1       2.079   8.977  18.341  0.00  0.00    +0.000 A 
ATOM     10  O   UNL     1       2.411   9.579  17.328  0.00  0.00    +0.000 OA
ATOM     11  O   UNL     1       1.190   9.539  19.207  0.00  0.00    +0.000 OA
ATOM     12  C   UNL     1       0.796   8.889  20.330  0.00  0.00    +0.000 A 
ATOM     13  O   UNL     1      -0.036   9.318  21.106  0.00  0.00    +0.000 OA
ATOM     14  N   UNL     1       1.361   7.634  20.646  0.00  0.00    +0.000 N 
ATOM     15  C   UNL     1       2.221   7.030  19.785  0.00  0.00    +0.000 A 
ATOM     16  H   UNL     1       0.979   7.128  21.444  0.00  0.00    +0.000 HD
ENDROOT
BRANCH   1  17
ATOM     17  C   UNL     1       2.472   4.771  20.852  0.00  0.00    +0.000 C 
BRANCH  17  18
ATOM     18  C   UNL     1       1.153   4.005  20.603  0.00  0.00    +0.000 C 
BRANCH  18  20
ATOM     19  C   UNL     1       2.377   2.390  21.870  0.00  0.00    +0.000 C 
ATOM     20  O   UNL     1       1.165   2.709  21.197  0.00  0.00    +0.000 OA
ENDBRANCH  18  20
BRANCH  18  21
ATOM     21  O   UNL     1       0.982   3.916  19.173  0.00  0.00    +0.000 OA
ATOM     22  C   UNL     1       0.900   2.578  18.690  0.00  0.00    +0.000 C 
ENDBRANCH  18  21
ENDBRANCH  17  18
ENDBRANCH   1  17
BRANCH   5  23
ATOM     23  O   UNL     1       5.599   5.888  15.049  0.00  0.00    +0.000 OA
BRANCH  23  24
ATOM     24  C   UNL     1       6.659   5.102  14.579  0.00  0.00    +0.000 C 
ATOM     25  C   UNL     1       6.130   3.943  13.785  0.00  0.00    +0.000 C 
ATOM     26  O   UNL     1       7.854   5.304  14.750  0.00  0.00    +0.000 OA
ENDBRANCH  23  24
ENDBRANCH   5  23
TORSDOF 6
ENDMDL
MODEL 4
REMARK VINA RESULT:      -7.7      1.319      1.895
REMARK  Name = 
REMARK  9 active torsions:
REMARK  status: ('A' for Active; 'I' for Inactive)
REMARK    1  A    between atoms: C_1  and  O_2
REMARK    2  A    between atoms: O_2  and  C_3
REMARK    3  A    between atoms: C_3  and  C_4
REMARK    4  A    between atoms: C_3  and  O_24
REMARK    5  A    between atoms: C_4  and  N_5
REMARK    6  A    between atoms: C_9  and  O_10
REMARK    7  A    between atoms: O_10  and  C_11
REMARK    8  A    between atoms: C_11  and  C_12
REMARK    9  A    between atoms: O_24  and  C_25
REMARK                            x       y       z     vdW  Elec       q    Type
REMARK                         _______ _______ _______ _____ _____    ______ ____
ROOT
ATOM      1  N   UNL     1       4.208   5.391  17.723  0.00  0.00    +0.000 N 
ATOM      2  C   UNL     1       3.485   6.487  18.171  0.00  0.00    +0.000 A 
ATOM      3  C   UNL     1       3.289   7.755  17.602  0.00  0.00    +0.000 A 
ATOM      4  C   UNL     1       2.446   8.661  18.252  0.00  0.00    +0.000 A 
ATOM      5  C   UNL     1       1.846   8.328  19.457  0.00  0.00    +0.000 A 
ATOM      6  C   UNL     1       2.045   7.063  20.035  0.00  0.00    +0.000 A 
ATOM      7  C   UNL     1       2.869   6.116  19.380  0.00  0.00    +0.000 A 
ATOM      8  C   UNL     1       3.247   4.763  19.642  0.00  0.00    +0.000 A 
ATOM      9  C   UNL     1       2.892   3.830  20.682  0.00  0.00    +0.000 A 
ATOM     10  O   UNL     1       2.162   4.150  21.611  0.00  0.00    +0.000 OA
ATOM     11  O   UNL     1       3.378   2.560  20.602  0.00  0.00    +0.000 OA
ATOM     12  C   UNL     1       4.177   2.176  19.577  0.00  0.00    +0.000 A 
ATOM     13  O   UNL     1       4.591   1.042  19.427  0.00  0.00    +0.000 OA
ATOM     14  N   UNL     1       4.570   3.121  18.605  0.00  0.00    +0.000 N 
ATOM     15  C   UNL     1       4.073   4.385  18.633  0.00  0.00    +0.000 A 
ATOM     16  H   UNL     1       5.093   2.783  17.798  0.00  0.00    +0.000 HD
ENDROOT
BRANCH   1  17
ATOM     17  C   UNL     1       4.924   5.293  16.453  0.00  0.00    +0.000 C 
BRANCH  17  18
ATOM     18  C   UNL     1       6.462   5.296  16.617  0.00  0.00    +0.000 C 
BRANCH  18  20
ATOM     19  C   UNL     1       7.268   7.360  17.513  0.00  0.00    +0.000 C 
ATOM     20  O   UNL     1       7.027   6.578  16.350  0.00  0.00    +0.000 OA
ENDBRANCH  18  20
BRANCH  18  21
ATOM     21  O   UNL     1       6.984   4.302  15.711  0.00  0.00    +0.000 OA
ATOM     22  C   UNL     1       6.694   4.570  14.342  0.00  0.00    +0.000 C 
ENDBRANCH  18  21
ENDBRANCH  17  18
ENDBRANCH   1  17
BRANCH   5  23
ATOM     23  O   UNL     1       1.010   9.215  20.195  0.00  0.00    +0.000 OA
BRANCH  23  24
ATOM     24  C   UNL     1       0.828   9.219  21.583  0.00  0.00    +0.000 C 
ATOM     25  C   UNL     1      -0.538   8.698  21.926  0.00  0.00    +0.000 C 
ATOM     26  O   UNL     1       1.640   9.569  22.430  0.00  0.00    +0.000 OA
ENDBRANCH  23  24
ENDBRANCH   5  23
TORSDOF 6
ENDMDL
MODEL 5
REMARK VINA RESULT:      -7.7      0.906      1.039
REMARK  Name = 
REMARK  9 active torsions:
REMARK  status: ('A' for Active; 'I' for Inactive)
REMARK    1  A    between atoms: C_1  and  O_2
REMARK    2  A    between atoms: O_2  and  C_3
REMARK    3  A    between atoms: C_3  and  C_4
REMARK    4  A    between atoms: C_3  and  O_24
REMARK    5  A    between atoms: C_4  and  N_5
REMARK    6  A    between atoms: C_9  and  O_10
REMARK    7  A    between atoms: O_10  and  C_11
REMARK    8  A    between atoms: C_11  and  C_12
REMARK    9  A    between atoms: O_24  and  C_25
REMARK                            x       y       z     vdW  Elec       q    Type
REMARK                         _______ _______ _______ _____ _____    ______ ____
ROOT
ATOM      1  N   UNL     1       4.448   5.367  17.984  0.00  0.00    +0.000 N 
ATOM      2  C   UNL     1       3.607   6.420  18.311  0.00  0.00    +0.000 A 
ATOM      3  C   UNL     1       3.372   7.645  17.667  0.00  0.00    +0.000 A 
ATOM      4  C   UNL     1       2.407   8.508  18.194  0.00  0.00    +0.000 A 
ATOM      5  C   UNL     1       1.722   8.179  19.354  0.00  0.00    +0.000 A 
ATOM      6  C   UNL     1       1.959   6.959  20.008  0.00  0.00    +0.000 A 
ATOM      7  C   UNL     1       2.909   6.053  19.476  0.00  0.00    +0.000 A 
ATOM      8  C   UNL     1       3.360   4.745  19.836  0.00  0.00    +0.000 A 
ATOM      9  C   UNL     1       2.978   3.831  20.883  0.00  0.00    +0.000 A 
ATOM     10  O   UNL     1       2.143   4.131  21.726  0.00  0.00    +0.000 OA
ATOM     11  O   UNL     1       3.562   2.600  20.909  0.00  0.00    +0.000 OA
ATOM     12  C   UNL     1       4.480   2.238  19.980  0.00  0.00    +0.000 A 
ATOM     13  O   UNL     1       4.989   1.134  19.923  0.00  0.00    +0.000 OA
ATOM     14  N   UNL     1       4.892   3.170  19.003  0.00  0.00    +0.000 N 
ATOM     15  C   UNL     1       4.302   4.391  18.926  0.00  0.00    +0.000 A 
ATOM     16  H   UNL     1       5.512   2.841  18.264  0.00  0.00    +0.000 HD
ENDROOT
BRANCH   1  17
ATOM     17  C   UNL     1       5.285   5.273  16.790  0.00  0.00    +0.000 C 
BRANCH  17  18
ATOM     18  C   UNL     1       6.706   5.847  16.995  0.00  0.00    +0.000 C 
BRANCH  18  20
ATOM     19  C   UNL     1       7.060   4.870  14.842  0.00  0.00    +0.000 C 
ATOM     20  O   UNL     1       7.459   5.858  15.784  0.00  0.00    +0.000 OA
ENDBRANCH  18  20
BRANCH  18  21
ATOM     21  O   UNL     1       7.350   5.030  17.995  0.00  0.00    +0.000 OA
ATOM     22  C   UNL     1       7.801   5.766  19.129  0.00  0.00    +0.000 C 
ENDBRANCH  18  21
ENDBRANCH  17  18
ENDBRANCH   1  17
BRANCH   5  23
ATOM     23  O   UNL     1       0.758   9.028  19.969  0.00  0.00    +0.000 OA
BRANCH  23  24
ATOM     24  C   UNL     1       1.003   9.961  20.984  0.00  0.00    +0.000 C 
ATOM     25  C   UNL     1       0.742  11.352  20.481  0.00  0.00    +0.000 C 
ATOM     26  O   UNL     1       1.360   9.723  22.130  0.00  0.00    +0.000 OA
ENDBRANCH  23  24
ENDBRANCH   5  23
TORSDOF 6
ENDMDL
MODEL 6
REMARK VINA RESULT:      -7.5      1.599      5.873
REMARK  Name = 
REMARK  9 active torsions:
REMARK  status: ('A' for Active; 'I' for Inactive)
REMARK    1  A    between atoms: C_1  and  O_2
REMARK    2  A    between atoms: O_2  and  C_3
REMARK    3  A    between atoms: C_3  and  C_4
REMARK    4  A    between atoms: C_3  and  O_24
REMARK    5  A    between atoms: C_4  and  N_5
REMARK    6  A    between atoms: C_9  and  O_10
REMARK    7  A    between atoms: O_10  and  C_11
REMARK    8  A    between atoms: C_11  and  C_12
REMARK    9  A    between atoms: O_24  and  C_25
REMARK                            x       y       z     vdW  Elec       q    Type
REMARK                         _______ _______ _______ _____ _____    ______ ____
ROOT
ATOM      1  N   UNL     1       2.511   5.736  18.959  0.00  0.00    +0.000 N 
ATOM      2  C   UNL     1       3.596   5.755  18.095  0.00  0.00    +0.000 A 
ATOM      3  C   UNL     1       3.983   6.693  17.125  0.00  0.00    +0.000 A 
ATOM      4  C   UNL     1       5.177   6.486  16.428  0.00  0.00    +0.000 A 
ATOM      5  C   UNL     1       5.945   5.356  16.662  0.00  0.00    +0.000 A 
ATOM      6  C   UNL     1       5.558   4.410  17.625  0.00  0.00    +0.000 A 
ATOM      7  C   UNL     1       4.369   4.612  18.367  0.00  0.00    +0.000 A 
ATOM      8  C   UNL     1       3.712   3.907  19.423  0.00  0.00    +0.000 A 
ATOM      9  C   UNL     1       4.047   2.716  20.162  0.00  0.00    +0.000 A 
ATOM     10  O   UNL     1       5.045   2.057  19.902  0.00  0.00    +0.000 OA
ATOM     11  O   UNL     1       3.227   2.339  21.183  0.00  0.00    +0.000 OA
ATOM     12  C   UNL     1       2.123   3.058  21.500  0.00  0.00    +0.000 A 
ATOM     13  O   UNL     1       1.389   2.799  22.436  0.00  0.00    +0.000 OA
ATOM     14  N   UNL     1       1.774   4.183  20.722  0.00  0.00    +0.000 N 
ATOM     15  C   UNL     1       2.589   4.608  19.722  0.00  0.00    +0.000 A 
ATOM     16  H   UNL     1       0.993   4.757  21.039  0.00  0.00    +0.000 HD
ENDROOT
BRANCH   1  17
ATOM     17  C   UNL     1       1.501   6.783  19.097  0.00  0.00    +0.000 C 
BRANCH  17  18
ATOM     18  C   UNL     1       1.961   7.962  19.984  0.00  0.00    +0.000 C 
BRANCH  18  20
ATOM     19  C   UNL     1       1.218   8.991  22.010  0.00  0.00    +0.000 C 
ATOM     20  O   UNL     1       1.584   7.786  21.348  0.00  0.00    +0.000 OA
ENDBRANCH  18  20
BRANCH  18  21
ATOM     21  O   UNL     1       1.370   9.158  19.435  0.00  0.00    +0.000 OA
ATOM     22  C   UNL     1       1.753   9.418  18.087  0.00  0.00    +0.000 C 
ENDBRANCH  18  21
ENDBRANCH  17  18
ENDBRANCH   1  17
BRANCH   5  23
ATOM     23  O   UNL     1       7.149   5.060  15.960  0.00  0.00    +0.000 OA
BRANCH  23  24
ATOM     24  C   UNL     1       7.297   4.969  14.571  0.00  0.00    +0.000 C 
ATOM     25  C   UNL     1       6.337   3.957  14.015  0.00  0.00    +0.000 C 
ATOM     26  O   UNL     1       8.068   5.612  13.871  0.00  0.00    +0.000 OA
ENDBRANCH  23  24
ENDBRANCH   5  23
TORSDOF 6
ENDMDL
MODEL 7
REMARK VINA RESULT:      -7.4      1.932      5.815
REMARK  Name = 
REMARK  9 active torsions:
REMARK  status: ('A' for Active; 'I' for Inactive)
REMARK    1  A    between atoms: C_1  and  O_2
REMARK    2  A    between atoms: O_2  and  C_3
REMARK    3  A    between atoms: C_3  and  C_4
REMARK    4  A    between atoms: C_3  and  O_24
REMARK    5  A    between atoms: C_4  and  N_5
REMARK    6  A    between atoms: C_9  and  O_10
REMARK    7  A    between atoms: O_10  and  C_11
REMARK    8  A    between atoms: C_11  and  C_12
REMARK    9  A    between atoms: O_24  and  C_25
REMARK                            x       y       z     vdW  Elec       q    Type
REMARK                         _______ _______ _______ _____ _____    ______ ____
ROOT
ATOM      1  N   UNL     1       3.243   5.917  18.902  0.00  0.00    +0.000 N 
ATOM      2  C   UNL     1       3.960   5.675  17.740  0.00  0.00    +0.000 A 
ATOM      3  C   UNL     1       4.551   6.558  16.822  0.00  0.00    +0.000 A 
ATOM      4  C   UNL     1       5.279   6.030  15.754  0.00  0.00    +0.000 A 
ATOM      5  C   UNL     1       5.385   4.658  15.579  0.00  0.00    +0.000 A 
ATOM      6  C   UNL     1       4.790   3.770  16.490  0.00  0.00    +0.000 A 
ATOM      7  C   UNL     1       4.073   4.280  17.599  0.00  0.00    +0.000 A 
ATOM      8  C   UNL     1       3.399   3.694  18.715  0.00  0.00    +0.000 A 
ATOM      9  C   UNL     1       3.226   2.331  19.149  0.00  0.00    +0.000 A 
ATOM     10  O   UNL     1       3.655   1.388  18.496  0.00  0.00    +0.000 OA
ATOM     11  O   UNL     1       2.577   2.105  20.326  0.00  0.00    +0.000 OA
ATOM     12  C   UNL     1       2.103   3.131  21.074  0.00  0.00    +0.000 A 
ATOM     13  O   UNL     1       1.569   2.991  22.158  0.00  0.00    +0.000 OA
ATOM     14  N   UNL     1       2.221   4.456  20.601  0.00  0.00    +0.000 N 
ATOM     15  C   UNL     1       2.895   4.718  19.450  0.00  0.00    +0.000 A 
ATOM     16  H   UNL     1       1.940   5.211  21.225  0.00  0.00    +0.000 HD
ENDROOT
BRANCH   1  17
ATOM     17  C   UNL     1       2.976   7.227  19.492  0.00  0.00    +0.000 C 
BRANCH  17  18
ATOM     18  C   UNL     1       1.765   7.947  18.856  0.00  0.00    +0.000 C 
BRANCH  18  20
ATOM     19  C   UNL     1       1.983  10.146  17.942  0.00  0.00    +0.000 C 
ATOM     20  O   UNL     1       2.145   8.747  17.738  0.00  0.00    +0.000 OA
ENDBRANCH  18  20
BRANCH  18  21
ATOM     21  O   UNL     1       1.165   8.756  19.889  0.00  0.00    +0.000 OA
ATOM     22  C   UNL     1       1.195   8.149  21.178  0.00  0.00    +0.000 C 
ENDBRANCH  18  21
ENDBRANCH  17  18
ENDBRANCH   1  17
BRANCH   5  23
ATOM     23  O   UNL     1       6.075   4.051  14.492  0.00  0.00    +0.000 OA
BRANCH  23  24
ATOM     24  C   UNL     1       7.050   4.655  13.687  0.00  0.00    +0.000 C 
ATOM     25  C   UNL     1       6.932   4.160  12.274  0.00  0.00    +0.000 C 
ATOM     26  O   UNL     1       7.881   5.483  14.037  0.00  0.00    +0.000 OA
ENDBRANCH  23  24
ENDBRANCH   5  23
TORSDOF 6
ENDMDL
MODEL 8
REMARK VINA RESULT:      -7.4      1.829      6.340
REMARK  Name = 
REMARK  9 active torsions:
REMARK  status: ('A' for Active; 'I' for Inactive)
REMARK    1  A    between atoms: C_1  and  O_2
REMARK    2  A    between atoms: O_2  and  C_3
REMARK    3  A    between atoms: C_3  and  C_4
REMARK    4  A    between atoms: C_3  and  O_24
REMARK    5  A    between atoms: C_4  and  N_5
REMARK    6  A    between atoms: C_9  and  O_10
REMARK    7  A    between atoms: O_10  and  C_11
REMARK    8  A    between atoms: C_11  and  C_12
REMARK    9  A    between atoms: O_24  and  C_25
REMARK                            x       y       z     vdW  Elec       q    Type
REMARK                         _______ _______ _______ _____ _____    ______ ____
ROOT
ATOM      1  N   UNL     1       2.890   5.599  19.934  0.00  0.00    +0.000 N 
ATOM      2  C   UNL     1       3.655   5.453  18.786  0.00  0.00    +0.000 A 
ATOM      3  C   UNL     1       4.436   4.379  18.330  0.00  0.00    +0.000 A 
ATOM      4  C   UNL     1       5.061   4.482  17.085  0.00  0.00    +0.000 A 
ATOM      5  C   UNL     1       4.945   5.639  16.329  0.00  0.00    +0.000 A 
ATOM      6  C   UNL     1       4.171   6.720  16.784  0.00  0.00    +0.000 A 
ATOM      7  C   UNL     1       3.502   6.628  18.028  0.00  0.00    +0.000 A 
ATOM      8  C   UNL     1       2.621   7.483  18.760  0.00  0.00    +0.000 A 
ATOM      9  C   UNL     1       2.050   8.775  18.475  0.00  0.00    +0.000 A 
ATOM     10  O   UNL     1       2.330   9.392  17.456  0.00  0.00    +0.000 OA
ATOM     11  O   UNL     1       1.165   9.301  19.369  0.00  0.00    +0.000 OA
ATOM     12  C   UNL     1       0.829   8.633  20.500  0.00  0.00    +0.000 A 
ATOM     13  O   UNL     1       0.004   9.029  21.301  0.00  0.00    +0.000 OA
ATOM     14  N   UNL     1       1.450   7.400  20.795  0.00  0.00    +0.000 N 
ATOM     15  C   UNL     1       2.306   6.831  19.908  0.00  0.00    +0.000 A 
ATOM     16  H   UNL     1       1.110   6.878  21.602  0.00  0.00    +0.000 HD
ENDROOT
BRANCH   1  17
ATOM     17  C   UNL     1       2.673   4.580  20.958  0.00  0.00    +0.000 C 
BRANCH  17  18
ATOM     18  C   UNL     1       2.702   3.138  20.402  0.00  0.00    +0.000 C 
BRANCH  18  20
ATOM     19  C   UNL     1       0.914   2.557  18.924  0.00  0.00    +0.000 C 
ATOM     20  O   UNL     1       1.392   2.591  20.264  0.00  0.00    +0.000 OA
ENDBRANCH  18  20
BRANCH  18  21
ATOM     21  O   UNL     1       3.498   2.351  21.312  0.00  0.00    +0.000 OA
ATOM     22  C   UNL     1       4.642   1.758  20.704  0.00  0.00    +0.000 C 
ENDBRANCH  18  21
ENDBRANCH  17  18
ENDBRANCH   1  17
BRANCH   5  23
ATOM     23  O   UNL     1       5.588   5.830  15.073  0.00  0.00    +0.000 OA
BRANCH  23  24
ATOM     24  C   UNL     1       6.656   5.079  14.566  0.00  0.00    +0.000 C 
ATOM     25  C   UNL     1       6.138   3.945  13.728  0.00  0.00    +0.000 C 
ATOM     26  O   UNL     1       7.849   5.290  14.738  0.00  0.00    +0.000 OA
ENDBRANCH  23  24
ENDBRANCH   5  23
TORSDOF 6
ENDMDL
MODEL 9
REMARK VINA RESULT:      -7.3      1.141      1.735
REMARK  Name = 
REMARK  9 active torsions:
REMARK  status: ('A' for Active; 'I' for Inactive)
REMARK    1  A    between atoms: C_1  and  O_2
REMARK    2  A    between atoms: O_2  and  C_3
REMARK    3  A    between atoms: C_3  and  C_4
REMARK    4  A    between atoms: C_3  and  O_24
REMARK    5  A    between atoms: C_4  and  N_5
REMARK    6  A    between atoms: C_9  and  O_10
REMARK    7  A    between atoms: O_10  and  C_11
REMARK    8  A    between atoms: C_11  and  C_12
REMARK    9  A    between atoms: O_24  and  C_25
REMARK                            x       y       z     vdW  Elec       q    Type
REMARK                         _______ _______ _______ _____ _____    ______ ____
ROOT
ATOM      1  N   UNL     1       4.133   5.324  17.407  0.00  0.00    +0.000 N 
ATOM      2  C   UNL     1       3.478   6.429  17.930  0.00  0.00    +0.000 A 
ATOM      3  C   UNL     1       3.398   7.754  17.472  0.00  0.00    +0.000 A 
ATOM      4  C   UNL     1       2.603   8.662  18.176  0.00  0.00    +0.000 A 
ATOM      5  C   UNL     1       1.937   8.274  19.328  0.00  0.00    +0.000 A 
ATOM      6  C   UNL     1       2.020   6.952  19.796  0.00  0.00    +0.000 A 
ATOM      7  C   UNL     1       2.794   6.004  19.083  0.00  0.00    +0.000 A 
ATOM      8  C   UNL     1       3.060   4.609  19.234  0.00  0.00    +0.000 A 
ATOM      9  C   UNL     1       2.599   3.619  20.175  0.00  0.00    +0.000 A 
ATOM     10  O   UNL     1       1.863   3.913  21.108  0.00  0.00    +0.000 OA
ATOM     11  O   UNL     1       2.991   2.326  19.997  0.00  0.00    +0.000 OA
ATOM     12  C   UNL     1       3.795   1.972  18.965  0.00  0.00    +0.000 A 
ATOM     13  O   UNL     1       4.128   0.827  18.726  0.00  0.00    +0.000 OA
ATOM     14  N   UNL     1       4.292   2.965  18.092  0.00  0.00    +0.000 N 
ATOM     15  C   UNL     1       3.890   4.256  18.220  0.00  0.00    +0.000 A 
ATOM     16  H   UNL     1       4.816   2.659  17.274  0.00  0.00    +0.000 HD
ENDROOT
BRANCH   1  17
ATOM     17  C   UNL     1       4.884   5.282  16.155  0.00  0.00    +0.000 C 
BRANCH  17  18
ATOM     18  C   UNL     1       6.392   5.005  16.356  0.00  0.00    +0.000 C 
BRANCH  18  20
ATOM     19  C   UNL     1       7.388   6.948  17.330  0.00  0.00    +0.000 C 
ATOM     20  O   UNL     1       7.183   6.174  16.154  0.00  0.00    +0.000 OA
ENDBRANCH  18  20
BRANCH  18  21
ATOM     21  O   UNL     1       6.757   3.966  15.424  0.00  0.00    +0.000 OA
ATOM     22  C   UNL     1       6.569   4.331  14.060  0.00  0.00    +0.000 C 
ENDBRANCH  18  21
ENDBRANCH  17  18
ENDBRANCH   1  17
BRANCH   5  23
ATOM     23  O   UNL     1       1.145   9.156  20.118  0.00  0.00    +0.000 OA
BRANCH  23  24
ATOM     24  C   UNL     1       0.359  10.213  19.644  0.00  0.00    +0.000 C 
ATOM     25  C   UNL     1       0.798  11.505  20.271  0.00  0.00    +0.000 C 
ATOM     26  O   UNL     1      -0.549  10.144  18.826  0.00  0.00    +0.000 OA
ENDBRANCH  23  24
ENDBRANCH   5  23
TORSDOF 6
ENDMDL
