MODEL 1
REMARK VINA RESULT:      -8.4      0.000      0.000
REMARK  Name = 
REMARK  8 active torsions:
REMARK  status: ('A' for Active; 'I' for Inactive)
REMARK    1  A    between atoms: C_1  and  C_2
REMARK    2  A    between atoms: C_2  and  C_3
REMARK    3  A    between atoms: C_2  and  C_4
REMARK    4  A    between atoms: C_2  and  N_5
REMARK    5  A    between atoms: N_7  and  C_8
REMARK    6  A    between atoms: N_7  and  C_22
REMARK    7  A    between atoms: C_9  and  C_10
REMARK    8  A    between atoms: C_9  and  C_16
REMARK                            x       y       z     vdW  Elec       q    Type
REMARK                         _______ _______ _______ _____ _____    ______ ____
ROOT
ATOM      1  C   UNL     1       4.350   5.265  17.679  0.00  0.00    +0.000 C 
ATOM      2  C   UNL     1       3.280   5.709  18.426  0.00  0.00    +0.000 C 
ENDROOT
BRANCH   2   3
ATOM      3  C   UNL     1       2.626   7.096  18.559  0.00  0.00    +0.000 A 
ATOM      4  C   UNL     1       2.013   7.494  19.777  0.00  0.00    +0.000 A 
ATOM      5  C   UNL     1       1.435   8.762  19.975  0.00  0.00    +0.000 A 
ATOM      6  C   UNL     1       1.429   9.702  18.944  0.00  0.00    +0.000 A 
ATOM      7  C   UNL     1       2.043   9.361  17.745  0.00  0.00    +0.000 A 
ATOM      8  C   UNL     1       2.644   8.093  17.572  0.00  0.00    +0.000 A 
ENDBRANCH   2   3
BRANCH   2   9
ATOM      9  C   UNL     1       2.691   4.533  19.175  0.00  0.00    +0.000 A 
ATOM     10  C   UNL     1       1.625   3.803  18.622  0.00  0.00    +0.000 A 
ATOM     11  C   UNL     1       0.949   2.839  19.381  0.00  0.00    +0.000 A 
ATOM     12  C   UNL     1       1.347   2.572  20.687  0.00  0.00    +0.000 A 
ATOM     13  C   UNL     1       2.435   3.255  21.234  0.00  0.00    +0.000 A 
ATOM     14  C   UNL     1       3.103   4.232  20.482  0.00  0.00    +0.000 A 
ENDBRANCH   2   9
BRANCH   1  17
ATOM     15  N   UNL     1       5.275   5.705  14.368  0.00  0.00    +0.000 NA
ATOM     16  C   UNL     1       4.988   6.168  15.531  0.00  0.00    +0.000 C 
ATOM     17  N   UNL     1       5.343   5.775  16.808  0.00  0.00    +0.000 N 
BRANCH  17  18
ATOM     18  C   UNL     1       6.845   5.720  17.034  0.00  0.00    +0.000 C 
ATOM     19  C   UNL     1       7.603   7.021  16.746  0.00  0.00    +0.000 C 
ATOM     20  C   UNL     1       7.782   7.887  17.964  0.00  0.00    +0.000 C 
ATOM     21  C   UNL     1       8.394   7.125  19.129  0.00  0.00    +0.000 C 
ATOM     22  C   UNL     1       7.688   5.807  19.444  0.00  0.00    +0.000 C 
ATOM     23  C   UNL     1       7.421   4.953  18.219  0.00  0.00    +0.000 C 
ENDBRANCH  17  18
BRANCH  15  25
ATOM     24  C   UNL     1       5.859   3.397  15.245  0.00  0.00    +0.000 C 
ATOM     25  C   UNL     1       6.074   4.489  14.162  0.00  0.00    +0.000 C 
ATOM     26  C   UNL     1       7.534   4.920  13.872  0.00  0.00    +0.000 C 
ATOM     27  C   UNL     1       5.499   3.839  12.896  0.00  0.00    +0.000 C 
ENDBRANCH  15  25
ENDBRANCH   1  17
TORSDOF 5
ENDMDL
MODEL 2
REMARK VINA RESULT:      -8.0      0.216      1.310
REMARK  Name = 
REMARK  8 active torsions:
REMARK  status: ('A' for Active; 'I' for Inactive)
REMARK    1  A    between atoms: C_1  and  C_2
REMARK    2  A    between atoms: C_2  and  C_3
REMARK    3  A    between atoms: C_2  and  C_4
REMARK    4  A    between atoms: C_2  and  N_5
REMARK    5  A    between atoms: N_7  and  C_8
REMARK    6  A    between atoms: N_7  and  C_22
REMARK    7  A    between atoms: C_9  and  C_10
REMARK    8  A    between atoms: C_9  and  C_16
REMARK                            x       y       z     vdW  Elec       q    Type
REMARK                         _______ _______ _______ _____ _____    ______ ____
ROOT
ATOM      1  C   UNL     1       4.258   5.295  17.692  0.00  0.00    +0.000 C 
ATOM      2  C   UNL     1       3.203   5.760  18.448  0.00  0.00    +0.000 C 
ENDROOT
BRANCH   2   3
ATOM      3  C   UNL     1       2.612   7.170  18.627  0.00  0.00    +0.000 A 
ATOM      4  C   UNL     1       2.590   8.088  17.544  0.00  0.00    +0.000 A 
ATOM      5  C   UNL     1       2.027   9.376  17.631  0.00  0.00    +0.000 A 
ATOM      6  C   UNL     1       1.463   9.818  18.829  0.00  0.00    +0.000 A 
ATOM      7  C   UNL     1       1.441   8.938  19.905  0.00  0.00    +0.000 A 
ATOM      8  C   UNL     1       1.985   7.639  19.791  0.00  0.00    +0.000 A 
ENDBRANCH   2   3
BRANCH   2   9
ATOM      9  C   UNL     1       2.554   4.586  19.148  0.00  0.00    +0.000 A 
ATOM     10  C   UNL     1       2.786   4.360  20.515  0.00  0.00    +0.000 A 
ATOM     11  C   UNL     1       2.348   3.179  21.129  0.00  0.00    +0.000 A 
ATOM     12  C   UNL     1       1.650   2.226  20.393  0.00  0.00    +0.000 A 
ATOM     13  C   UNL     1       1.371   2.458  19.045  0.00  0.00    +0.000 A 
ATOM     14  C   UNL     1       1.821   3.632  18.425  0.00  0.00    +0.000 A 
ENDBRANCH   2   9
BRANCH   1  17
ATOM     15  N   UNL     1       5.249   5.775  14.406  0.00  0.00    +0.000 NA
ATOM     16  C   UNL     1       4.960   6.222  15.574  0.00  0.00    +0.000 C 
ATOM     17  N   UNL     1       5.281   5.790  16.848  0.00  0.00    +0.000 N 
BRANCH  17  18
ATOM     18  C   UNL     1       6.777   5.680  17.095  0.00  0.00    +0.000 C 
ATOM     19  C   UNL     1       7.591   6.941  16.781  0.00  0.00    +0.000 C 
ATOM     20  C   UNL     1       7.791   7.833  17.977  0.00  0.00    +0.000 C 
ATOM     21  C   UNL     1       8.357   7.079  19.170  0.00  0.00    +0.000 C 
ATOM     22  C   UNL     1       7.593   5.801  19.512  0.00  0.00    +0.000 C 
ATOM     23  C   UNL     1       7.307   4.924  18.308  0.00  0.00    +0.000 C 
ENDBRANCH  17  18
BRANCH  15  25
ATOM     24  C   UNL     1       5.803   3.460  15.284  0.00  0.00    +0.000 C 
ATOM     25  C   UNL     1       6.011   4.537  14.186  0.00  0.00    +0.000 C 
ATOM     26  C   UNL     1       7.471   4.929  13.845  0.00  0.00    +0.000 C 
ATOM     27  C   UNL     1       5.381   3.893  12.943  0.00  0.00    +0.000 C 
ENDBRANCH  15  25
ENDBRANCH   1  17
TORSDOF 5
ENDMDL
MODEL 3
REMARK VINA RESULT:      -7.6      0.177      1.263
REMARK  Name = 
REMARK  8 active torsions:
REMARK  status: ('A' for Active; 'I' for Inactive)
REMARK    1  A    between atoms: C_1  and  C_2
REMARK    2  A    between atoms: C_2  and  C_3
REMARK    3  A    between atoms: C_2  and  C_4
REMARK    4  A    between atoms: C_2  and  N_5
REMARK    5  A    between atoms: N_7  and  C_8
REMARK    6  A    between atoms: N_7  and  C_22
REMARK    7  A    between atoms: C_9  and  C_10
REMARK    8  A    between atoms: C_9  and  C_16
REMARK                            x       y       z     vdW  Elec       q    Type
REMARK                         _______ _______ _______ _____ _____    ______ ____
ROOT
ATOM      1  C   UNL     1       4.285   5.221  17.795  0.00  0.00    +0.000 C 
ATOM      2  C   UNL     1       3.248   5.697  18.567  0.00  0.00    +0.000 C 
ENDROOT
BRANCH   2   3
ATOM      3  C   UNL     1       2.637   7.103  18.712  0.00  0.00    +0.000 A 
ATOM      4  C   UNL     1       2.627   8.004  17.615  0.00  0.00    +0.000 A 
ATOM      5  C   UNL     1       2.048   9.287  17.670  0.00  0.00    +0.000 A 
ATOM      6  C   UNL     1       1.454   9.740  18.848  0.00  0.00    +0.000 A 
ATOM      7  C   UNL     1       1.419   8.877  19.937  0.00  0.00    +0.000 A 
ATOM      8  C   UNL     1       1.980   7.582  19.856  0.00  0.00    +0.000 A 
ENDBRANCH   2   3
BRANCH   2   9
ATOM      9  C   UNL     1       2.643   4.541  19.333  0.00  0.00    +0.000 A 
ATOM     10  C   UNL     1       1.580   3.805  18.783  0.00  0.00    +0.000 A 
ATOM     11  C   UNL     1       0.890   2.860  19.554  0.00  0.00    +0.000 A 
ATOM     12  C   UNL     1       1.272   2.619  20.870  0.00  0.00    +0.000 A 
ATOM     13  C   UNL     1       2.357   3.307  21.415  0.00  0.00    +0.000 A 
ATOM     14  C   UNL     1       3.039   4.265  20.651  0.00  0.00    +0.000 A 
ENDBRANCH   2   9
BRANCH   1  17
ATOM     15  N   UNL     1       5.167   5.578  14.462  0.00  0.00    +0.000 NA
ATOM     16  C   UNL     1       4.902   6.069  15.618  0.00  0.00    +0.000 C 
ATOM     17  N   UNL     1       5.271   5.701  16.899  0.00  0.00    +0.000 N 
BRANCH  17  18
ATOM     18  C   UNL     1       6.776   5.634  17.104  0.00  0.00    +0.000 C 
ATOM     19  C   UNL     1       7.546   6.915  16.762  0.00  0.00    +0.000 C 
ATOM     20  C   UNL     1       7.754   7.818  17.948  0.00  0.00    +0.000 C 
ATOM     21  C   UNL     1       8.374   7.088  19.128  0.00  0.00    +0.000 C 
ATOM     22  C   UNL     1       7.656   5.790  19.497  0.00  0.00    +0.000 C 
ATOM     23  C   UNL     1       7.361   4.899  18.305  0.00  0.00    +0.000 C 
ENDBRANCH  17  18
BRANCH  15  25
ATOM     24  C   UNL     1       5.738   3.668  12.893  0.00  0.00    +0.000 C 
ATOM     25  C   UNL     1       5.949   4.348  14.272  0.00  0.00    +0.000 C 
ATOM     26  C   UNL     1       5.765   3.465  15.533  0.00  0.00    +0.000 C 
ATOM     27  C   UNL     1       7.413   4.807  14.213  0.00  0.00    +0.000 C 
ENDBRANCH  15  25
ENDBRANCH   1  17
TORSDOF 5
ENDMDL
MODEL 4
REMARK VINA RESULT:      -7.4      1.147      3.601
REMARK  Name = 
REMARK  8 active torsions:
REMARK  status: ('A' for Active; 'I' for Inactive)
REMARK    1  A    between atoms: C_1  and  C_2
REMARK    2  A    between atoms: C_2  and  C_3
REMARK    3  A    between atoms: C_2  and  C_4
REMARK    4  A    between atoms: C_2  and  N_5
REMARK    5  A    between atoms: N_7  and  C_8
REMARK    6  A    between atoms: N_7  and  C_22
REMARK    7  A    between atoms: C_9  and  C_10
REMARK    8  A    between atoms: C_9  and  C_16
REMARK                            x       y       z     vdW  Elec       q    Type
REMARK                         _______ _______ _______ _____ _____    ______ ____
ROOT
ATOM      1  C   UNL     1       4.368   6.883  17.448  0.00  0.00    +0.000 C 
ATOM      2  C   UNL     1       3.454   6.118  18.140  0.00  0.00    +0.000 C 
ENDROOT
BRANCH   2   3
ATOM      3  C   UNL     1       3.299   4.595  18.296  0.00  0.00    +0.000 A 
ATOM      4  C   UNL     1       4.180   3.860  19.133  0.00  0.00    +0.000 A 
ATOM      5  C   UNL     1       4.067   2.474  19.351  0.00  0.00    +0.000 A 
ATOM      6  C   UNL     1       3.059   1.742  18.720  0.00  0.00    +0.000 A 
ATOM      7  C   UNL     1       2.160   2.429  17.913  0.00  0.00    +0.000 A 
ATOM      8  C   UNL     1       2.271   3.826  17.729  0.00  0.00    +0.000 A 
ENDBRANCH   2   3
BRANCH   2   9
ATOM      9  C   UNL     1       2.509   7.042  18.878  0.00  0.00    +0.000 A 
ATOM     10  C   UNL     1       2.110   8.258  18.299  0.00  0.00    +0.000 A 
ATOM     11  C   UNL     1       1.393   9.204  19.044  0.00  0.00    +0.000 A 
ATOM     12  C   UNL     1       1.041   8.934  20.363  0.00  0.00    +0.000 A 
ATOM     13  C   UNL     1       1.389   7.709  20.937  0.00  0.00    +0.000 A 
ATOM     14  C   UNL     1       2.120   6.768  20.198  0.00  0.00    +0.000 A 
ENDBRANCH   2   9
BRANCH   1  17
ATOM     15  N   UNL     1       5.332   5.892  14.270  0.00  0.00    +0.000 NA
ATOM     16  C   UNL     1       5.245   6.773  15.200  0.00  0.00    +0.000 C 
ATOM     17  N   UNL     1       5.462   6.720  16.565  0.00  0.00    +0.000 N 
BRANCH  17  18
ATOM     18  C   UNL     1       6.854   6.239  16.942  0.00  0.00    +0.000 C 
ATOM     19  C   UNL     1       7.933   7.327  17.005  0.00  0.00    +0.000 C 
ATOM     20  C   UNL     1       8.115   7.904  18.383  0.00  0.00    +0.000 C 
ATOM     21  C   UNL     1       8.338   6.828  19.434  0.00  0.00    +0.000 C 
ATOM     22  C   UNL     1       7.300   5.706  19.399  0.00  0.00    +0.000 C 
ATOM     23  C   UNL     1       7.038   5.164  18.007  0.00  0.00    +0.000 C 
ENDBRANCH  17  18
BRANCH  15  25
ATOM     24  C   UNL     1       4.752   3.813  15.604  0.00  0.00    +0.000 C 
ATOM     25  C   UNL     1       5.651   4.481  14.529  0.00  0.00    +0.000 C 
ATOM     26  C   UNL     1       7.186   4.365  14.718  0.00  0.00    +0.000 C 
ATOM     27  C   UNL     1       5.264   3.738  13.243  0.00  0.00    +0.000 C 
ENDBRANCH  15  25
ENDBRANCH   1  17
TORSDOF 5
ENDMDL
MODEL 5
REMARK VINA RESULT:      -7.1      5.223      9.556
REMARK  Name = 
REMARK  8 active torsions:
REMARK  status: ('A' for Active; 'I' for Inactive)
REMARK    1  A    between atoms: C_1  and  C_2
REMARK    2  A    between atoms: C_2  and  C_3
REMARK    3  A    between atoms: C_2  and  C_4
REMARK    4  A    between atoms: C_2  and  N_5
REMARK    5  A    between atoms: N_7  and  C_8
REMARK    6  A    between atoms: N_7  and  C_22
REMARK    7  A    between atoms: C_9  and  C_10
REMARK    8  A    between atoms: C_9  and  C_16
REMARK                            x       y       z     vdW  Elec       q    Type
REMARK                         _______ _______ _______ _____ _____    ______ ____
ROOT
ATOM      1  C   UNL     1       0.565  12.070  19.491  0.00  0.00    +0.000 C 
ATOM      2  C   UNL     1      -0.049  10.964  18.944  0.00  0.00    +0.000 C 
ENDROOT
BRANCH   2   3
ATOM      3  C   UNL     1      -1.419  10.781  18.266  0.00  0.00    +0.000 A 
ATOM      4  C   UNL     1      -2.539  11.549  18.679  0.00  0.00    +0.000 A 
ATOM      5  C   UNL     1      -3.807  11.459  18.074  0.00  0.00    +0.000 A 
ATOM      6  C   UNL     1      -4.021  10.571  17.019  0.00  0.00    +0.000 A 
ATOM      7  C   UNL     1      -2.942   9.820  16.567  0.00  0.00    +0.000 A 
ATOM      8  C   UNL     1      -1.669   9.944  17.168  0.00  0.00    +0.000 A 
ENDBRANCH   2   3
BRANCH   2   9
ATOM      9  C   UNL     1       0.899   9.788  19.036  0.00  0.00    +0.000 A 
ATOM     10  C   UNL     1       1.610   9.360  17.902  0.00  0.00    +0.000 A 
ATOM     11  C   UNL     1       2.340   8.165  17.925  0.00  0.00    +0.000 A 
ATOM     12  C   UNL     1       2.394   7.401  19.087  0.00  0.00    +0.000 A 
ATOM     13  C   UNL     1       1.733   7.838  20.236  0.00  0.00    +0.000 A 
ATOM     14  C   UNL     1       0.988   9.026  20.211  0.00  0.00    +0.000 A 
ENDBRANCH   2   9
BRANCH   1  17
ATOM     15  N   UNL     1       1.705  15.326  19.160  0.00  0.00    +0.000 NA
ATOM     16  C   UNL     1       0.829  14.411  18.954  0.00  0.00    +0.000 C 
ATOM     17  N   UNL     1       0.289  13.431  19.767  0.00  0.00    +0.000 N 
BRANCH  17  18
ATOM     18  C   UNL     1      -0.356  13.976  21.031  0.00  0.00    +0.000 C 
ATOM     19  C   UNL     1      -1.599  14.847  20.814  0.00  0.00    +0.000 C 
ATOM     20  C   UNL     1      -2.887  14.072  20.883  0.00  0.00    +0.000 C 
ATOM     21  C   UNL     1      -2.995  13.243  22.153  0.00  0.00    +0.000 C 
ATOM     22  C   UNL     1      -1.770  12.372  22.428  0.00  0.00    +0.000 C 
ATOM     23  C   UNL     1      -0.454  13.111  22.283  0.00  0.00    +0.000 C 
ENDBRANCH  17  18
BRANCH  15  25
ATOM     24  C   UNL     1       2.969  14.140  21.012  0.00  0.00    +0.000 C 
ATOM     25  C   UNL     1       2.428  15.474  20.431  0.00  0.00    +0.000 C 
ATOM     26  C   UNL     1       1.569  16.359  21.369  0.00  0.00    +0.000 C 
ATOM     27  C   UNL     1       3.709  16.243  20.078  0.00  0.00    +0.000 C 
ENDBRANCH  15  25
ENDBRANCH   1  17
TORSDOF 5
ENDMDL
MODEL 6
REMARK VINA RESULT:      -7.0      5.732     10.618
REMARK  Name = 
REMARK  8 active torsions:
REMARK  status: ('A' for Active; 'I' for Inactive)
REMARK    1  A    between atoms: C_1  and  C_2
REMARK    2  A    between atoms: C_2  and  C_3
REMARK    3  A    between atoms: C_2  and  C_4
REMARK    4  A    between atoms: C_2  and  N_5
REMARK    5  A    between atoms: N_7  and  C_8
REMARK    6  A    between atoms: N_7  and  C_22
REMARK    7  A    between atoms: C_9  and  C_10
REMARK    8  A    between atoms: C_9  and  C_16
REMARK                            x       y       z     vdW  Elec       q    Type
REMARK                         _______ _______ _______ _____ _____    ______ ____
ROOT
ATOM      1  C   UNL     1      -1.734  11.745  20.002  0.00  0.00    +0.000 C 
ATOM      2  C   UNL     1      -1.297  10.769  19.132  0.00  0.00    +0.000 C 
ENDROOT
BRANCH   2   3
ATOM      3  C   UNL     1      -0.093   9.813  19.183  0.00  0.00    +0.000 A 
ATOM      4  C   UNL     1       0.749   9.647  18.052  0.00  0.00    +0.000 A 
ATOM      5  C   UNL     1       1.889   8.821  18.047  0.00  0.00    +0.000 A 
ATOM      6  C   UNL     1       2.238   8.097  19.189  0.00  0.00    +0.000 A 
ATOM      7  C   UNL     1       1.454   8.252  20.326  0.00  0.00    +0.000 A 
ATOM      8  C   UNL     1       0.329   9.109  20.321  0.00  0.00    +0.000 A 
ENDBRANCH   2   3
BRANCH   2   9
ATOM      9  C   UNL     1      -2.275  10.675  17.980  0.00  0.00    +0.000 A 
ATOM     10  C   UNL     1      -1.978   9.876  16.863  0.00  0.00    +0.000 A 
ATOM     11  C   UNL     1      -2.779   9.927  15.714  0.00  0.00    +0.000 A 
ATOM     12  C   UNL     1      -3.899  10.752  15.680  0.00  0.00    +0.000 A 
ATOM     13  C   UNL     1      -4.234  11.516  16.799  0.00  0.00    +0.000 A 
ATOM     14  C   UNL     1      -3.425  11.478  17.944  0.00  0.00    +0.000 A 
ENDBRANCH   2   9
BRANCH   1  17
ATOM     15  N   UNL     1      -2.224  11.886  23.430  0.00  0.00    +0.000 NA
ATOM     16  C   UNL     1      -1.478  11.693  22.404  0.00  0.00    +0.000 C 
ATOM     17  N   UNL     1      -1.336  12.372  21.207  0.00  0.00    +0.000 N 
BRANCH  17  18
ATOM     18  C   UNL     1      -0.980  13.840  21.378  0.00  0.00    +0.000 C 
ATOM     19  C   UNL     1       0.434  14.119  21.901  0.00  0.00    +0.000 C 
ATOM     20  C   UNL     1       1.440  14.341  20.804  0.00  0.00    +0.000 C 
ATOM     21  C   UNL     1       0.988  15.399  19.811  0.00  0.00    +0.000 C 
ATOM     22  C   UNL     1      -0.426  15.179  19.275  0.00  0.00    +0.000 C 
ATOM     23  C   UNL     1      -1.445  14.872  20.356  0.00  0.00    +0.000 C 
ENDBRANCH  17  18
BRANCH  15  25
ATOM     24  C   UNL     1      -4.113  13.081  22.227  0.00  0.00    +0.000 C 
ATOM     25  C   UNL     1      -3.232  12.954  23.500  0.00  0.00    +0.000 C 
ATOM     26  C   UNL     1      -2.531  14.240  24.007  0.00  0.00    +0.000 C 
ATOM     27  C   UNL     1      -4.232  12.494  24.569  0.00  0.00    +0.000 C 
ENDBRANCH  15  25
ENDBRANCH   1  17
TORSDOF 5
ENDMDL
MODEL 7
REMARK VINA RESULT:      -7.0      5.384      9.757
REMARK  Name = 
REMARK  8 active torsions:
REMARK  status: ('A' for Active; 'I' for Inactive)
REMARK    1  A    between atoms: C_1  and  C_2
REMARK    2  A    between atoms: C_2  and  C_3
REMARK    3  A    between atoms: C_2  and  C_4
REMARK    4  A    between atoms: C_2  and  N_5
REMARK    5  A    between atoms: N_7  and  C_8
REMARK    6  A    between atoms: N_7  and  C_22
REMARK    7  A    between atoms: C_9  and  C_10
REMARK    8  A    between atoms: C_9  and  C_16
REMARK                            x       y       z     vdW  Elec       q    Type
REMARK                         _______ _______ _______ _____ _____    ______ ____
ROOT
ATOM      1  C   UNL     1       0.012  11.935  19.596  0.00  0.00    +0.000 C 
ATOM      2  C   UNL     1      -0.533  10.881  18.895  0.00  0.00    +0.000 C 
ENDROOT
BRANCH   2   3
ATOM      3  C   UNL     1      -1.804  10.769  18.034  0.00  0.00    +0.000 A 
ATOM      4  C   UNL     1      -2.958  11.536  18.343  0.00  0.00    +0.000 A 
ATOM      5  C   UNL     1      -4.136  11.510  17.572  0.00  0.00    +0.000 A 
ATOM      6  C   UNL     1      -4.221  10.691  16.445  0.00  0.00    +0.000 A 
ATOM      7  C   UNL     1      -3.103   9.945  16.093  0.00  0.00    +0.000 A 
ATOM      8  C   UNL     1      -1.919  10.005  16.862  0.00  0.00    +0.000 A 
ENDBRANCH   2   3
BRANCH   2   9
ATOM      9  C   UNL     1       0.386   9.686  19.024  0.00  0.00    +0.000 A 
ATOM     10  C   UNL     1       0.539   9.040  20.263  0.00  0.00    +0.000 A 
ATOM     11  C   UNL     1       1.523   8.059  20.441  0.00  0.00    +0.000 A 
ATOM     12  C   UNL     1       2.343   7.691  19.379  0.00  0.00    +0.000 A 
ATOM     13  C   UNL     1       2.171   8.289  18.129  0.00  0.00    +0.000 A 
ATOM     14  C   UNL     1       1.198   9.283  17.953  0.00  0.00    +0.000 A 
ENDBRANCH   2   9
BRANCH   1  17
ATOM     15  N   UNL     1       1.028  15.234  19.299  0.00  0.00    +0.000 NA
ATOM     16  C   UNL     1       0.170  14.298  19.118  0.00  0.00    +0.000 C 
ATOM     17  N   UNL     1      -0.288  13.277  19.932  0.00  0.00    +0.000 N 
BRANCH  17  18
ATOM     18  C   UNL     1      -0.869  13.763  21.250  0.00  0.00    +0.000 C 
ATOM     19  C   UNL     1      -2.256  14.412  21.160  0.00  0.00    +0.000 C 
ATOM     20  C   UNL     1      -3.382  13.442  21.396  0.00  0.00    +0.000 C 
ATOM     21  C   UNL     1      -3.209  12.660  22.689  0.00  0.00    +0.000 C 
ATOM     22  C   UNL     1      -1.834  12.011  22.838  0.00  0.00    +0.000 C 
ATOM     23  C   UNL     1      -0.682  12.947  22.524  0.00  0.00    +0.000 C 
ENDBRANCH  17  18
BRANCH  15  25
ATOM     24  C   UNL     1       2.499  14.049  20.994  0.00  0.00    +0.000 C 
ATOM     25  C   UNL     1       1.825  15.368  20.527  0.00  0.00    +0.000 C 
ATOM     26  C   UNL     1       0.971  16.134  21.570  0.00  0.00    +0.000 C 
ATOM     27  C   UNL     1       3.020  16.249  20.139  0.00  0.00    +0.000 C 
ENDBRANCH  15  25
ENDBRANCH   1  17
TORSDOF 5
ENDMDL
MODEL 8
REMARK VINA RESULT:      -6.9      5.480     10.223
REMARK  Name = 
REMARK  8 active torsions:
REMARK  status: ('A' for Active; 'I' for Inactive)
REMARK    1  A    between atoms: C_1  and  C_2
REMARK    2  A    between atoms: C_2  and  C_3
REMARK    3  A    between atoms: C_2  and  C_4
REMARK    4  A    between atoms: C_2  and  N_5
REMARK    5  A    between atoms: N_7  and  C_8
REMARK    6  A    between atoms: N_7  and  C_22
REMARK    7  A    between atoms: C_9  and  C_10
REMARK    8  A    between atoms: C_9  and  C_16
REMARK                            x       y       z     vdW  Elec       q    Type
REMARK                         _______ _______ _______ _____ _____    ______ ____
ROOT
ATOM      1  C   UNL     1      -1.118  11.923  19.983  0.00  0.00    +0.000 C 
ATOM      2  C   UNL     1      -0.871  10.849  19.155  0.00  0.00    +0.000 C 
ENDROOT
BRANCH   2   3
ATOM      3  C   UNL     1       0.272   9.819  19.124  0.00  0.00    +0.000 A 
ATOM      4  C   UNL     1       0.583   9.046  20.274  0.00  0.00    +0.000 A 
ATOM      5  C   UNL     1       1.588   8.060  20.299  0.00  0.00    +0.000 A 
ATOM      6  C   UNL     1       2.352   7.807  19.159  0.00  0.00    +0.000 A 
ATOM      7  C   UNL     1       2.062   8.523  18.004  0.00  0.00    +0.000 A 
ATOM      8  C   UNL     1       1.030   9.489  17.989  0.00  0.00    +0.000 A 
ENDBRANCH   2   3
BRANCH   2   9
ATOM      9  C   UNL     1      -2.012  10.724  18.169  0.00  0.00    +0.000 A 
ATOM     10  C   UNL     1      -1.896   9.876  17.055  0.00  0.00    +0.000 A 
ATOM     11  C   UNL     1      -2.861   9.894  16.039  0.00  0.00    +0.000 A 
ATOM     12  C   UNL     1      -3.966  10.735  16.139  0.00  0.00    +0.000 A 
ATOM     13  C   UNL     1      -4.119  11.548  17.264  0.00  0.00    +0.000 A 
ATOM     14  C   UNL     1      -3.147  11.543  18.274  0.00  0.00    +0.000 A 
ENDBRANCH   2   9
BRANCH   1  17
ATOM     15  N   UNL     1      -1.336  12.710  23.351  0.00  0.00    +0.000 NA
ATOM     16  C   UNL     1      -0.722  12.190  22.351  0.00  0.00    +0.000 C 
ATOM     17  N   UNL     1      -0.511  12.621  21.054  0.00  0.00    +0.000 N 
BRANCH  17  18
ATOM     18  C   UNL     1       0.176  13.975  20.966  0.00  0.00    +0.000 C 
ATOM     19  C   UNL     1       1.687  13.966  21.223  0.00  0.00    +0.000 C 
ATOM     20  C   UNL     1       2.504  13.836  19.965  0.00  0.00    +0.000 C 
ATOM     21  C   UNL     1       2.117  14.868  18.918  0.00  0.00    +0.000 C 
ATOM     22  C   UNL     1       0.616  14.933  18.640  0.00  0.00    +0.000 C 
ATOM     23  C   UNL     1      -0.233  14.980  19.896  0.00  0.00    +0.000 C 
ENDBRANCH  17  18
BRANCH  15  25
ATOM     24  C   UNL     1      -3.024  14.084  22.047  0.00  0.00    +0.000 C 
ATOM     25  C   UNL     1      -2.072  13.980  23.269  0.00  0.00    +0.000 C 
ATOM     26  C   UNL     1      -1.059  15.134  23.478  0.00  0.00    +0.000 C 
ATOM     27  C   UNL     1      -3.039  13.962  24.461  0.00  0.00    +0.000 C 
ENDBRANCH  15  25
ENDBRANCH   1  17
TORSDOF 5
ENDMDL
MODEL 9
REMARK VINA RESULT:      -6.8      8.067     10.353
REMARK  Name = 
REMARK  8 active torsions:
REMARK  status: ('A' for Active; 'I' for Inactive)
REMARK    1  A    between atoms: C_1  and  C_2
REMARK    2  A    between atoms: C_2  and  C_3
REMARK    3  A    between atoms: C_2  and  C_4
REMARK    4  A    between atoms: C_2  and  N_5
REMARK    5  A    between atoms: N_7  and  C_8
REMARK    6  A    between atoms: N_7  and  C_22
REMARK    7  A    between atoms: C_9  and  C_10
REMARK    8  A    between atoms: C_9  and  C_16
REMARK                            x       y       z     vdW  Elec       q    Type
REMARK                         _______ _______ _______ _____ _____    ______ ____
ROOT
ATOM      1  C   UNL     1      -1.833  12.439  19.209  0.00  0.00    +0.000 C 
ATOM      2  C   UNL     1      -3.114  11.961  19.036  0.00  0.00    +0.000 C 
ENDROOT
BRANCH   2   3
ATOM      3  C   UNL     1      -4.405  12.167  19.849  0.00  0.00    +0.000 A 
ATOM      4  C   UNL     1      -4.368  12.808  21.116  0.00  0.00    +0.000 A 
ATOM      5  C   UNL     1      -5.516  13.063  21.890  0.00  0.00    +0.000 A 
ATOM      6  C   UNL     1      -6.774  12.669  21.433  0.00  0.00    +0.000 A 
ATOM      7  C   UNL     1      -6.856  12.063  20.185  0.00  0.00    +0.000 A 
ATOM      8  C   UNL     1      -5.696  11.840  19.408  0.00  0.00    +0.000 A 
ENDBRANCH   2   3
BRANCH   2   9
ATOM      9  C   UNL     1      -3.158  11.139  17.766  0.00  0.00    +0.000 A 
ATOM     10  C   UNL     1      -2.263  10.072  17.581  0.00  0.00    +0.000 A 
ATOM     11  C   UNL     1      -2.165   9.427  16.341  0.00  0.00    +0.000 A 
ATOM     12  C   UNL     1      -2.979   9.820  15.283  0.00  0.00    +0.000 A 
ATOM     13  C   UNL     1      -3.908  10.847  15.465  0.00  0.00    +0.000 A 
ATOM     14  C   UNL     1      -3.996  11.504  16.701  0.00  0.00    +0.000 A 
ENDBRANCH   2   9
BRANCH   1  17
ATOM     15  N   UNL     1       0.148  15.251  19.627  0.00  0.00    +0.000 NA
ATOM     16  C   UNL     1      -0.894  14.554  19.902  0.00  0.00    +0.000 C 
ATOM     17  N   UNL     1      -1.083  13.204  20.134  0.00  0.00    +0.000 N 
BRANCH  17  18
ATOM     18  C   UNL     1      -0.230  12.655  21.267  0.00  0.00    +0.000 C 
ATOM     19  C   UNL     1      -0.788  12.877  22.678  0.00  0.00    +0.000 C 
ATOM     20  C   UNL     1      -1.614  11.723  23.179  0.00  0.00    +0.000 C 
ATOM     21  C   UNL     1      -0.881  10.396  23.065  0.00  0.00    +0.000 C 
ATOM     22  C   UNL     1      -0.286  10.136  21.681  0.00  0.00    +0.000 C 
ATOM     23  C   UNL     1       0.483  11.316  21.119  0.00  0.00    +0.000 C 
ENDBRANCH  17  18
BRANCH  15  25
ATOM     24  C   UNL     1       1.488  13.447  18.449  0.00  0.00    +0.000 C 
ATOM     25  C   UNL     1       1.478  14.660  19.418  0.00  0.00    +0.000 C 
ATOM     26  C   UNL     1       2.136  14.463  20.807  0.00  0.00    +0.000 C 
ATOM     27  C   UNL     1       2.275  15.724  18.651  0.00  0.00    +0.000 C 
ENDBRANCH  15  25
ENDBRANCH   1  17
TORSDOF 5
ENDMDL
