MODEL 1
REMARK VINA RESULT:      -6.5      0.000      0.000
REMARK  Name = 
REMARK  17 active torsions:
REMARK  status: ('A' for Active; 'I' for Inactive)
REMARK    1  A    between atoms: C_1  and  O_2
REMARK    2  A    between atoms: O_2  and  C_3
REMARK    3  A    between atoms: C_3  and  C_4
REMARK    4  A    between atoms: C_4  and  O_5
REMARK    5  A    between atoms: O_5  and  C_6
REMARK    6  A    between atoms: N_8  and  C_9
REMARK    7  A    between atoms: C_9  and  C_10
REMARK    8  A    between atoms: C_10  and  C_11
REMARK    9  A    between atoms: C_10  and  C_12
REMARK   10  A    between atoms: C_10  and  N_13
REMARK   11  A    between atoms: N_13  and  C_14
REMARK   12  A    between atoms: C_14  and  C_15
REMARK   13  A    between atoms: C_15  and  O_16
REMARK   14  A    between atoms: C_15  and  C_17
REMARK   15  A    between atoms: C_17  and  O_18
REMARK   16  A    between atoms: O_18  and  C_19
REMARK   17  A    between atoms: C_19  and  C_21
REMARK                            x       y       z     vdW  Elec       q    Type
REMARK                         _______ _______ _______ _____ _____    ______ ____
ROOT
ATOM      1  N   UNL     1       5.881   3.741  18.486  0.00  0.00    +0.000 NA
ATOM      2  H   UNL     1       6.691   3.129  18.604  0.00  0.00    +0.000 HD
ENDROOT
BRANCH   1   3
ATOM      3  C   UNL     1       6.329   5.140  18.256  0.00  0.00    +0.000 C 
ATOM      4  C   UNL     1       7.863   5.255  18.328  0.00  0.00    +0.000 C 
ATOM      5  C   UNL     1       5.680   6.066  19.305  0.00  0.00    +0.000 C 
BRANCH   3   6
ATOM      6  C   UNL     1       5.855   5.619  16.844  0.00  0.00    +0.000 C 
BRANCH   6   9
ATOM      7  C   UNL     1       6.841   4.538  14.838  0.00  0.00    +0.000 C 
ATOM      8  O   UNL     1       7.767   5.309  14.687  0.00  0.00    +0.000 OA
ATOM      9  N   UNL     1       5.902   4.580  15.830  0.00  0.00    +0.000 N 
ATOM     10  H   UNL     1       5.158   3.900  15.779  0.00  0.00    +0.000 HD
BRANCH   7  11
ATOM     11  O   UNL     1       6.530   3.523  13.993  0.00  0.00    +0.000 OA
BRANCH  11  12
ATOM     12  C   UNL     1       5.249   3.670  13.370  0.00  0.00    +0.000 C 
BRANCH  12  13
ATOM     13  C   UNL     1       5.234   3.255  11.904  0.00  0.00    +0.000 C 
BRANCH  13  15
ATOM     14  C   UNL     1       6.082   1.173  11.173  0.00  0.00    +0.000 C 
ATOM     15  O   UNL     1       6.407   2.481  11.629  0.00  0.00    +0.000 OA
ENDBRANCH  13  15
ENDBRANCH  12  13
ENDBRANCH  11  12
ENDBRANCH   7  11
ENDBRANCH   6   9
ENDBRANCH   3   6
ENDBRANCH   1   3
BRANCH   1  16
ATOM     16  C   UNL     1       4.985   3.570  19.641  0.00  0.00    +0.000 C 
BRANCH  16  17
ATOM     17  C   UNL     1       4.490   2.125  19.806  0.00  0.00    +0.000 C 
BRANCH  17  18
ATOM     18  O   UNL     1       3.979   1.941  21.136  0.00  0.00    +0.000 OA
ATOM     19  H   UNL     1       3.721   2.814  21.479  0.00  0.00    +0.000 HD
ENDBRANCH  17  18
BRANCH  17  20
ATOM     20  C   UNL     1       3.390   1.849  18.762  0.00  0.00    +0.000 C 
BRANCH  20  21
ATOM     21  O   UNL     1       2.102   1.725  19.383  0.00  0.00    +0.000 OA
BRANCH  21  22
ATOM     22  C   UNL     1       1.150   2.540  18.871  0.00  0.00    +0.000 C 
ATOM     23  O   UNL     1       0.103   2.182  18.342  0.00  0.00    +0.000 OA
BRANCH  22  24
ATOM     24  C   UNL     1       1.480   3.954  19.107  0.00  0.00    +0.000 A 
ATOM     25  C   UNL     1       1.827   4.750  18.006  0.00  0.00    +0.000 A 
ATOM     26  C   UNL     1       2.173   6.090  18.191  0.00  0.00    +0.000 A 
ATOM     27  C   UNL     1       2.186   6.636  19.475  0.00  0.00    +0.000 A 
ATOM     28  C   UNL     1       1.855   5.841  20.573  0.00  0.00    +0.000 A 
ATOM     29  C   UNL     1       1.503   4.506  20.386  0.00  0.00    +0.000 A 
ATOM     30  F   UNL     1       1.231   3.765  21.470  0.00  0.00    +0.000 F 
ENDBRANCH  22  24
ENDBRANCH  21  22
ENDBRANCH  20  21
ENDBRANCH  17  20
ENDBRANCH  16  17
ENDBRANCH   1  16
TORSDOF 14
ENDMDL
MODEL 2
REMARK VINA RESULT:      -6.3      3.144      5.165
REMARK  Name = 
REMARK  17 active torsions:
REMARK  status: ('A' for Active; 'I' for Inactive)
REMARK    1  A    between atoms: C_1  and  O_2
REMARK    2  A    between atoms: O_2  and  C_3
REMARK    3  A    between atoms: C_3  and  C_4
REMARK    4  A    between atoms: C_4  and  O_5
REMARK    5  A    between atoms: O_5  and  C_6
REMARK    6  A    between atoms: N_8  and  C_9
REMARK    7  A    between atoms: C_9  and  C_10
REMARK    8  A    between atoms: C_10  and  C_11
REMARK    9  A    between atoms: C_10  and  C_12
REMARK   10  A    between atoms: C_10  and  N_13
REMARK   11  A    between atoms: N_13  and  C_14
REMARK   12  A    between atoms: C_14  and  C_15
REMARK   13  A    between atoms: C_15  and  O_16
REMARK   14  A    between atoms: C_15  and  C_17
REMARK   15  A    between atoms: C_17  and  O_18
REMARK   16  A    between atoms: O_18  and  C_19
REMARK   17  A    between atoms: C_19  and  C_21
REMARK                            x       y       z     vdW  Elec       q    Type
REMARK                         _______ _______ _______ _____ _____    ______ ____
ROOT
ATOM      1  N   UNL     1       2.613   3.871  18.826  0.00  0.00    +0.000 NA
ATOM      2  H   UNL     1       2.052   4.318  18.097  0.00  0.00    +0.000 HD
ENDROOT
BRANCH   1   3
ATOM      3  C   UNL     1       3.779   3.178  18.220  0.00  0.00    +0.000 C 
ATOM      4  C   UNL     1       3.741   3.259  16.682  0.00  0.00    +0.000 C 
ATOM      5  C   UNL     1       3.791   1.703  18.671  0.00  0.00    +0.000 C 
BRANCH   3   6
ATOM      6  C   UNL     1       5.104   3.837  18.725  0.00  0.00    +0.000 C 
BRANCH   6   9
ATOM      7  C   UNL     1       7.163   4.775  17.700  0.00  0.00    +0.000 C 
ATOM      8  O   UNL     1       7.955   4.320  18.500  0.00  0.00    +0.000 OA
ATOM      9  N   UNL     1       5.809   4.589  17.701  0.00  0.00    +0.000 N 
ATOM     10  H   UNL     1       5.282   5.088  16.999  0.00  0.00    +0.000 HD
BRANCH   7  11
ATOM     11  O   UNL     1       7.481   5.619  16.686  0.00  0.00    +0.000 OA
BRANCH  11  12
ATOM     12  C   UNL     1       7.035   6.963  16.901  0.00  0.00    +0.000 C 
BRANCH  12  13
ATOM     13  C   UNL     1       7.837   7.708  17.961  0.00  0.00    +0.000 C 
BRANCH  13  15
ATOM     14  C   UNL     1       8.737   9.867  18.304  0.00  0.00    +0.000 C 
ATOM     15  O   UNL     1       7.648   9.116  17.781  0.00  0.00    +0.000 OA
ENDBRANCH  13  15
ENDBRANCH  12  13
ENDBRANCH  11  12
ENDBRANCH   7  11
ENDBRANCH   6   9
ENDBRANCH   3   6
ENDBRANCH   1   3
BRANCH   1  16
ATOM     16  C   UNL     1       1.738   3.004  19.631  0.00  0.00    +0.000 C 
BRANCH  16  17
ATOM     17  C   UNL     1       1.550   3.511  21.070  0.00  0.00    +0.000 C 
BRANCH  17  18
ATOM     18  O   UNL     1       2.136   2.575  21.989  0.00  0.00    +0.000 OA
ATOM     19  H   UNL     1       2.204   1.717  21.537  0.00  0.00    +0.000 HD
ENDBRANCH  17  18
BRANCH  17  20
ATOM     20  C   UNL     1       2.220   4.892  21.205  0.00  0.00    +0.000 C 
BRANCH  20  21
ATOM     21  O   UNL     1       1.414   5.922  20.613  0.00  0.00    +0.000 OA
BRANCH  21  22
ATOM     22  C   UNL     1       2.116   6.908  20.007  0.00  0.00    +0.000 C 
ATOM     23  O   UNL     1       3.064   6.753  19.244  0.00  0.00    +0.000 OA
BRANCH  22  24
ATOM     24  C   UNL     1       1.542   8.229  20.305  0.00  0.00    +0.000 A 
ATOM     25  C   UNL     1       1.281   8.555  21.644  0.00  0.00    +0.000 A 
ATOM     26  C   UNL     1       0.711   9.789  21.966  0.00  0.00    +0.000 A 
ATOM     27  C   UNL     1       0.389  10.694  20.954  0.00  0.00    +0.000 A 
ATOM     28  C   UNL     1       0.635  10.364  19.621  0.00  0.00    +0.000 A 
ATOM     29  C   UNL     1       1.209   9.136  19.301  0.00  0.00    +0.000 A 
ATOM     30  F   UNL     1       1.392   8.840  18.006  0.00  0.00    +0.000 F 
ENDBRANCH  22  24
ENDBRANCH  21  22
ENDBRANCH  20  21
ENDBRANCH  17  20
ENDBRANCH  16  17
ENDBRANCH   1  16
TORSDOF 14
ENDMDL
MODEL 3
REMARK VINA RESULT:      -6.2      3.377      5.780
REMARK  Name = 
REMARK  17 active torsions:
REMARK  status: ('A' for Active; 'I' for Inactive)
REMARK    1  A    between atoms: C_1  and  O_2
REMARK    2  A    between atoms: O_2  and  C_3
REMARK    3  A    between atoms: C_3  and  C_4
REMARK    4  A    between atoms: C_4  and  O_5
REMARK    5  A    between atoms: O_5  and  C_6
REMARK    6  A    between atoms: N_8  and  C_9
REMARK    7  A    between atoms: C_9  and  C_10
REMARK    8  A    between atoms: C_10  and  C_11
REMARK    9  A    between atoms: C_10  and  C_12
REMARK   10  A    between atoms: C_10  and  N_13
REMARK   11  A    between atoms: N_13  and  C_14
REMARK   12  A    between atoms: C_14  and  C_15
REMARK   13  A    between atoms: C_15  and  O_16
REMARK   14  A    between atoms: C_15  and  C_17
REMARK   15  A    between atoms: C_17  and  O_18
REMARK   16  A    between atoms: O_18  and  C_19
REMARK   17  A    between atoms: C_19  and  C_21
REMARK                            x       y       z     vdW  Elec       q    Type
REMARK                         _______ _______ _______ _____ _____    ______ ____
ROOT
ATOM      1  N   UNL     1       4.732   6.151  17.561  0.00  0.00    +0.000 NA
ATOM      2  H   UNL     1       5.428   6.743  18.019  0.00  0.00    +0.000 HD
ENDROOT
BRANCH   1   3
ATOM      3  C   UNL     1       5.396   5.244  16.588  0.00  0.00    +0.000 C 
ATOM      4  C   UNL     1       5.499   5.896  15.196  0.00  0.00    +0.000 C 
ATOM      5  C   UNL     1       4.604   3.923  16.495  0.00  0.00    +0.000 C 
BRANCH   3   6
ATOM      6  C   UNL     1       6.836   4.898  17.088  0.00  0.00    +0.000 C 
BRANCH   6   9
ATOM      7  C   UNL     1       7.941   6.235  18.865  0.00  0.00    +0.000 C 
ATOM      8  O   UNL     1       7.734   5.471  19.785  0.00  0.00    +0.000 OA
ATOM      9  N   UNL     1       7.583   6.052  17.559  0.00  0.00    +0.000 N 
ATOM     10  H   UNL     1       7.774   6.813  16.924  0.00  0.00    +0.000 HD
BRANCH   7  11
ATOM     11  O   UNL     1       8.512   7.460  18.986  0.00  0.00    +0.000 OA
BRANCH  11  12
ATOM     12  C   UNL     1       8.212   8.341  17.898  0.00  0.00    +0.000 C 
BRANCH  12  13
ATOM     13  C   UNL     1       8.562   9.797  18.179  0.00  0.00    +0.000 C 
BRANCH  13  15
ATOM     14  C   UNL     1       9.745  11.194  19.677  0.00  0.00    +0.000 C 
ATOM     15  O   UNL     1       9.316   9.867  19.395  0.00  0.00    +0.000 OA
ENDBRANCH  13  15
ENDBRANCH  12  13
ENDBRANCH  11  12
ENDBRANCH   7  11
ENDBRANCH   6   9
ENDBRANCH   3   6
ENDBRANCH   1   3
BRANCH   1  16
ATOM     16  C   UNL     1       3.687   7.009  16.981  0.00  0.00    +0.000 C 
BRANCH  16  17
ATOM     17  C   UNL     1       3.123   8.027  17.984  0.00  0.00    +0.000 C 
BRANCH  17  18
ATOM     18  O   UNL     1       2.132   8.841  17.336  0.00  0.00    +0.000 OA
ATOM     19  H   UNL     1       1.487   8.247  16.916  0.00  0.00    +0.000 HD
ENDBRANCH  17  18
BRANCH  17  20
ATOM     20  C   UNL     1       2.504   7.268  19.174  0.00  0.00    +0.000 C 
BRANCH  20  21
ATOM     21  O   UNL     1       2.136   5.930  18.804  0.00  0.00    +0.000 OA
BRANCH  21  22
ATOM     22  C   UNL     1       2.002   5.075  19.844  0.00  0.00    +0.000 C 
ATOM     23  O   UNL     1       1.444   5.318  20.909  0.00  0.00    +0.000 OA
BRANCH  22  24
ATOM     24  C   UNL     1       2.540   3.747  19.512  0.00  0.00    +0.000 A 
ATOM     25  C   UNL     1       3.782   3.378  20.048  0.00  0.00    +0.000 A 
ATOM     26  C   UNL     1       4.340   2.137  19.735  0.00  0.00    +0.000 A 
ATOM     27  C   UNL     1       3.666   1.266  18.879  0.00  0.00    +0.000 A 
ATOM     28  C   UNL     1       2.437   1.637  18.334  0.00  0.00    +0.000 A 
ATOM     29  C   UNL     1       1.878   2.874  18.651  0.00  0.00    +0.000 A 
ATOM     30  F   UNL     1       0.715   3.211  18.075  0.00  0.00    +0.000 F 
ENDBRANCH  22  24
ENDBRANCH  21  22
ENDBRANCH  20  21
ENDBRANCH  17  20
ENDBRANCH  16  17
ENDBRANCH   1  16
TORSDOF 14
ENDMDL
MODEL 4
REMARK VINA RESULT:      -6.2      2.235      3.504
REMARK  Name = 
REMARK  17 active torsions:
REMARK  status: ('A' for Active; 'I' for Inactive)
REMARK    1  A    between atoms: C_1  and  O_2
REMARK    2  A    between atoms: O_2  and  C_3
REMARK    3  A    between atoms: C_3  and  C_4
REMARK    4  A    between atoms: C_4  and  O_5
REMARK    5  A    between atoms: O_5  and  C_6
REMARK    6  A    between atoms: N_8  and  C_9
REMARK    7  A    between atoms: C_9  and  C_10
REMARK    8  A    between atoms: C_10  and  C_11
REMARK    9  A    between atoms: C_10  and  C_12
REMARK   10  A    between atoms: C_10  and  N_13
REMARK   11  A    between atoms: N_13  and  C_14
REMARK   12  A    between atoms: C_14  and  C_15
REMARK   13  A    between atoms: C_15  and  O_16
REMARK   14  A    between atoms: C_15  and  C_17
REMARK   15  A    between atoms: C_17  and  O_18
REMARK   16  A    between atoms: O_18  and  C_19
REMARK   17  A    between atoms: C_19  and  C_21
REMARK                            x       y       z     vdW  Elec       q    Type
REMARK                         _______ _______ _______ _____ _____    ______ ____
ROOT
ATOM      1  N   UNL     1       7.680   4.874  16.723  0.00  0.00    +0.000 NA
ATOM      2  H   UNL     1       8.535   5.184  16.257  0.00  0.00    +0.000 HD
ENDROOT
BRANCH   1   3
ATOM      3  C   UNL     1       6.589   4.709  15.727  0.00  0.00    +0.000 C 
ATOM      4  C   UNL     1       5.733   5.986  15.617  0.00  0.00    +0.000 C 
ATOM      5  C   UNL     1       5.703   3.513  16.130  0.00  0.00    +0.000 C 
BRANCH   3   6
ATOM      6  C   UNL     1       7.201   4.392  14.323  0.00  0.00    +0.000 C 
BRANCH   6   9
ATOM      7  C   UNL     1       6.386   3.599  12.116  0.00  0.00    +0.000 C 
ATOM      8  O   UNL     1       7.151   4.244  11.428  0.00  0.00    +0.000 OA
ATOM      9  N   UNL     1       6.341   3.578  13.482  0.00  0.00    +0.000 N 
ATOM     10  H   UNL     1       5.602   3.035  13.903  0.00  0.00    +0.000 HD
BRANCH   7  11
ATOM     11  O   UNL     1       5.377   2.826  11.641  0.00  0.00    +0.000 OA
BRANCH  11  12
ATOM     12  C   UNL     1       4.138   3.529  11.493  0.00  0.00    +0.000 C 
BRANCH  12  13
ATOM     13  C   UNL     1       3.223   2.934  10.430  0.00  0.00    +0.000 C 
BRANCH  13  15
ATOM     14  C   UNL     1       2.393   4.789   9.221  0.00  0.00    +0.000 C 
ATOM     15  O   UNL     1       3.329   3.718   9.236  0.00  0.00    +0.000 OA
ENDBRANCH  13  15
ENDBRANCH  12  13
ENDBRANCH  11  12
ENDBRANCH   7  11
ENDBRANCH   6   9
ENDBRANCH   3   6
ENDBRANCH   1   3
BRANCH   1  16
ATOM     16  C   UNL     1       7.371   5.809  17.817  0.00  0.00    +0.000 C 
BRANCH  16  17
ATOM     17  C   UNL     1       7.180   5.106  19.170  0.00  0.00    +0.000 C 
BRANCH  17  18
ATOM     18  O   UNL     1       8.040   5.709  20.150  0.00  0.00    +0.000 OA
ATOM     19  H   UNL     1       8.021   6.671  20.010  0.00  0.00    +0.000 HD
ENDBRANCH  17  18
BRANCH  17  20
ATOM     20  C   UNL     1       5.704   5.230  19.596  0.00  0.00    +0.000 C 
BRANCH  20  21
ATOM     21  O   UNL     1       4.877   4.297  18.883  0.00  0.00    +0.000 OA
BRANCH  21  22
ATOM     22  C   UNL     1       4.472   3.232  19.614  0.00  0.00    +0.000 C 
ATOM     23  O   UNL     1       5.200   2.473  20.246  0.00  0.00    +0.000 OA
BRANCH  22  24
ATOM     24  C   UNL     1       3.005   3.131  19.638  0.00  0.00    +0.000 A 
ATOM     25  C   UNL     1       2.309   3.246  18.426  0.00  0.00    +0.000 A 
ATOM     26  C   UNL     1       0.914   3.183  18.410  0.00  0.00    +0.000 A 
ATOM     27  C   UNL     1       0.210   3.019  19.604  0.00  0.00    +0.000 A 
ATOM     28  C   UNL     1       0.901   2.919  20.812  0.00  0.00    +0.000 A 
ATOM     29  C   UNL     1       2.293   2.975  20.826  0.00  0.00    +0.000 A 
ATOM     30  F   UNL     1       2.918   2.917  22.011  0.00  0.00    +0.000 F 
ENDBRANCH  22  24
ENDBRANCH  21  22
ENDBRANCH  20  21
ENDBRANCH  17  20
ENDBRANCH  16  17
ENDBRANCH   1  16
TORSDOF 14
ENDMDL
MODEL 5
REMARK VINA RESULT:      -6.1      2.941      7.068
REMARK  Name = 
REMARK  17 active torsions:
REMARK  status: ('A' for Active; 'I' for Inactive)
REMARK    1  A    between atoms: C_1  and  O_2
REMARK    2  A    between atoms: O_2  and  C_3
REMARK    3  A    between atoms: C_3  and  C_4
REMARK    4  A    between atoms: C_4  and  O_5
REMARK    5  A    between atoms: O_5  and  C_6
REMARK    6  A    between atoms: N_8  and  C_9
REMARK    7  A    between atoms: C_9  and  C_10
REMARK    8  A    between atoms: C_10  and  C_11
REMARK    9  A    between atoms: C_10  and  C_12
REMARK   10  A    between atoms: C_10  and  N_13
REMARK   11  A    between atoms: N_13  and  C_14
REMARK   12  A    between atoms: C_14  and  C_15
REMARK   13  A    between atoms: C_15  and  O_16
REMARK   14  A    between atoms: C_15  and  C_17
REMARK   15  A    between atoms: C_17  and  O_18
REMARK   16  A    between atoms: O_18  and  C_19
REMARK   17  A    between atoms: C_19  and  C_21
REMARK                            x       y       z     vdW  Elec       q    Type
REMARK                         _______ _______ _______ _____ _____    ______ ____
ROOT
ATOM      1  N   UNL     1       4.059   6.391  18.572  0.00  0.00    +0.000 NA
ATOM      2  H   UNL     1       4.491   7.316  18.629  0.00  0.00    +0.000 HD
ENDROOT
BRANCH   1   3
ATOM      3  C   UNL     1       2.600   6.491  18.838  0.00  0.00    +0.000 C 
ATOM      4  C   UNL     1       1.784   5.735  17.772  0.00  0.00    +0.000 C 
ATOM      5  C   UNL     1       2.185   7.976  18.866  0.00  0.00    +0.000 C 
BRANCH   3   6
ATOM      6  C   UNL     1       2.279   5.884  20.242  0.00  0.00    +0.000 C 
BRANCH   6   9
ATOM      7  C   UNL     1       1.679   3.653  21.154  0.00  0.00    +0.000 C 
ATOM      8  O   UNL     1       2.298   3.740  22.195  0.00  0.00    +0.000 OA
ATOM      9  N   UNL     1       1.585   4.608  20.181  0.00  0.00    +0.000 N 
ATOM     10  H   UNL     1       1.080   4.356  19.344  0.00  0.00    +0.000 HD
BRANCH   7  11
ATOM     11  O   UNL     1       1.017   2.545  20.734  0.00  0.00    +0.000 OA
BRANCH  11  12
ATOM     12  C   UNL     1       1.402   2.112  19.424  0.00  0.00    +0.000 C 
BRANCH  12  13
ATOM     13  C   UNL     1       2.719   1.346  19.400  0.00  0.00    +0.000 C 
BRANCH  13  15
ATOM     14  C   UNL     1       2.590   2.402  17.288  0.00  0.00    +0.000 C 
ATOM     15  O   UNL     1       3.391   1.618  18.164  0.00  0.00    +0.000 OA
ENDBRANCH  13  15
ENDBRANCH  12  13
ENDBRANCH  11  12
ENDBRANCH   7  11
ENDBRANCH   6   9
ENDBRANCH   3   6
ENDBRANCH   1   3
BRANCH   1  16
ATOM     16  C   UNL     1       4.781   5.475  19.469  0.00  0.00    +0.000 C 
BRANCH  16  17
ATOM     17  C   UNL     1       5.734   4.530  18.720  0.00  0.00    +0.000 C 
BRANCH  17  18
ATOM     18  O   UNL     1       5.578   3.193  19.222  0.00  0.00    +0.000 OA
ATOM     19  H   UNL     1       6.459   2.784  19.261  0.00  0.00    +0.000 HD
ENDBRANCH  17  18
BRANCH  17  20
ATOM     20  C   UNL     1       5.412   4.583  17.214  0.00  0.00    +0.000 C 
BRANCH  20  21
ATOM     21  O   UNL     1       6.541   4.175  16.426  0.00  0.00    +0.000 OA
BRANCH  21  22
ATOM     22  C   UNL     1       6.975   5.103  15.542  0.00  0.00    +0.000 C 
ATOM     23  O   UNL     1       7.519   6.166  15.822  0.00  0.00    +0.000 OA
BRANCH  22  24
ATOM     24  C   UNL     1       6.795   4.642  14.157  0.00  0.00    +0.000 A 
ATOM     25  C   UNL     1       5.743   3.757  13.880  0.00  0.00    +0.000 A 
ATOM     26  C   UNL     1       5.555   3.275  12.582  0.00  0.00    +0.000 A 
ATOM     27  C   UNL     1       6.423   3.665  11.562  0.00  0.00    +0.000 A 
ATOM     28  C   UNL     1       7.478   4.534  11.839  0.00  0.00    +0.000 A 
ATOM     29  C   UNL     1       7.661   5.019  13.132  0.00  0.00    +0.000 A 
ATOM     30  F   UNL     1       8.711   5.820  13.366  0.00  0.00    +0.000 F 
ENDBRANCH  22  24
ENDBRANCH  21  22
ENDBRANCH  20  21
ENDBRANCH  17  20
ENDBRANCH  16  17
ENDBRANCH   1  16
TORSDOF 14
ENDMDL
MODEL 6
REMARK VINA RESULT:      -6.1      4.272      5.919
REMARK  Name = 
REMARK  17 active torsions:
REMARK  status: ('A' for Active; 'I' for Inactive)
REMARK    1  A    between atoms: C_1  and  O_2
REMARK    2  A    between atoms: O_2  and  C_3
REMARK    3  A    between atoms: C_3  and  C_4
REMARK    4  A    between atoms: C_4  and  O_5
REMARK    5  A    between atoms: O_5  and  C_6
REMARK    6  A    between atoms: N_8  and  C_9
REMARK    7  A    between atoms: C_9  and  C_10
REMARK    8  A    between atoms: C_10  and  C_11
REMARK    9  A    between atoms: C_10  and  C_12
REMARK   10  A    between atoms: C_10  and  N_13
REMARK   11  A    between atoms: N_13  and  C_14
REMARK   12  A    between atoms: C_14  and  C_15
REMARK   13  A    between atoms: C_15  and  O_16
REMARK   14  A    between atoms: C_15  and  C_17
REMARK   15  A    between atoms: C_17  and  O_18
REMARK   16  A    between atoms: O_18  and  C_19
REMARK   17  A    between atoms: C_19  and  C_21
REMARK                            x       y       z     vdW  Elec       q    Type
REMARK                         _______ _______ _______ _____ _____    ______ ____
ROOT
ATOM      1  N   UNL     1       3.236   4.592  17.813  0.00  0.00    +0.000 NA
ATOM      2  H   UNL     1       3.228   4.387  16.812  0.00  0.00    +0.000 HD
ENDROOT
BRANCH   1   3
ATOM      3  C   UNL     1       2.975   3.352  18.590  0.00  0.00    +0.000 C 
ATOM      4  C   UNL     1       2.847   2.128  17.663  0.00  0.00    +0.000 C 
ATOM      5  C   UNL     1       1.684   3.526  19.416  0.00  0.00    +0.000 C 
BRANCH   3   6
ATOM      6  C   UNL     1       4.148   3.102  19.593  0.00  0.00    +0.000 C 
BRANCH   6   9
ATOM      7  C   UNL     1       6.139   4.501  19.094  0.00  0.00    +0.000 C 
ATOM      8  O   UNL     1       5.771   5.504  19.672  0.00  0.00    +0.000 OA
ATOM      9  N   UNL     1       5.465   3.315  19.016  0.00  0.00    +0.000 N 
ATOM     10  H   UNL     1       5.879   2.594  18.443  0.00  0.00    +0.000 HD
BRANCH   7  11
ATOM     11  O   UNL     1       7.270   4.403  18.352  0.00  0.00    +0.000 OA
BRANCH  11  12
ATOM     12  C   UNL     1       7.039   4.499  16.942  0.00  0.00    +0.000 C 
BRANCH  12  13
ATOM     13  C   UNL     1       7.026   5.932  16.424  0.00  0.00    +0.000 C 
BRANCH  13  15
ATOM     14  C   UNL     1       5.858   4.751  14.741  0.00  0.00    +0.000 C 
ATOM     15  O   UNL     1       6.104   6.022  15.332  0.00  0.00    +0.000 OA
ENDBRANCH  13  15
ENDBRANCH  12  13
ENDBRANCH  11  12
ENDBRANCH   7  11
ENDBRANCH   6   9
ENDBRANCH   3   6
ENDBRANCH   1   3
BRANCH   1  16
ATOM     16  C   UNL     1       2.292   5.689  18.079  0.00  0.00    +0.000 C 
BRANCH  16  17
ATOM     17  C   UNL     1       2.983   7.055  18.213  0.00  0.00    +0.000 C 
BRANCH  17  18
ATOM     18  O   UNL     1       4.236   7.031  17.512  0.00  0.00    +0.000 OA
ATOM     19  H   UNL     1       4.439   6.104  17.298  0.00  0.00    +0.000 HD
ENDBRANCH  17  18
BRANCH  17  20
ATOM     20  C   UNL     1       2.059   8.143  17.632  0.00  0.00    +0.000 C 
BRANCH  20  21
ATOM     21  O   UNL     1       2.225   9.391  18.323  0.00  0.00    +0.000 OA
BRANCH  21  22
ATOM     22  C   UNL     1       1.229   9.690  19.190  0.00  0.00    +0.000 C 
ATOM     23  O   UNL     1       0.885   9.014  20.153  0.00  0.00    +0.000 OA
BRANCH  22  24
ATOM     24  C   UNL     1       0.643  11.006  18.891  0.00  0.00    +0.000 A 
ATOM     25  C   UNL     1       1.486  12.126  18.888  0.00  0.00    +0.000 A 
ATOM     26  C   UNL     1       0.963  13.397  18.635  0.00  0.00    +0.000 A 
ATOM     27  C   UNL     1      -0.402  13.553  18.397  0.00  0.00    +0.000 A 
ATOM     28  C   UNL     1      -1.245  12.441  18.413  0.00  0.00    +0.000 A 
ATOM     29  C   UNL     1      -0.721  11.173  18.660  0.00  0.00    +0.000 A 
ATOM     30  F   UNL     1      -1.569  10.136  18.707  0.00  0.00    +0.000 F 
ENDBRANCH  22  24
ENDBRANCH  21  22
ENDBRANCH  20  21
ENDBRANCH  17  20
ENDBRANCH  16  17
ENDBRANCH   1  16
TORSDOF 14
ENDMDL
MODEL 7
REMARK VINA RESULT:      -6.1      4.060      6.241
REMARK  Name = 
REMARK  17 active torsions:
REMARK  status: ('A' for Active; 'I' for Inactive)
REMARK    1  A    between atoms: C_1  and  O_2
REMARK    2  A    between atoms: O_2  and  C_3
REMARK    3  A    between atoms: C_3  and  C_4
REMARK    4  A    between atoms: C_4  and  O_5
REMARK    5  A    between atoms: O_5  and  C_6
REMARK    6  A    between atoms: N_8  and  C_9
REMARK    7  A    between atoms: C_9  and  C_10
REMARK    8  A    between atoms: C_10  and  C_11
REMARK    9  A    between atoms: C_10  and  C_12
REMARK   10  A    between atoms: C_10  and  N_13
REMARK   11  A    between atoms: N_13  and  C_14
REMARK   12  A    between atoms: C_14  and  C_15
REMARK   13  A    between atoms: C_15  and  O_16
REMARK   14  A    between atoms: C_15  and  C_17
REMARK   15  A    between atoms: C_17  and  O_18
REMARK   16  A    between atoms: O_18  and  C_19
REMARK   17  A    between atoms: C_19  and  C_21
REMARK                            x       y       z     vdW  Elec       q    Type
REMARK                         _______ _______ _______ _____ _____    ______ ____
ROOT
ATOM      1  N   UNL     1       4.635   5.906  17.140  0.00  0.00    +0.000 NA
ATOM      2  H   UNL     1       4.070   5.217  17.641  0.00  0.00    +0.000 HD
ENDROOT
BRANCH   1   3
ATOM      3  C   UNL     1       6.080   5.640  17.365  0.00  0.00    +0.000 C 
ATOM      4  C   UNL     1       6.908   6.937  17.275  0.00  0.00    +0.000 C 
ATOM      5  C   UNL     1       6.582   4.619  16.324  0.00  0.00    +0.000 C 
BRANCH   3   6
ATOM      6  C   UNL     1       6.285   5.011  18.782  0.00  0.00    +0.000 C 
BRANCH   6   9
ATOM      7  C   UNL     1       4.440   3.516  19.511  0.00  0.00    +0.000 C 
ATOM      8  O   UNL     1       3.696   4.381  19.925  0.00  0.00    +0.000 OA
ATOM      9  N   UNL     1       5.666   3.705  18.935  0.00  0.00    +0.000 N 
ATOM     10  H   UNL     1       6.190   2.875  18.699  0.00  0.00    +0.000 HD
BRANCH   7  11
ATOM     11  O   UNL     1       4.215   2.182  19.611  0.00  0.00    +0.000 OA
BRANCH  11  12
ATOM     12  C   UNL     1       3.830   1.572  18.374  0.00  0.00    +0.000 C 
BRANCH  12  13
ATOM     13  C   UNL     1       2.397   1.888  17.960  0.00  0.00    +0.000 C 
BRANCH  13  15
ATOM     14  C   UNL     1       0.550   2.846  19.084  0.00  0.00    +0.000 C 
ATOM     15  O   UNL     1       1.558   1.843  19.120  0.00  0.00    +0.000 OA
ENDBRANCH  13  15
ENDBRANCH  12  13
ENDBRANCH  11  12
ENDBRANCH   7  11
ENDBRANCH   6   9
ENDBRANCH   3   6
ENDBRANCH   1   3
BRANCH   1  16
ATOM     16  C   UNL     1       4.195   7.255  17.531  0.00  0.00    +0.000 C 
BRANCH  16  17
ATOM     17  C   UNL     1       2.784   7.271  18.141  0.00  0.00    +0.000 C 
BRANCH  17  18
ATOM     18  O   UNL     1       2.869   7.038  19.555  0.00  0.00    +0.000 OA
ATOM     19  H   UNL     1       2.296   6.281  19.767  0.00  0.00    +0.000 HD
ENDBRANCH  17  18
BRANCH  17  20
ATOM     20  C   UNL     1       2.131   8.638  17.856  0.00  0.00    +0.000 C 
BRANCH  20  21
ATOM     21  O   UNL     1       1.128   8.949  18.836  0.00  0.00    +0.000 OA
BRANCH  21  22
ATOM     22  C   UNL     1       1.197  10.207  19.332  0.00  0.00    +0.000 C 
ATOM     23  O   UNL     1       1.692  11.178  18.768  0.00  0.00    +0.000 OA
BRANCH  22  24
ATOM     24  C   UNL     1       0.511  10.304  20.629  0.00  0.00    +0.000 A 
ATOM     25  C   UNL     1       0.808   9.350  21.613  0.00  0.00    +0.000 A 
ATOM     26  C   UNL     1       0.158   9.392  22.849  0.00  0.00    +0.000 A 
ATOM     27  C   UNL     1      -0.798  10.377  23.101  0.00  0.00    +0.000 A 
ATOM     28  C   UNL     1      -1.105  11.318  22.117  0.00  0.00    +0.000 A 
ATOM     29  C   UNL     1      -0.451  11.279  20.887  0.00  0.00    +0.000 A 
ATOM     30  F   UNL     1      -0.803  12.175  19.954  0.00  0.00    +0.000 F 
ENDBRANCH  22  24
ENDBRANCH  21  22
ENDBRANCH  20  21
ENDBRANCH  17  20
ENDBRANCH  16  17
ENDBRANCH   1  16
TORSDOF 14
ENDMDL
MODEL 8
REMARK VINA RESULT:      -6.0      2.429      3.622
REMARK  Name = 
REMARK  17 active torsions:
REMARK  status: ('A' for Active; 'I' for Inactive)
REMARK    1  A    between atoms: C_1  and  O_2
REMARK    2  A    between atoms: O_2  and  C_3
REMARK    3  A    between atoms: C_3  and  C_4
REMARK    4  A    between atoms: C_4  and  O_5
REMARK    5  A    between atoms: O_5  and  C_6
REMARK    6  A    between atoms: N_8  and  C_9
REMARK    7  A    between atoms: C_9  and  C_10
REMARK    8  A    between atoms: C_10  and  C_11
REMARK    9  A    between atoms: C_10  and  C_12
REMARK   10  A    between atoms: C_10  and  N_13
REMARK   11  A    between atoms: N_13  and  C_14
REMARK   12  A    between atoms: C_14  and  C_15
REMARK   13  A    between atoms: C_15  and  O_16
REMARK   14  A    between atoms: C_15  and  C_17
REMARK   15  A    between atoms: C_17  and  O_18
REMARK   16  A    between atoms: O_18  and  C_19
REMARK   17  A    between atoms: C_19  and  C_21
REMARK                            x       y       z     vdW  Elec       q    Type
REMARK                         _______ _______ _______ _____ _____    ______ ____
ROOT
ATOM      1  N   UNL     1       3.295   2.017  19.245  0.00  0.00    +0.000 NA
ATOM      2  H   UNL     1       3.820   1.150  19.375  0.00  0.00    +0.000 HD
ENDROOT
BRANCH   1   3
ATOM      3  C   UNL     1       3.772   2.724  18.027  0.00  0.00    +0.000 C 
ATOM      4  C   UNL     1       2.631   3.508  17.351  0.00  0.00    +0.000 C 
ATOM      5  C   UNL     1       4.367   1.701  17.040  0.00  0.00    +0.000 C 
BRANCH   3   6
ATOM      6  C   UNL     1       4.909   3.726  18.413  0.00  0.00    +0.000 C 
BRANCH   6   9
ATOM      7  C   UNL     1       7.114   4.398  17.486  0.00  0.00    +0.000 C 
ATOM      8  O   UNL     1       7.713   4.456  18.541  0.00  0.00    +0.000 OA
ATOM      9  N   UNL     1       5.805   4.044  17.313  0.00  0.00    +0.000 N 
ATOM     10  H   UNL     1       5.438   4.105  16.375  0.00  0.00    +0.000 HD
BRANCH   7  11
ATOM     11  O   UNL     1       7.627   4.747  16.280  0.00  0.00    +0.000 OA
BRANCH  11  12
ATOM     12  C   UNL     1       6.650   5.268  15.372  0.00  0.00    +0.000 C 
BRANCH  12  13
ATOM     13  C   UNL     1       6.883   4.853  13.924  0.00  0.00    +0.000 C 
BRANCH  13  15
ATOM     14  C   UNL     1       6.205   3.288  12.286  0.00  0.00    +0.000 C 
ATOM     15  O   UNL     1       6.139   3.659  13.658  0.00  0.00    +0.000 OA
ENDBRANCH  13  15
ENDBRANCH  12  13
ENDBRANCH  11  12
ENDBRANCH   7  11
ENDBRANCH   6   9
ENDBRANCH   3   6
ENDBRANCH   1   3
BRANCH   1  16
ATOM     16  C   UNL     1       3.376   2.810  20.482  0.00  0.00    +0.000 C 
BRANCH  16  17
ATOM     17  C   UNL     1       2.000   3.268  20.992  0.00  0.00    +0.000 C 
BRANCH  17  18
ATOM     18  O   UNL     1       1.700   2.601  22.228  0.00  0.00    +0.000 OA
ATOM     19  H   UNL     1       2.257   2.994  22.921  0.00  0.00    +0.000 HD
ENDBRANCH  17  18
BRANCH  17  20
ATOM     20  C   UNL     1       2.022   4.796  21.193  0.00  0.00    +0.000 C 
BRANCH  20  21
ATOM     21  O   UNL     1       1.769   5.487  19.960  0.00  0.00    +0.000 OA
BRANCH  21  22
ATOM     22  C   UNL     1       2.686   6.431  19.645  0.00  0.00    +0.000 C 
ATOM     23  O   UNL     1       3.891   6.247  19.505  0.00  0.00    +0.000 OA
BRANCH  22  24
ATOM     24  C   UNL     1       2.045   7.731  19.395  0.00  0.00    +0.000 A 
ATOM     25  C   UNL     1       2.119   8.273  18.104  0.00  0.00    +0.000 A 
ATOM     26  C   UNL     1       1.546   9.518  17.832  0.00  0.00    +0.000 A 
ATOM     27  C   UNL     1       0.910  10.229  18.850  0.00  0.00    +0.000 A 
ATOM     28  C   UNL     1       0.848   9.697  20.138  0.00  0.00    +0.000 A 
ATOM     29  C   UNL     1       1.414   8.452  20.407  0.00  0.00    +0.000 A 
ATOM     30  F   UNL     1       1.369   7.994  21.666  0.00  0.00    +0.000 F 
ENDBRANCH  22  24
ENDBRANCH  21  22
ENDBRANCH  20  21
ENDBRANCH  17  20
ENDBRANCH  16  17
ENDBRANCH   1  16
TORSDOF 14
ENDMDL
MODEL 9
REMARK VINA RESULT:      -6.0      1.768      2.920
REMARK  Name = 
REMARK  17 active torsions:
REMARK  status: ('A' for Active; 'I' for Inactive)
REMARK    1  A    between atoms: C_1  and  O_2
REMARK    2  A    between atoms: O_2  and  C_3
REMARK    3  A    between atoms: C_3  and  C_4
REMARK    4  A    between atoms: C_4  and  O_5
REMARK    5  A    between atoms: O_5  and  C_6
REMARK    6  A    between atoms: N_8  and  C_9
REMARK    7  A    between atoms: C_9  and  C_10
REMARK    8  A    between atoms: C_10  and  C_11
REMARK    9  A    between atoms: C_10  and  C_12
REMARK   10  A    between atoms: C_10  and  N_13
REMARK   11  A    between atoms: N_13  and  C_14
REMARK   12  A    between atoms: C_14  and  C_15
REMARK   13  A    between atoms: C_15  and  O_16
REMARK   14  A    between atoms: C_15  and  C_17
REMARK   15  A    between atoms: C_17  and  O_18
REMARK   16  A    between atoms: O_18  and  C_19
REMARK   17  A    between atoms: C_19  and  C_21
REMARK                            x       y       z     vdW  Elec       q    Type
REMARK                         _______ _______ _______ _____ _____    ______ ____
ROOT
ATOM      1  N   UNL     1       5.402   4.938  18.514  0.00  0.00    +0.000 NA
ATOM      2  H   UNL     1       5.525   3.964  18.798  0.00  0.00    +0.000 HD
ENDROOT
BRANCH   1   3
ATOM      3  C   UNL     1       6.718   5.538  18.171  0.00  0.00    +0.000 C 
ATOM      4  C   UNL     1       7.562   5.796  19.434  0.00  0.00    +0.000 C 
ATOM      5  C   UNL     1       6.497   6.858  17.405  0.00  0.00    +0.000 C 
BRANCH   3   6
ATOM      6  C   UNL     1       7.508   4.571  17.229  0.00  0.00    +0.000 C 
BRANCH   6   9
ATOM      7  C   UNL     1       6.840   4.516  14.838  0.00  0.00    +0.000 C 
ATOM      8  O   UNL     1       7.626   5.350  14.439  0.00  0.00    +0.000 OA
ATOM      9  N   UNL     1       6.718   4.062  16.121  0.00  0.00    +0.000 N 
ATOM     10  H   UNL     1       5.970   3.408  16.302  0.00  0.00    +0.000 HD
BRANCH   7  11
ATOM     11  O   UNL     1       5.879   3.928  14.081  0.00  0.00    +0.000 OA
BRANCH  11  12
ATOM     12  C   UNL     1       6.338   3.528  12.785  0.00  0.00    +0.000 C 
BRANCH  12  13
ATOM     13  C   UNL     1       5.212   3.133  11.836  0.00  0.00    +0.000 C 
BRANCH  13  15
ATOM     14  C   UNL     1       6.757   1.524  11.050  0.00  0.00    +0.000 C 
ATOM     15  O   UNL     1       5.408   1.775  11.425  0.00  0.00    +0.000 OA
ENDBRANCH  13  15
ENDBRANCH  12  13
ENDBRANCH  11  12
ENDBRANCH   7  11
ENDBRANCH   6   9
ENDBRANCH   3   6
ENDBRANCH   1   3
BRANCH   1  16
ATOM     16  C   UNL     1       4.664   5.650  19.570  0.00  0.00    +0.000 C 
BRANCH  16  17
ATOM     17  C   UNL     1       3.272   6.117  19.117  0.00  0.00    +0.000 C 
BRANCH  17  18
ATOM     18  O   UNL     1       2.955   5.523  17.848  0.00  0.00    +0.000 OA
ATOM     19  H   UNL     1       3.792   5.329  17.393  0.00  0.00    +0.000 HD
ENDBRANCH  17  18
BRANCH  17  20
ATOM     20  C   UNL     1       2.235   5.706  20.181  0.00  0.00    +0.000 C 
BRANCH  20  21
ATOM     21  O   UNL     1       2.851   4.977  21.254  0.00  0.00    +0.000 OA
BRANCH  21  22
ATOM     22  C   UNL     1       2.376   3.721  21.425  0.00  0.00    +0.000 C 
ATOM     23  O   UNL     1       1.990   3.235  22.483  0.00  0.00    +0.000 OA
BRANCH  22  24
ATOM     24  C   UNL     1       2.289   3.007  20.142  0.00  0.00    +0.000 A 
ATOM     25  C   UNL     1       1.047   2.950  19.494  0.00  0.00    +0.000 A 
ATOM     26  C   UNL     1       0.917   2.259  18.288  0.00  0.00    +0.000 A 
ATOM     27  C   UNL     1       2.021   1.613  17.732  0.00  0.00    +0.000 A 
ATOM     28  C   UNL     1       3.254   1.656  18.383  0.00  0.00    +0.000 A 
ATOM     29  C   UNL     1       3.384   2.352  19.584  0.00  0.00    +0.000 A 
ATOM     30  F   UNL     1       4.576   2.336  20.199  0.00  0.00    +0.000 F 
ENDBRANCH  22  24
ENDBRANCH  21  22
ENDBRANCH  20  21
ENDBRANCH  17  20
ENDBRANCH  16  17
ENDBRANCH   1  16
TORSDOF 14
ENDMDL
