MODEL 1
REMARK VINA RESULT:      -7.8      0.000      0.000
REMARK  Name = 
REMARK  7 active torsions:
REMARK  status: ('A' for Active; 'I' for Inactive)
REMARK    1  A    between atoms: C_1  and  C_2
REMARK    2  A    between atoms: C_4  and  C_5
REMARK    3  A    between atoms: N_7  and  C_8
REMARK    4  A    between atoms: C_8  and  C_9
REMARK    5  A    between atoms: C_9  and  C_10
REMARK    6  A    between atoms: C_10  and  N_11
REMARK    7  A    between atoms: C_17  and  C_18
REMARK                            x       y       z     vdW  Elec       q    Type
REMARK                         _______ _______ _______ _____ _____    ______ ____
ROOT
ATOM      1  C   UNL     1       7.129   4.551  13.295  0.00  0.00    +0.000 C 
ATOM      2  C   UNL     1       6.745   4.932  14.680  0.00  0.00    +0.000 A 
ATOM      3  N   UNL     1       7.466   5.657  15.506  0.00  0.00    +0.000 NA
ATOM      4  C   UNL     1       6.850   5.682  16.768  0.00  0.00    +0.000 A 
ATOM      5  C   UNL     1       5.607   5.044  16.851  0.00  0.00    +0.000 A 
ATOM      6  S   UNL     1       5.232   4.428  15.282  0.00  0.00    +0.000 S 
ENDROOT
BRANCH   5   7
ATOM      7  C   UNL     1       4.612   4.956  17.952  0.00  0.00    +0.000 A 
ATOM      8  C   UNL     1       4.542   3.757  18.700  0.00  0.00    +0.000 A 
ATOM      9  C   UNL     1       3.662   3.591  19.774  0.00  0.00    +0.000 A 
ATOM     10  C   UNL     1       2.866   4.648  20.179  0.00  0.00    +0.000 A 
ATOM     11  C   UNL     1       2.909   5.845  19.474  0.00  0.00    +0.000 A 
ATOM     12  C   UNL     1       3.740   5.994  18.351  0.00  0.00    +0.000 A 
ATOM     13 CL   UNL     1       3.547   7.496  17.506  0.00  0.00    +0.000 Cl
ENDBRANCH   5   7
BRANCH   4  14
ATOM     14  C   UNL     1       7.511   6.362  17.883  0.00  0.00    +0.000 C 
ATOM     15  O   UNL     1       7.686   5.817  18.973  0.00  0.00    +0.000 OA
ATOM     16  N   UNL     1       7.882   7.660  17.623  0.00  0.00    +0.000 N 
ATOM     17  H   UNL     1       7.646   8.039  16.709  0.00  0.00    +0.000 HD
BRANCH  16  18
ATOM     18  C   UNL     1       8.443   8.513  18.645  0.00  0.00    +0.000 C 
BRANCH  18  19
ATOM     19  C   UNL     1       8.730   9.935  18.174  0.00  0.00    +0.000 C 
BRANCH  19  20
ATOM     20  C   UNL     1       9.384  10.792  19.254  0.00  0.00    +0.000 C 
BRANCH  20  21
ATOM     21  N   UNL     1      10.706  11.312  18.911  0.00  0.00    +0.000 NA
ATOM     22  C   UNL     1      11.414  12.001  20.007  0.00  0.00    +0.000 C 
ATOM     23  C   UNL     1      11.369  13.544  19.999  0.00  0.00    +0.000 C 
ATOM     24  O   UNL     1      11.609  14.090  18.696  0.00  0.00    +0.000 OA
ATOM     25  C   UNL     1      10.643  13.581  17.774  0.00  0.00    +0.000 C 
ATOM     26  C   UNL     1      10.760  12.057  17.648  0.00  0.00    +0.000 C 
ENDBRANCH  20  21
ENDBRANCH  19  20
ENDBRANCH  18  19
ENDBRANCH  16  18
ENDBRANCH   4  14
TORSDOF 6
ENDMDL
MODEL 2
REMARK VINA RESULT:      -7.7      1.307      1.850
REMARK  Name = 
REMARK  7 active torsions:
REMARK  status: ('A' for Active; 'I' for Inactive)
REMARK    1  A    between atoms: C_1  and  C_2
REMARK    2  A    between atoms: C_4  and  C_5
REMARK    3  A    between atoms: N_7  and  C_8
REMARK    4  A    between atoms: C_8  and  C_9
REMARK    5  A    between atoms: C_9  and  C_10
REMARK    6  A    between atoms: C_10  and  N_11
REMARK    7  A    between atoms: C_17  and  C_18
REMARK                            x       y       z     vdW  Elec       q    Type
REMARK                         _______ _______ _______ _____ _____    ______ ____
ROOT
ATOM      1  C   UNL     1       6.788   4.055  13.520  0.00  0.00    +0.000 C 
ATOM      2  C   UNL     1       6.475   4.769  14.787  0.00  0.00    +0.000 A 
ATOM      3  N   UNL     1       7.314   5.502  15.484  0.00  0.00    +0.000 NA
ATOM      4  C   UNL     1       6.709   5.890  16.689  0.00  0.00    +0.000 A 
ATOM      5  C   UNL     1       5.369   5.517  16.845  0.00  0.00    +0.000 A 
ATOM      6  S   UNL     1       4.893   4.677  15.413  0.00  0.00    +0.000 S 
ENDROOT
BRANCH   5   7
ATOM      7  C   UNL     1       4.369   5.832  17.899  0.00  0.00    +0.000 A 
ATOM      8  C   UNL     1       3.622   7.027  17.782  0.00  0.00    +0.000 A 
ATOM      9  C   UNL     1       2.638   7.392  18.706  0.00  0.00    +0.000 A 
ATOM     10  C   UNL     1       2.321   6.537  19.747  0.00  0.00    +0.000 A 
ATOM     11  C   UNL     1       3.028   5.349  19.894  0.00  0.00    +0.000 A 
ATOM     12  C   UNL     1       4.067   5.011  19.009  0.00  0.00    +0.000 A 
ATOM     13 CL   UNL     1       4.938   3.574  19.438  0.00  0.00    +0.000 Cl
ENDBRANCH   5   7
BRANCH   4  14
ATOM     14  C   UNL     1       7.479   6.650  17.676  0.00  0.00    +0.000 C 
ATOM     15  O   UNL     1       7.891   6.141  18.719  0.00  0.00    +0.000 OA
ATOM     16  N   UNL     1       7.668   7.973  17.358  0.00  0.00    +0.000 N 
ATOM     17  H   UNL     1       7.243   8.313  16.498  0.00  0.00    +0.000 HD
BRANCH  16  18
ATOM     18  C   UNL     1       8.308   8.893  18.270  0.00  0.00    +0.000 C 
BRANCH  18  19
ATOM     19  C   UNL     1       8.502  10.295  17.699  0.00  0.00    +0.000 C 
BRANCH  19  20
ATOM     20  C   UNL     1       9.626  11.060  18.389  0.00  0.00    +0.000 C 
BRANCH  20  21
ATOM     21  N   UNL     1       9.755  12.460  17.989  0.00  0.00    +0.000 NA
ATOM     22  C   UNL     1      11.026  12.811  17.329  0.00  0.00    +0.000 C 
ATOM     23  C   UNL     1      12.097  13.496  18.205  0.00  0.00    +0.000 C 
ATOM     24  O   UNL     1      11.547  14.531  19.028  0.00  0.00    +0.000 OA
ATOM     25  C   UNL     1      10.523  13.989  19.865  0.00  0.00    +0.000 C 
ATOM     26  C   UNL     1       9.371  13.428  19.022  0.00  0.00    +0.000 C 
ENDBRANCH  20  21
ENDBRANCH  19  20
ENDBRANCH  18  19
ENDBRANCH  16  18
ENDBRANCH   4  14
TORSDOF 6
ENDMDL
MODEL 3
REMARK VINA RESULT:      -7.5      1.373      1.909
REMARK  Name = 
REMARK  7 active torsions:
REMARK  status: ('A' for Active; 'I' for Inactive)
REMARK    1  A    between atoms: C_1  and  C_2
REMARK    2  A    between atoms: C_4  and  C_5
REMARK    3  A    between atoms: N_7  and  C_8
REMARK    4  A    between atoms: C_8  and  C_9
REMARK    5  A    between atoms: C_9  and  C_10
REMARK    6  A    between atoms: C_10  and  N_11
REMARK    7  A    between atoms: C_17  and  C_18
REMARK                            x       y       z     vdW  Elec       q    Type
REMARK                         _______ _______ _______ _____ _____    ______ ____
ROOT
ATOM      1  C   UNL     1       7.113   4.185  12.866  0.00  0.00    +0.000 C 
ATOM      2  C   UNL     1       6.691   4.745  14.177  0.00  0.00    +0.000 A 
ATOM      3  N   UNL     1       7.469   5.368  15.033  0.00  0.00    +0.000 NA
ATOM      4  C   UNL     1       6.757   5.620  16.216  0.00  0.00    +0.000 A 
ATOM      5  C   UNL     1       5.404   5.262  16.201  0.00  0.00    +0.000 A 
ATOM      6  S   UNL     1       5.056   4.614  14.638  0.00  0.00    +0.000 S 
ENDROOT
BRANCH   5   7
ATOM      7  C   UNL     1       4.313   5.469  17.190  0.00  0.00    +0.000 A 
ATOM      8  C   UNL     1       3.960   6.794  17.533  0.00  0.00    +0.000 A 
ATOM      9  C   UNL     1       2.926   7.089  18.428  0.00  0.00    +0.000 A 
ATOM     10  C   UNL     1       2.166   6.063  18.961  0.00  0.00    +0.000 A 
ATOM     11  C   UNL     1       2.477   4.746  18.644  0.00  0.00    +0.000 A 
ATOM     12  C   UNL     1       3.559   4.441  17.801  0.00  0.00    +0.000 A 
ATOM     13 CL   UNL     1       3.895   2.747  17.644  0.00  0.00    +0.000 Cl
ENDBRANCH   5   7
BRANCH   4  14
ATOM     14  C   UNL     1       7.439   6.235  17.356  0.00  0.00    +0.000 C 
ATOM     15  O   UNL     1       7.701   5.607  18.382  0.00  0.00    +0.000 OA
ATOM     16  N   UNL     1       7.728   7.570  17.198  0.00  0.00    +0.000 N 
ATOM     17  H   UNL     1       7.424   8.014  16.335  0.00  0.00    +0.000 HD
BRANCH  16  18
ATOM     18  C   UNL     1       8.297   8.360  18.265  0.00  0.00    +0.000 C 
BRANCH  18  19
ATOM     19  C   UNL     1       8.138   9.864  18.074  0.00  0.00    +0.000 C 
BRANCH  19  20
ATOM     20  C   UNL     1       9.470  10.607  18.119  0.00  0.00    +0.000 C 
BRANCH  20  21
ATOM     21  N   UNL     1       9.464  11.834  18.913  0.00  0.00    +0.000 NA
ATOM     22  C   UNL     1       9.738  13.072  18.158  0.00  0.00    +0.000 C 
ATOM     23  C   UNL     1      11.174  13.633  18.242  0.00  0.00    +0.000 C 
ATOM     24  O   UNL     1      11.685  13.624  19.579  0.00  0.00    +0.000 OA
ATOM     25  C   UNL     1      11.664  12.291  20.095  0.00  0.00    +0.000 C 
ATOM     26  C   UNL     1      10.228  11.756  20.163  0.00  0.00    +0.000 C 
ENDBRANCH  20  21
ENDBRANCH  19  20
ENDBRANCH  18  19
ENDBRANCH  16  18
ENDBRANCH   4  14
TORSDOF 6
ENDMDL
MODEL 4
REMARK VINA RESULT:      -7.5      0.711      1.065
REMARK  Name = 
REMARK  7 active torsions:
REMARK  status: ('A' for Active; 'I' for Inactive)
REMARK    1  A    between atoms: C_1  and  C_2
REMARK    2  A    between atoms: C_4  and  C_5
REMARK    3  A    between atoms: N_7  and  C_8
REMARK    4  A    between atoms: C_8  and  C_9
REMARK    5  A    between atoms: C_9  and  C_10
REMARK    6  A    between atoms: C_10  and  N_11
REMARK    7  A    between atoms: C_17  and  C_18
REMARK                            x       y       z     vdW  Elec       q    Type
REMARK                         _______ _______ _______ _____ _____    ______ ____
ROOT
ATOM      1  C   UNL     1       6.675   4.134  13.080  0.00  0.00    +0.000 C 
ATOM      2  C   UNL     1       6.408   4.591  14.470  0.00  0.00    +0.000 A 
ATOM      3  N   UNL     1       7.237   5.275  15.227  0.00  0.00    +0.000 NA
ATOM      4  C   UNL     1       6.701   5.396  16.519  0.00  0.00    +0.000 A 
ATOM      5  C   UNL     1       5.414   4.874  16.695  0.00  0.00    +0.000 A 
ATOM      6  S   UNL     1       4.895   4.244  15.174  0.00  0.00    +0.000 S 
ENDROOT
BRANCH   5   7
ATOM      7  C   UNL     1       4.482   4.910  17.853  0.00  0.00    +0.000 A 
ATOM      8  C   UNL     1       4.338   3.742  18.637  0.00  0.00    +0.000 A 
ATOM      9  C   UNL     1       3.511   3.689  19.763  0.00  0.00    +0.000 A 
ATOM     10  C   UNL     1       2.848   4.828  20.182  0.00  0.00    +0.000 A 
ATOM     11  C   UNL     1       2.967   5.999  19.443  0.00  0.00    +0.000 A 
ATOM     12  C   UNL     1       3.741   6.039  18.271  0.00  0.00    +0.000 A 
ATOM     13 CL   UNL     1       3.647   7.534  17.396  0.00  0.00    +0.000 Cl
ENDBRANCH   5   7
BRANCH   4  14
ATOM     14  C   UNL     1       7.483   6.050  17.570  0.00  0.00    +0.000 C 
ATOM     15  O   UNL     1       7.910   5.436  18.548  0.00  0.00    +0.000 OA
ATOM     16  N   UNL     1       7.666   7.400  17.390  0.00  0.00    +0.000 N 
ATOM     17  H   UNL     1       7.229   7.826  16.577  0.00  0.00    +0.000 HD
BRANCH  16  18
ATOM     18  C   UNL     1       8.317   8.221  18.385  0.00  0.00    +0.000 C 
BRANCH  18  19
ATOM     19  C   UNL     1       8.440   9.689  17.990  0.00  0.00    +0.000 C 
BRANCH  19  20
ATOM     20  C   UNL     1       9.145  10.527  19.053  0.00  0.00    +0.000 C 
BRANCH  20  21
ATOM     21  N   UNL     1       9.526  11.871  18.624  0.00  0.00    +0.000 NA
ATOM     22  C   UNL     1      10.744  11.945  17.795  0.00  0.00    +0.000 C 
ATOM     23  C   UNL     1      12.047  12.358  18.512  0.00  0.00    +0.000 C 
ATOM     24  O   UNL     1      11.856  13.472  19.391  0.00  0.00    +0.000 OA
ATOM     25  C   UNL     1      10.858  13.154  20.364  0.00  0.00    +0.000 C 
ATOM     26  C   UNL     1       9.508  12.879  19.690  0.00  0.00    +0.000 C 
ENDBRANCH  20  21
ENDBRANCH  19  20
ENDBRANCH  18  19
ENDBRANCH  16  18
ENDBRANCH   4  14
TORSDOF 6
ENDMDL
MODEL 5
REMARK VINA RESULT:      -7.4      5.504      7.853
REMARK  Name = 
REMARK  7 active torsions:
REMARK  status: ('A' for Active; 'I' for Inactive)
REMARK    1  A    between atoms: C_1  and  C_2
REMARK    2  A    between atoms: C_4  and  C_5
REMARK    3  A    between atoms: N_7  and  C_8
REMARK    4  A    between atoms: C_8  and  C_9
REMARK    5  A    between atoms: C_9  and  C_10
REMARK    6  A    between atoms: C_10  and  N_11
REMARK    7  A    between atoms: C_17  and  C_18
REMARK                            x       y       z     vdW  Elec       q    Type
REMARK                         _______ _______ _______ _____ _____    ______ ____
ROOT
ATOM      1  C   UNL     1       0.817   3.033  19.809  0.00  0.00    +0.000 C 
ATOM      2  C   UNL     1       1.858   3.836  19.113  0.00  0.00    +0.000 A 
ATOM      3  N   UNL     1       1.865   5.144  18.989  0.00  0.00    +0.000 NA
ATOM      4  C   UNL     1       2.920   5.530  18.147  0.00  0.00    +0.000 A 
ATOM      5  C   UNL     1       3.763   4.499  17.717  0.00  0.00    +0.000 A 
ATOM      6  S   UNL     1       3.193   3.031  18.425  0.00  0.00    +0.000 S 
ENDROOT
BRANCH   5   7
ATOM      7  C   UNL     1       5.026   4.515  16.933  0.00  0.00    +0.000 A 
ATOM      8  C   UNL     1       4.974   4.149  15.568  0.00  0.00    +0.000 A 
ATOM      9  C   UNL     1       6.102   4.165  14.741  0.00  0.00    +0.000 A 
ATOM     10  C   UNL     1       7.313   4.614  15.240  0.00  0.00    +0.000 A 
ATOM     11  C   UNL     1       7.405   4.990  16.575  0.00  0.00    +0.000 A 
ATOM     12  C   UNL     1       6.290   4.908  17.428  0.00  0.00    +0.000 A 
ATOM     13 CL   UNL     1       6.629   5.266  19.091  0.00  0.00    +0.000 Cl
ENDBRANCH   5   7
BRANCH   4  14
ATOM     14  C   UNL     1       3.084   6.940  17.790  0.00  0.00    +0.000 C 
ATOM     15  O   UNL     1       4.115   7.370  17.272  0.00  0.00    +0.000 OA
ATOM     16  N   UNL     1       2.013   7.740  18.111  0.00  0.00    +0.000 N 
ATOM     17  H   UNL     1       1.228   7.301  18.585  0.00  0.00    +0.000 HD
BRANCH  16  18
ATOM     18  C   UNL     1       2.049   9.173  17.931  0.00  0.00    +0.000 C 
BRANCH  18  19
ATOM     19  C   UNL     1       0.778   9.885  18.381  0.00  0.00    +0.000 C 
BRANCH  19  20
ATOM     20  C   UNL     1       0.838  10.332  19.838  0.00  0.00    +0.000 C 
BRANCH  20  21
ATOM     21  N   UNL     1      -0.378  10.083  20.610  0.00  0.00    +0.000 NA
ATOM     22  C   UNL     1      -1.050  11.289  21.130  0.00  0.00    +0.000 C 
ATOM     23  C   UNL     1      -0.795  11.640  22.612  0.00  0.00    +0.000 C 
ATOM     24  O   UNL     1      -0.880  10.493  23.466  0.00  0.00    +0.000 OA
ATOM     25  C   UNL     1       0.061   9.505  23.043  0.00  0.00    +0.000 C 
ATOM     26  C   UNL     1      -0.254   9.026  21.620  0.00  0.00    +0.000 C 
ENDBRANCH  20  21
ENDBRANCH  19  20
ENDBRANCH  18  19
ENDBRANCH  16  18
ENDBRANCH   4  14
TORSDOF 6
ENDMDL
MODEL 6
REMARK VINA RESULT:      -7.3      5.562      7.799
REMARK  Name = 
REMARK  7 active torsions:
REMARK  status: ('A' for Active; 'I' for Inactive)
REMARK    1  A    between atoms: C_1  and  C_2
REMARK    2  A    between atoms: C_4  and  C_5
REMARK    3  A    between atoms: N_7  and  C_8
REMARK    4  A    between atoms: C_8  and  C_9
REMARK    5  A    between atoms: C_9  and  C_10
REMARK    6  A    between atoms: C_10  and  N_11
REMARK    7  A    between atoms: C_17  and  C_18
REMARK                            x       y       z     vdW  Elec       q    Type
REMARK                         _______ _______ _______ _____ _____    ______ ____
ROOT
ATOM      1  C   UNL     1       1.871   2.746  21.546  0.00  0.00    +0.000 C 
ATOM      2  C   UNL     1       2.593   3.578  20.547  0.00  0.00    +0.000 A 
ATOM      3  N   UNL     1       2.307   4.821  20.231  0.00  0.00    +0.000 NA
ATOM      4  C   UNL     1       3.105   5.226  19.150  0.00  0.00    +0.000 A 
ATOM      5  C   UNL     1       4.063   4.300  18.720  0.00  0.00    +0.000 A 
ATOM      6  S   UNL     1       3.934   2.909  19.736  0.00  0.00    +0.000 S 
ENDROOT
BRANCH   5   7
ATOM      7  C   UNL     1       5.148   4.395  17.708  0.00  0.00    +0.000 A 
ATOM      8  C   UNL     1       4.896   3.907  16.405  0.00  0.00    +0.000 A 
ATOM      9  C   UNL     1       5.842   3.982  15.378  0.00  0.00    +0.000 A 
ATOM     10  C   UNL     1       7.054   4.612  15.605  0.00  0.00    +0.000 A 
ATOM     11  C   UNL     1       7.338   5.111  16.871  0.00  0.00    +0.000 A 
ATOM     12  C   UNL     1       6.418   4.975  17.925  0.00  0.00    +0.000 A 
ATOM     13 CL   UNL     1       7.005   5.514  19.465  0.00  0.00    +0.000 Cl
ENDBRANCH   5   7
BRANCH   4  14
ATOM     14  C   UNL     1       2.911   6.552  18.562  0.00  0.00    +0.000 C 
ATOM     15  O   UNL     1       3.465   6.895  17.517  0.00  0.00    +0.000 OA
ATOM     16  N   UNL     1       2.094   7.386  19.287  0.00  0.00    +0.000 N 
ATOM     17  H   UNL     1       1.725   7.030  20.166  0.00  0.00    +0.000 HD
BRANCH  16  18
ATOM     18  C   UNL     1       1.883   8.765  18.912  0.00  0.00    +0.000 C 
BRANCH  18  19
ATOM     19  C   UNL     1       0.654   9.400  19.554  0.00  0.00    +0.000 C 
BRANCH  19  20
ATOM     20  C   UNL     1       0.872  10.864  19.921  0.00  0.00    +0.000 C 
BRANCH  20  21
ATOM     21  N   UNL     1       0.922  11.139  21.356  0.00  0.00    +0.000 NA
ATOM     22  C   UNL     1       0.940   9.947  22.224  0.00  0.00    +0.000 C 
ATOM     23  C   UNL     1      -0.402   9.539  22.869  0.00  0.00    +0.000 C 
ATOM     24  O   UNL     1      -1.110  10.660  23.410  0.00  0.00    +0.000 OA
ATOM     25  C   UNL     1      -1.350  11.622  22.380  0.00  0.00    +0.000 C 
ATOM     26  C   UNL     1      -0.028  12.157  21.816  0.00  0.00    +0.000 C 
ENDBRANCH  20  21
ENDBRANCH  19  20
ENDBRANCH  18  19
ENDBRANCH  16  18
ENDBRANCH   4  14
TORSDOF 6
ENDMDL
MODEL 7
REMARK VINA RESULT:      -7.0      5.478      7.294
REMARK  Name = 
REMARK  7 active torsions:
REMARK  status: ('A' for Active; 'I' for Inactive)
REMARK    1  A    between atoms: C_1  and  C_2
REMARK    2  A    between atoms: C_4  and  C_5
REMARK    3  A    between atoms: N_7  and  C_8
REMARK    4  A    between atoms: C_8  and  C_9
REMARK    5  A    between atoms: C_9  and  C_10
REMARK    6  A    between atoms: C_10  and  N_11
REMARK    7  A    between atoms: C_17  and  C_18
REMARK                            x       y       z     vdW  Elec       q    Type
REMARK                         _______ _______ _______ _____ _____    ______ ____
ROOT
ATOM      1  C   UNL     1       1.434   3.432  21.155  0.00  0.00    +0.000 C 
ATOM      2  C   UNL     1       2.299   4.150  20.181  0.00  0.00    +0.000 A 
ATOM      3  N   UNL     1       2.183   5.412  19.834  0.00  0.00    +0.000 NA
ATOM      4  C   UNL     1       3.075   5.695  18.787  0.00  0.00    +0.000 A 
ATOM      5  C   UNL     1       3.931   4.650  18.418  0.00  0.00    +0.000 A 
ATOM      6  S   UNL     1       3.585   3.306  19.446  0.00  0.00    +0.000 S 
ENDROOT
BRANCH   5   7
ATOM      7  C   UNL     1       5.066   4.591  17.459  0.00  0.00    +0.000 A 
ATOM      8  C   UNL     1       4.822   4.090  16.159  0.00  0.00    +0.000 A 
ATOM      9  C   UNL     1       5.818   4.027  15.179  0.00  0.00    +0.000 A 
ATOM     10  C   UNL     1       7.080   4.527  15.448  0.00  0.00    +0.000 A 
ATOM     11  C   UNL     1       7.358   5.034  16.712  0.00  0.00    +0.000 A 
ATOM     12  C   UNL     1       6.381   5.035  17.723  0.00  0.00    +0.000 A 
ATOM     13 CL   UNL     1       6.952   5.559  19.275  0.00  0.00    +0.000 Cl
ENDBRANCH   5   7
BRANCH   4  14
ATOM     14  C   UNL     1       3.074   7.023  18.171  0.00  0.00    +0.000 C 
ATOM     15  O   UNL     1       3.959   7.389  17.397  0.00  0.00    +0.000 OA
ATOM     16  N   UNL     1       2.029   7.830  18.554  0.00  0.00    +0.000 N 
ATOM     17  H   UNL     1       1.377   7.456  19.240  0.00  0.00    +0.000 HD
BRANCH  16  18
ATOM     18  C   UNL     1       1.934   9.208  18.131  0.00  0.00    +0.000 C 
BRANCH  18  19
ATOM     19  C   UNL     1       0.574   9.844  18.401  0.00  0.00    +0.000 C 
BRANCH  19  20
ATOM     20  C   UNL     1       0.682  11.309  18.815  0.00  0.00    +0.000 C 
BRANCH  20  21
ATOM     21  N   UNL     1       1.187  11.530  20.168  0.00  0.00    +0.000 NA
ATOM     22  C   UNL     1       0.276  11.121  21.254  0.00  0.00    +0.000 C 
ATOM     23  C   UNL     1      -0.545  12.240  21.929  0.00  0.00    +0.000 C 
ATOM     24  O   UNL     1       0.246  13.398  22.218  0.00  0.00    +0.000 OA
ATOM     25  C   UNL     1       0.830  13.898  21.013  0.00  0.00    +0.000 C 
ATOM     26  C   UNL     1       1.771  12.857  20.393  0.00  0.00    +0.000 C 
ENDBRANCH  20  21
ENDBRANCH  19  20
ENDBRANCH  18  19
ENDBRANCH  16  18
ENDBRANCH   4  14
TORSDOF 6
ENDMDL
MODEL 8
REMARK VINA RESULT:      -7.0      5.423      8.262
REMARK  Name = 
REMARK  7 active torsions:
REMARK  status: ('A' for Active; 'I' for Inactive)
REMARK    1  A    between atoms: C_1  and  C_2
REMARK    2  A    between atoms: C_4  and  C_5
REMARK    3  A    between atoms: N_7  and  C_8
REMARK    4  A    between atoms: C_8  and  C_9
REMARK    5  A    between atoms: C_9  and  C_10
REMARK    6  A    between atoms: C_10  and  N_11
REMARK    7  A    between atoms: C_17  and  C_18
REMARK                            x       y       z     vdW  Elec       q    Type
REMARK                         _______ _______ _______ _____ _____    ______ ____
ROOT
ATOM      1  C   UNL     1       1.232   2.177  18.673  0.00  0.00    +0.000 C 
ATOM      2  C   UNL     1       2.084   3.391  18.784  0.00  0.00    +0.000 A 
ATOM      3  N   UNL     1       1.676   4.587  19.144  0.00  0.00    +0.000 NA
ATOM      4  C   UNL     1       2.724   5.507  18.990  0.00  0.00    +0.000 A 
ATOM      5  C   UNL     1       3.955   4.968  18.599  0.00  0.00    +0.000 A 
ATOM      6  S   UNL     1       3.750   3.259  18.451  0.00  0.00    +0.000 S 
ENDROOT
BRANCH   5   7
ATOM      7  C   UNL     1       5.301   5.580  18.447  0.00  0.00    +0.000 A 
ATOM      8  C   UNL     1       6.255   5.372  19.470  0.00  0.00    +0.000 A 
ATOM      9  C   UNL     1       7.556   5.880  19.401  0.00  0.00    +0.000 A 
ATOM     10  C   UNL     1       7.968   6.561  18.269  0.00  0.00    +0.000 A 
ATOM     11  C   UNL     1       7.063   6.782  17.237  0.00  0.00    +0.000 A 
ATOM     12  C   UNL     1       5.734   6.334  17.332  0.00  0.00    +0.000 A 
ATOM     13 CL   UNL     1       4.710   6.835  16.025  0.00  0.00    +0.000 Cl
ENDBRANCH   5   7
BRANCH   4  14
ATOM     14  C   UNL     1       2.487   6.928  19.252  0.00  0.00    +0.000 C 
ATOM     15  O   UNL     1       2.335   7.370  20.391  0.00  0.00    +0.000 OA
ATOM     16  N   UNL     1       2.413   7.712  18.125  0.00  0.00    +0.000 N 
ATOM     17  H   UNL     1       2.498   7.246  17.225  0.00  0.00    +0.000 HD
BRANCH  16  18
ATOM     18  C   UNL     1       2.074   9.115  18.192  0.00  0.00    +0.000 C 
BRANCH  18  19
ATOM     19  C   UNL     1       0.670   9.436  17.690  0.00  0.00    +0.000 C 
BRANCH  19  20
ATOM     20  C   UNL     1      -0.128  10.284  18.676  0.00  0.00    +0.000 C 
BRANCH  20  21
ATOM     21  N   UNL     1      -0.987  11.296  18.065  0.00  0.00    +0.000 NA
ATOM     22  C   UNL     1      -1.445  12.364  18.974  0.00  0.00    +0.000 C 
ATOM     23  C   UNL     1      -2.875  12.228  19.538  0.00  0.00    +0.000 C 
ATOM     24  O   UNL     1      -3.824  11.852  18.534  0.00  0.00    +0.000 OA
ATOM     25  C   UNL     1      -3.430  10.615  17.936  0.00  0.00    +0.000 C 
ATOM     26  C   UNL     1      -2.071  10.757  17.237  0.00  0.00    +0.000 C 
ENDBRANCH  20  21
ENDBRANCH  19  20
ENDBRANCH  18  19
ENDBRANCH  16  18
ENDBRANCH   4  14
TORSDOF 6
ENDMDL
MODEL 9
REMARK VINA RESULT:      -7.0      5.311      7.794
REMARK  Name = 
REMARK  7 active torsions:
REMARK  status: ('A' for Active; 'I' for Inactive)
REMARK    1  A    between atoms: C_1  and  C_2
REMARK    2  A    between atoms: C_4  and  C_5
REMARK    3  A    between atoms: N_7  and  C_8
REMARK    4  A    between atoms: C_8  and  C_9
REMARK    5  A    between atoms: C_9  and  C_10
REMARK    6  A    between atoms: C_10  and  N_11
REMARK    7  A    between atoms: C_17  and  C_18
REMARK                            x       y       z     vdW  Elec       q    Type
REMARK                         _______ _______ _______ _____ _____    ______ ____
ROOT
ATOM      1  C   UNL     1       0.528   2.091  18.758  0.00  0.00    +0.000 C 
ATOM      2  C   UNL     1       1.575   3.146  18.789  0.00  0.00    +0.000 A 
ATOM      3  N   UNL     1       1.381   4.413  19.080  0.00  0.00    +0.000 NA
ATOM      4  C   UNL     1       2.567   5.131  18.861  0.00  0.00    +0.000 A 
ATOM      5  C   UNL     1       3.681   4.368  18.492  0.00  0.00    +0.000 A 
ATOM      6  S   UNL     1       3.188   2.714  18.449  0.00  0.00    +0.000 S 
ENDROOT
BRANCH   5   7
ATOM      7  C   UNL     1       5.109   4.733  18.291  0.00  0.00    +0.000 A 
ATOM      8  C   UNL     1       5.834   5.242  19.393  0.00  0.00    +0.000 A 
ATOM      9  C   UNL     1       7.189   5.582  19.309  0.00  0.00    +0.000 A 
ATOM     10  C   UNL     1       7.881   5.361  18.132  0.00  0.00    +0.000 A 
ATOM     11  C   UNL     1       7.205   4.856  17.026  0.00  0.00    +0.000 A 
ATOM     12  C   UNL     1       5.828   4.579  17.084  0.00  0.00    +0.000 A 
ATOM     13 CL   UNL     1       5.125   4.107  15.571  0.00  0.00    +0.000 Cl
ENDBRANCH   5   7
BRANCH   4  14
ATOM     14  C   UNL     1       2.579   6.584  19.039  0.00  0.00    +0.000 C 
ATOM     15  O   UNL     1       2.550   7.110  20.152  0.00  0.00    +0.000 OA
ATOM     16  N   UNL     1       2.589   7.304  17.868  0.00  0.00    +0.000 N 
ATOM     17  H   UNL     1       2.559   6.779  16.997  0.00  0.00    +0.000 HD
BRANCH  16  18
ATOM     18  C   UNL     1       2.489   8.745  17.856  0.00  0.00    +0.000 C 
BRANCH  18  19
ATOM     19  C   UNL     1       1.063   9.267  17.995  0.00  0.00    +0.000 C 
BRANCH  19  20
ATOM     20  C   UNL     1       0.788   9.866  19.371  0.00  0.00    +0.000 C 
BRANCH  20  21
ATOM     21  N   UNL     1      -0.605  10.237  19.614  0.00  0.00    +0.000 NA
ATOM     22  C   UNL     1      -1.363  10.652  18.418  0.00  0.00    +0.000 C 
ATOM     23  C   UNL     1      -1.533  12.170  18.197  0.00  0.00    +0.000 C 
ATOM     24  O   UNL     1      -1.891  12.859  19.400  0.00  0.00    +0.000 OA
ATOM     25  C   UNL     1      -0.897  12.633  20.402  0.00  0.00    +0.000 C 
ATOM     26  C   UNL     1      -0.806  11.142  20.751  0.00  0.00    +0.000 C 
ENDBRANCH  20  21
ENDBRANCH  19  20
ENDBRANCH  18  19
ENDBRANCH  16  18
ENDBRANCH   4  14
TORSDOF 6
ENDMDL
