MODEL 1
REMARK VINA RESULT:      -8.5      0.000      0.000
REMARK  Name = 
REMARK  4 active torsions:
REMARK  status: ('A' for Active; 'I' for Inactive)
REMARK    1  A    between atoms: C_2  and  C_3
REMARK    2  A    between atoms: C_8  and  N_9
REMARK    3  A    between atoms: C_18  and  O_19
REMARK    4  A    between atoms: O_19  and  C_20
REMARK                            x       y       z     vdW  Elec       q    Type
REMARK                         _______ _______ _______ _____ _____    ______ ____
ROOT
ATOM      1  O   UNL     1       2.364   6.061  17.681  0.00  0.00    +0.000 OA
ATOM      2  C   UNL     1       2.232   6.123  18.899  0.00  0.00    +0.000 C 
ATOM      3  N   UNL     1       1.936   7.324  19.582  0.00  0.00    +0.000 N 
ATOM      4  C   UNL     1       2.033   7.507  21.028  0.00  0.00    +0.000 C 
ATOM      5  C   UNL     1       0.835   8.251  21.596  0.00  0.00    +0.000 C 
ATOM      6  C   UNL     1       0.636   9.589  20.906  0.00  0.00    +0.000 C 
ATOM      7  C   UNL     1       0.543   9.420  19.384  0.00  0.00    +0.000 C 
ATOM      8  C   UNL     1       1.723   8.577  18.821  0.00  0.00    +0.000 C 
ENDROOT
BRANCH   2   9
ATOM      9  C   UNL     1       2.468   4.868  19.690  0.00  0.00    +0.000 A 
ATOM     10  C   UNL     1       1.419   4.436  20.527  0.00  0.00    +0.000 A 
ATOM     11  C   UNL     1       1.483   3.223  21.220  0.00  0.00    +0.000 A 
ATOM     12  C   UNL     1       2.651   2.477  21.195  0.00  0.00    +0.000 A 
ATOM     13  C   UNL     1       3.759   2.965  20.505  0.00  0.00    +0.000 A 
ATOM     14  C   UNL     1       3.679   4.152  19.735  0.00  0.00    +0.000 A 
BRANCH  14  15
ATOM     15  N   UNL     1       4.858   4.543  19.052  0.00  0.00    +0.000 N 
ATOM     16  N   UNL     1       5.085   4.133  17.762  0.00  0.00    +0.000 NA
ATOM     17  C   UNL     1       6.278   4.668  17.500  0.00  0.00    +0.000 A 
ATOM     18  C   UNL     1       6.674   5.473  18.572  0.00  0.00    +0.000 A 
ATOM     19  N   UNL     1       5.760   5.430  19.542  0.00  0.00    +0.000 NA
ENDBRANCH  14  15
ENDBRANCH   2   9
BRANCH   7  20
ATOM     20  O   UNL     1       0.293  10.604  18.610  0.00  0.00    +0.000 OA
BRANCH  20  21
ATOM     21  C   UNL     1      -0.992  10.982  18.277  0.00  0.00    +0.000 A 
ATOM     22  C   UNL     1      -1.547  10.307  17.206  0.00  0.00    +0.000 A 
ATOM     23  C   UNL     1      -2.890  10.510  16.912  0.00  0.00    +0.000 A 
ATOM     24  C   UNL     1      -3.674  11.298  17.755  0.00  0.00    +0.000 A 
ATOM     25  C   UNL     1      -5.054  11.452  17.524  0.00  0.00    +0.000 A 
ATOM     26  C   UNL     1      -5.851  12.133  18.439  0.00  0.00    +0.000 A 
ATOM     27  C   UNL     1      -5.264  12.687  19.568  0.00  0.00    +0.000 A 
ATOM     28  C   UNL     1      -3.878  12.573  19.765  0.00  0.00    +0.000 A 
ATOM     29  C   UNL     1      -3.050  11.884  18.881  0.00  0.00    +0.000 A 
ATOM     30  N   UNL     1      -1.719  11.745  19.124  0.00  0.00    +0.000 NA
ENDBRANCH  20  21
ENDBRANCH   7  20
TORSDOF 4
ENDMDL
MODEL 2
REMARK VINA RESULT:      -8.3      3.284      4.611
REMARK  Name = 
REMARK  4 active torsions:
REMARK  status: ('A' for Active; 'I' for Inactive)
REMARK    1  A    between atoms: C_2  and  C_3
REMARK    2  A    between atoms: C_8  and  N_9
REMARK    3  A    between atoms: C_18  and  O_19
REMARK    4  A    between atoms: O_19  and  C_20
REMARK                            x       y       z     vdW  Elec       q    Type
REMARK                         _______ _______ _______ _____ _____    ______ ____
ROOT
ATOM      1  O   UNL     1       3.969   5.506  19.990  0.00  0.00    +0.000 OA
ATOM      2  C   UNL     1       3.586   6.117  18.998  0.00  0.00    +0.000 C 
ATOM      3  N   UNL     1       2.535   7.061  19.032  0.00  0.00    +0.000 N 
ATOM      4  C   UNL     1       1.868   7.610  17.853  0.00  0.00    +0.000 C 
ATOM      5  C   UNL     1       1.664   9.113  17.955  0.00  0.00    +0.000 C 
ATOM      6  C   UNL     1       0.901   9.484  19.215  0.00  0.00    +0.000 C 
ATOM      7  C   UNL     1       1.579   8.907  20.464  0.00  0.00    +0.000 C 
ATOM      8  C   UNL     1       1.871   7.386  20.316  0.00  0.00    +0.000 C 
ENDROOT
BRANCH   2   9
ATOM      9  C   UNL     1       4.230   5.784  17.683  0.00  0.00    +0.000 A 
ATOM     10  C   UNL     1       4.860   6.842  16.995  0.00  0.00    +0.000 A 
ATOM     11  C   UNL     1       5.589   6.626  15.821  0.00  0.00    +0.000 A 
ATOM     12  C   UNL     1       5.596   5.369  15.238  0.00  0.00    +0.000 A 
ATOM     13  C   UNL     1       4.846   4.344  15.812  0.00  0.00    +0.000 A 
ATOM     14  C   UNL     1       4.170   4.532  17.042  0.00  0.00    +0.000 A 
BRANCH  14  15
ATOM     15  N   UNL     1       3.460   3.415  17.550  0.00  0.00    +0.000 N 
ATOM     16  N   UNL     1       4.080   2.509  18.374  0.00  0.00    +0.000 NA
ATOM     17  C   UNL     1       3.113   1.620  18.599  0.00  0.00    +0.000 A 
ATOM     18  C   UNL     1       1.923   2.069  18.017  0.00  0.00    +0.000 A 
ATOM     19  N   UNL     1       2.127   3.225  17.386  0.00  0.00    +0.000 NA
ENDBRANCH  14  15
ENDBRANCH   2   9
BRANCH   7  20
ATOM     20  O   UNL     1       0.993   9.233  21.735  0.00  0.00    +0.000 OA
BRANCH  20  21
ATOM     21  C   UNL     1       0.246  10.381  21.902  0.00  0.00    +0.000 A 
ATOM     22  C   UNL     1      -0.844  10.259  22.745  0.00  0.00    +0.000 A 
ATOM     23  C   UNL     1      -1.549  11.404  23.097  0.00  0.00    +0.000 A 
ATOM     24  C   UNL     1      -1.090  12.655  22.685  0.00  0.00    +0.000 A 
ATOM     25  C   UNL     1      -1.740  13.834  23.096  0.00  0.00    +0.000 A 
ATOM     26  C   UNL     1      -1.203  15.080  22.788  0.00  0.00    +0.000 A 
ATOM     27  C   UNL     1      -0.034  15.149  22.044  0.00  0.00    +0.000 A 
ATOM     28  C   UNL     1       0.580  13.968  21.594  0.00  0.00    +0.000 A 
ATOM     29  C   UNL     1       0.083  12.703  21.897  0.00  0.00    +0.000 A 
ATOM     30  N   UNL     1       0.728  11.576  21.492  0.00  0.00    +0.000 NA
ENDBRANCH  20  21
ENDBRANCH   7  20
TORSDOF 4
ENDMDL
MODEL 3
REMARK VINA RESULT:      -8.3      1.328      1.536
REMARK  Name = 
REMARK  4 active torsions:
REMARK  status: ('A' for Active; 'I' for Inactive)
REMARK    1  A    between atoms: C_2  and  C_3
REMARK    2  A    between atoms: C_8  and  N_9
REMARK    3  A    between atoms: C_18  and  O_19
REMARK    4  A    between atoms: O_19  and  C_20
REMARK                            x       y       z     vdW  Elec       q    Type
REMARK                         _______ _______ _______ _____ _____    ______ ____
ROOT
ATOM      1  O   UNL     1       3.281   6.595  16.925  0.00  0.00    +0.000 OA
ATOM      2  C   UNL     1       2.952   6.138  18.014  0.00  0.00    +0.000 C 
ATOM      3  N   UNL     1       2.487   6.942  19.079  0.00  0.00    +0.000 N 
ATOM      4  C   UNL     1       2.340   6.493  20.462  0.00  0.00    +0.000 C 
ATOM      5  C   UNL     1       1.029   6.952  21.080  0.00  0.00    +0.000 C 
ATOM      6  C   UNL     1       0.875   8.461  20.994  0.00  0.00    +0.000 C 
ATOM      7  C   UNL     1       1.038   8.954  19.551  0.00  0.00    +0.000 C 
ATOM      8  C   UNL     1       2.335   8.405  18.893  0.00  0.00    +0.000 C 
ENDROOT
BRANCH   2   9
ATOM      9  C   UNL     1       3.121   4.661  18.231  0.00  0.00    +0.000 A 
ATOM     10  C   UNL     1       1.943   3.894  18.344  0.00  0.00    +0.000 A 
ATOM     11  C   UNL     1       1.980   2.499  18.432  0.00  0.00    +0.000 A 
ATOM     12  C   UNL     1       3.198   1.848  18.541  0.00  0.00    +0.000 A 
ATOM     13  C   UNL     1       4.372   2.598  18.595  0.00  0.00    +0.000 A 
ATOM     14  C   UNL     1       4.351   4.004  18.426  0.00  0.00    +0.000 A 
BRANCH  14  15
ATOM     15  N   UNL     1       5.605   4.665  18.471  0.00  0.00    +0.000 N 
ATOM     16  N   UNL     1       6.141   5.062  19.670  0.00  0.00    +0.000 NA
ATOM     17  C   UNL     1       7.273   5.655  19.293  0.00  0.00    +0.000 A 
ATOM     18  C   UNL     1       7.448   5.493  17.915  0.00  0.00    +0.000 A 
ATOM     19  N   UNL     1       6.414   4.831  17.395  0.00  0.00    +0.000 NA
ENDBRANCH  14  15
ENDBRANCH   2   9
BRANCH   7  20
ATOM     20  O   UNL     1       0.856  10.361  19.318  0.00  0.00    +0.000 OA
BRANCH  20  21
ATOM     21  C   UNL     1      -0.386  10.879  19.012  0.00  0.00    +0.000 A 
ATOM     22  C   UNL     1      -1.049  10.249  17.974  0.00  0.00    +0.000 A 
ATOM     23  C   UNL     1      -2.368  10.600  17.713  0.00  0.00    +0.000 A 
ATOM     24  C   UNL     1      -3.028  11.494  18.556  0.00  0.00    +0.000 A 
ATOM     25  C   UNL     1      -4.388  11.803  18.361  0.00  0.00    +0.000 A 
ATOM     26  C   UNL     1      -5.071  12.594  19.279  0.00  0.00    +0.000 A 
ATOM     27  C   UNL     1      -4.389  13.101  20.376  0.00  0.00    +0.000 A 
ATOM     28  C   UNL     1      -3.020  12.830  20.537  0.00  0.00    +0.000 A 
ATOM     29  C   UNL     1      -2.306  12.029  19.649  0.00  0.00    +0.000 A 
ATOM     30  N   UNL     1      -0.993  11.741  19.858  0.00  0.00    +0.000 NA
ENDBRANCH  20  21
ENDBRANCH   7  20
TORSDOF 4
ENDMDL
MODEL 4
REMARK VINA RESULT:      -8.1      1.673      2.035
REMARK  Name = 
REMARK  4 active torsions:
REMARK  status: ('A' for Active; 'I' for Inactive)
REMARK    1  A    between atoms: C_2  and  C_3
REMARK    2  A    between atoms: C_8  and  N_9
REMARK    3  A    between atoms: C_18  and  O_19
REMARK    4  A    between atoms: O_19  and  C_20
REMARK                            x       y       z     vdW  Elec       q    Type
REMARK                         _______ _______ _______ _____ _____    ______ ____
ROOT
ATOM      1  O   UNL     1       3.444   6.733  16.957  0.00  0.00    +0.000 OA
ATOM      2  C   UNL     1       2.999   6.262  17.998  0.00  0.00    +0.000 C 
ATOM      3  N   UNL     1       2.515   7.058  19.060  0.00  0.00    +0.000 N 
ATOM      4  C   UNL     1       2.229   6.569  20.407  0.00  0.00    +0.000 C 
ATOM      5  C   UNL     1       0.912   7.104  20.946  0.00  0.00    +0.000 C 
ATOM      6  C   UNL     1       0.878   8.622  20.916  0.00  0.00    +0.000 C 
ATOM      7  C   UNL     1       1.187   9.156  19.512  0.00  0.00    +0.000 C 
ATOM      8  C   UNL     1       2.486   8.534  18.927  0.00  0.00    +0.000 C 
ENDROOT
BRANCH   2   9
ATOM      9  C   UNL     1       3.041   4.769  18.161  0.00  0.00    +0.000 A 
ATOM     10  C   UNL     1       1.803   4.095  18.188  0.00  0.00    +0.000 A 
ATOM     11  C   UNL     1       1.726   2.699  18.220  0.00  0.00    +0.000 A 
ATOM     12  C   UNL     1       2.883   1.949  18.358  0.00  0.00    +0.000 A 
ATOM     13  C   UNL     1       4.107   2.600  18.498  0.00  0.00    +0.000 A 
ATOM     14  C   UNL     1       4.205   4.009  18.386  0.00  0.00    +0.000 A 
BRANCH  14  15
ATOM     15  N   UNL     1       5.503   4.565  18.517  0.00  0.00    +0.000 N 
ATOM     16  N   UNL     1       6.349   4.623  17.438  0.00  0.00    +0.000 NA
ATOM     17  C   UNL     1       7.446   5.166  17.966  0.00  0.00    +0.000 A 
ATOM     18  C   UNL     1       7.195   5.528  19.294  0.00  0.00    +0.000 A 
ATOM     19  N   UNL     1       5.953   5.186  19.636  0.00  0.00    +0.000 NA
ENDBRANCH  14  15
ENDBRANCH   2   9
BRANCH   7  20
ATOM     20  O   UNL     1       1.128  10.580  19.328  0.00  0.00    +0.000 OA
BRANCH  20  21
ATOM     21  C   UNL     1      -0.036  11.283  19.567  0.00  0.00    +0.000 A 
ATOM     22  C   UNL     1      -0.914  11.352  18.501  0.00  0.00    +0.000 A 
ATOM     23  C   UNL     1      -2.175  11.897  18.708  0.00  0.00    +0.000 A 
ATOM     24  C   UNL     1      -2.570  12.265  19.995  0.00  0.00    +0.000 A 
ATOM     25  C   UNL     1      -3.870  12.743  20.243  0.00  0.00    +0.000 A 
ATOM     26  C   UNL     1      -4.296  12.985  21.545  0.00  0.00    +0.000 A 
ATOM     27  C   UNL     1      -3.414  12.780  22.596  0.00  0.00    +0.000 A 
ATOM     28  C   UNL     1      -2.101  12.352  22.335  0.00  0.00    +0.000 A 
ATOM     29  C   UNL     1      -1.644  12.081  21.048  0.00  0.00    +0.000 A 
ATOM     30  N   UNL     1      -0.383  11.618  20.830  0.00  0.00    +0.000 NA
ENDBRANCH  20  21
ENDBRANCH   7  20
TORSDOF 4
ENDMDL
MODEL 5
REMARK VINA RESULT:      -8.0      0.766      1.039
REMARK  Name = 
REMARK  4 active torsions:
REMARK  status: ('A' for Active; 'I' for Inactive)
REMARK    1  A    between atoms: C_2  and  C_3
REMARK    2  A    between atoms: C_8  and  N_9
REMARK    3  A    between atoms: C_18  and  O_19
REMARK    4  A    between atoms: O_19  and  C_20
REMARK                            x       y       z     vdW  Elec       q    Type
REMARK                         _______ _______ _______ _____ _____    ______ ____
ROOT
ATOM      1  O   UNL     1       2.518   7.053  17.714  0.00  0.00    +0.000 OA
ATOM      2  C   UNL     1       2.230   6.899  18.895  0.00  0.00    +0.000 C 
ATOM      3  N   UNL     1       1.698   7.931  19.700  0.00  0.00    +0.000 N 
ATOM      4  C   UNL     1       1.591   7.882  21.157  0.00  0.00    +0.000 C 
ATOM      5  C   UNL     1       0.246   8.387  21.653  0.00  0.00    +0.000 C 
ATOM      6  C   UNL     1      -0.038   9.791  21.148  0.00  0.00    +0.000 C 
ATOM      7  C   UNL     1       0.080   9.866  19.621  0.00  0.00    +0.000 C 
ATOM      8  C   UNL     1       1.420   9.262  19.112  0.00  0.00    +0.000 C 
ENDROOT
BRANCH   2   9
ATOM      9  C   UNL     1       2.527   5.563  19.517  0.00  0.00    +0.000 A 
ATOM     10  C   UNL     1       1.651   5.122  20.530  0.00  0.00    +0.000 A 
ATOM     11  C   UNL     1       1.764   3.849  21.097  0.00  0.00    +0.000 A 
ATOM     12  C   UNL     1       2.833   3.036  20.756  0.00  0.00    +0.000 A 
ATOM     13  C   UNL     1       3.803   3.515  19.877  0.00  0.00    +0.000 A 
ATOM     14  C   UNL     1       3.656   4.770  19.237  0.00  0.00    +0.000 A 
BRANCH  14  15
ATOM     15  N   UNL     1       4.689   5.148  18.341  0.00  0.00    +0.000 N 
ATOM     16  N   UNL     1       5.790   5.830  18.793  0.00  0.00    +0.000 NA
ATOM     17  C   UNL     1       6.487   6.020  17.673  0.00  0.00    +0.000 A 
ATOM     18  C   UNL     1       5.861   5.352  16.615  0.00  0.00    +0.000 A 
ATOM     19  N   UNL     1       4.743   4.764  17.041  0.00  0.00    +0.000 NA
ENDBRANCH  14  15
ENDBRANCH   2   9
BRANCH   7  20
ATOM     20  O   UNL     1      -0.223  11.128  19.004  0.00  0.00    +0.000 OA
BRANCH  20  21
ATOM     21  C   UNL     1      -1.491  11.407  18.534  0.00  0.00    +0.000 A 
ATOM     22  C   UNL     1      -1.824  10.797  17.338  0.00  0.00    +0.000 A 
ATOM     23  C   UNL     1      -3.133  10.892  16.882  0.00  0.00    +0.000 A 
ATOM     24  C   UNL     1      -4.104  11.502  17.678  0.00  0.00    +0.000 A 
ATOM     25  C   UNL     1      -5.452  11.538  17.274  0.00  0.00    +0.000 A 
ATOM     26  C   UNL     1      -6.431  12.032  18.130  0.00  0.00    +0.000 A 
ATOM     27  C   UNL     1      -6.061  12.518  19.375  0.00  0.00    +0.000 A 
ATOM     28  C   UNL     1      -4.706  12.526  19.750  0.00  0.00    +0.000 A 
ATOM     29  C   UNL     1      -3.699  12.024  18.928  0.00  0.00    +0.000 A 
ATOM     30  N   UNL     1      -2.403  11.996  19.339  0.00  0.00    +0.000 NA
ENDBRANCH  20  21
ENDBRANCH   7  20
TORSDOF 4
ENDMDL
MODEL 6
REMARK VINA RESULT:      -7.9      2.592      3.452
REMARK  Name = 
REMARK  4 active torsions:
REMARK  status: ('A' for Active; 'I' for Inactive)
REMARK    1  A    between atoms: C_2  and  C_3
REMARK    2  A    between atoms: C_8  and  N_9
REMARK    3  A    between atoms: C_18  and  O_19
REMARK    4  A    between atoms: O_19  and  C_20
REMARK                            x       y       z     vdW  Elec       q    Type
REMARK                         _______ _______ _______ _____ _____    ______ ____
ROOT
ATOM      1  O   UNL     1       2.410   5.992  17.529  0.00  0.00    +0.000 OA
ATOM      2  C   UNL     1       2.260   6.118  18.739  0.00  0.00    +0.000 C 
ATOM      3  N   UNL     1       2.004   7.362  19.358  0.00  0.00    +0.000 N 
ATOM      4  C   UNL     1       2.083   7.611  20.796  0.00  0.00    +0.000 C 
ATOM      5  C   UNL     1       0.909   8.432  21.304  0.00  0.00    +0.000 C 
ATOM      6  C   UNL     1       0.782   9.742  20.547  0.00  0.00    +0.000 C 
ATOM      7  C   UNL     1       0.708   9.504  19.034  0.00  0.00    +0.000 C 
ATOM      8  C   UNL     1       1.860   8.586  18.535  0.00  0.00    +0.000 C 
ENDROOT
BRANCH   2   9
ATOM      9  C   UNL     1       2.426   4.894  19.594  0.00  0.00    +0.000 A 
ATOM     10  C   UNL     1       1.339   4.541  20.420  0.00  0.00    +0.000 A 
ATOM     11  C   UNL     1       1.339   3.361  21.170  0.00  0.00    +0.000 A 
ATOM     12  C   UNL     1       2.477   2.572  21.212  0.00  0.00    +0.000 A 
ATOM     13  C   UNL     1       3.621   2.985  20.532  0.00  0.00    +0.000 A 
ATOM     14  C   UNL     1       3.607   4.136  19.706  0.00  0.00    +0.000 A 
BRANCH  14  15
ATOM     15  N   UNL     1       4.818   4.450  19.039  0.00  0.00    +0.000 N 
ATOM     16  N   UNL     1       5.835   5.089  19.703  0.00  0.00    +0.000 NA
ATOM     17  C   UNL     1       6.755   5.227  18.749  0.00  0.00    +0.000 A 
ATOM     18  C   UNL     1       6.328   4.571  17.590  0.00  0.00    +0.000 A 
ATOM     19  N   UNL     1       5.119   4.042  17.781  0.00  0.00    +0.000 NA
ENDBRANCH  14  15
ENDBRANCH   2   9
BRANCH   7  20
ATOM     20  O   UNL     1       0.525  10.659  18.199  0.00  0.00    +0.000 OA
BRANCH  20  21
ATOM     21  C   UNL     1       0.940  11.910  18.609  0.00  0.00    +0.000 A 
ATOM     22  C   UNL     1       2.273  12.195  18.379  0.00  0.00    +0.000 A 
ATOM     23  C   UNL     1       2.730  13.487  18.610  0.00  0.00    +0.000 A 
ATOM     24  C   UNL     1       1.827  14.490  18.965  0.00  0.00    +0.000 A 
ATOM     25  C   UNL     1       2.252  15.822  19.125  0.00  0.00    +0.000 A 
ATOM     26  C   UNL     1       1.327  16.836  19.352  0.00  0.00    +0.000 A 
ATOM     27  C   UNL     1      -0.020  16.514  19.451  0.00  0.00    +0.000 A 
ATOM     28  C   UNL     1      -0.430  15.175  19.341  0.00  0.00    +0.000 A 
ATOM     29  C   UNL     1       0.464  14.135  19.096  0.00  0.00    +0.000 A 
ATOM     30  N   UNL     1       0.032  12.855  18.943  0.00  0.00    +0.000 NA
ENDBRANCH  20  21
ENDBRANCH   7  20
TORSDOF 4
ENDMDL
MODEL 7
REMARK VINA RESULT:      -7.9      4.908      8.733
REMARK  Name = 
REMARK  4 active torsions:
REMARK  status: ('A' for Active; 'I' for Inactive)
REMARK    1  A    between atoms: C_2  and  C_3
REMARK    2  A    between atoms: C_8  and  N_9
REMARK    3  A    between atoms: C_18  and  O_19
REMARK    4  A    between atoms: O_19  and  C_20
REMARK                            x       y       z     vdW  Elec       q    Type
REMARK                         _______ _______ _______ _____ _____    ______ ____
ROOT
ATOM      1  O   UNL     1       4.402   6.832  15.948  0.00  0.00    +0.000 OA
ATOM      2  C   UNL     1       4.769   6.105  16.864  0.00  0.00    +0.000 C 
ATOM      3  N   UNL     1       6.056   6.183  17.442  0.00  0.00    +0.000 N 
ATOM      4  C   UNL     1       6.631   5.180  18.337  0.00  0.00    +0.000 C 
ATOM      5  C   UNL     1       7.327   5.807  19.533  0.00  0.00    +0.000 C 
ATOM      6  C   UNL     1       8.390   6.800  19.098  0.00  0.00    +0.000 C 
ATOM      7  C   UNL     1       7.809   7.855  18.149  0.00  0.00    +0.000 C 
ATOM      8  C   UNL     1       7.018   7.209  16.976  0.00  0.00    +0.000 C 
ENDROOT
BRANCH   2   9
ATOM      9  C   UNL     1       3.817   5.042  17.334  0.00  0.00    +0.000 A 
ATOM     10  C   UNL     1       3.984   3.751  16.793  0.00  0.00    +0.000 A 
ATOM     11  C   UNL     1       3.231   2.662  17.242  0.00  0.00    +0.000 A 
ATOM     12  C   UNL     1       2.204   2.863  18.151  0.00  0.00    +0.000 A 
ATOM     13  C   UNL     1       1.913   4.158  18.578  0.00  0.00    +0.000 A 
ATOM     14  C   UNL     1       2.720   5.256  18.191  0.00  0.00    +0.000 A 
BRANCH  14  15
ATOM     15  N   UNL     1       2.351   6.524  18.706  0.00  0.00    +0.000 N 
ATOM     16  N   UNL     1       2.262   6.729  20.059  0.00  0.00    +0.000 NA
ATOM     17  C   UNL     1       1.868   8.000  20.130  0.00  0.00    +0.000 A 
ATOM     18  C   UNL     1       1.850   8.555  18.846  0.00  0.00    +0.000 A 
ATOM     19  N   UNL     1       2.194   7.636  17.944  0.00  0.00    +0.000 NA
ENDBRANCH  14  15
ENDBRANCH   2   9
BRANCH   7  20
ATOM     20  O   UNL     1       8.697   8.895  17.706  0.00  0.00    +0.000 OA
BRANCH  20  21
ATOM     21  C   UNL     1       8.820  10.076  18.410  0.00  0.00    +0.000 A 
ATOM     22  C   UNL     1       9.250   9.942  19.717  0.00  0.00    +0.000 A 
ATOM     23  C   UNL     1       9.558  11.088  20.440  0.00  0.00    +0.000 A 
ATOM     24  C   UNL     1       9.532  12.333  19.812  0.00  0.00    +0.000 A 
ATOM     25  C   UNL     1       9.918  13.499  20.500  0.00  0.00    +0.000 A 
ATOM     26  C   UNL     1      10.011  14.715  19.832  0.00  0.00    +0.000 A 
ATOM     27  C   UNL     1       9.689  14.774  18.483  0.00  0.00    +0.000 A 
ATOM     28  C   UNL     1       9.254  13.616  17.816  0.00  0.00    +0.000 A 
ATOM     29  C   UNL     1       9.166  12.377  18.447  0.00  0.00    +0.000 A 
ATOM     30  N   UNL     1       8.792  11.263  17.762  0.00  0.00    +0.000 NA
ENDBRANCH  20  21
ENDBRANCH   7  20
TORSDOF 4
ENDMDL
MODEL 8
REMARK VINA RESULT:      -7.9      3.033      9.514
REMARK  Name = 
REMARK  4 active torsions:
REMARK  status: ('A' for Active; 'I' for Inactive)
REMARK    1  A    between atoms: C_2  and  C_3
REMARK    2  A    between atoms: C_8  and  N_9
REMARK    3  A    between atoms: C_18  and  O_19
REMARK    4  A    between atoms: O_19  and  C_20
REMARK                            x       y       z     vdW  Elec       q    Type
REMARK                         _______ _______ _______ _____ _____    ______ ____
ROOT
ATOM      1  O   UNL     1       1.312  12.425  21.540  0.00  0.00    +0.000 OA
ATOM      2  C   UNL     1       0.181  12.276  21.089  0.00  0.00    +0.000 C 
ATOM      3  N   UNL     1      -0.075  11.696  19.826  0.00  0.00    +0.000 N 
ATOM      4  C   UNL     1      -1.361  11.738  19.133  0.00  0.00    +0.000 C 
ATOM      5  C   UNL     1      -1.735  10.394  18.531  0.00  0.00    +0.000 C 
ATOM      6  C   UNL     1      -0.649   9.883  17.601  0.00  0.00    +0.000 C 
ATOM      7  C   UNL     1       0.712   9.841  18.306  0.00  0.00    +0.000 C 
ATOM      8  C   UNL     1       1.048  11.191  19.000  0.00  0.00    +0.000 C 
ENDROOT
BRANCH   2   9
ATOM      9  C   UNL     1      -0.968  12.802  21.900  0.00  0.00    +0.000 A 
ATOM     10  C   UNL     1      -1.751  11.852  22.589  0.00  0.00    +0.000 A 
ATOM     11  C   UNL     1      -2.772  12.236  23.463  0.00  0.00    +0.000 A 
ATOM     12  C   UNL     1      -3.121  13.573  23.570  0.00  0.00    +0.000 A 
ATOM     13  C   UNL     1      -2.469  14.515  22.776  0.00  0.00    +0.000 A 
ATOM     14  C   UNL     1      -1.381  14.148  21.948  0.00  0.00    +0.000 A 
BRANCH  14  15
ATOM     15  N   UNL     1      -0.773  15.190  21.204  0.00  0.00    +0.000 N 
ATOM     16  N   UNL     1       0.264  15.914  21.735  0.00  0.00    +0.000 NA
ATOM     17  C   UNL     1       0.525  16.792  20.767  0.00  0.00    +0.000 A 
ATOM     18  C   UNL     1      -0.263  16.500  19.649  0.00  0.00    +0.000 A 
ATOM     19  N   UNL     1      -1.058  15.462  19.905  0.00  0.00    +0.000 NA
ENDBRANCH  14  15
ENDBRANCH   2   9
BRANCH   7  20
ATOM     20  O   UNL     1       1.821   9.318  17.556  0.00  0.00    +0.000 OA
BRANCH  20  21
ATOM     21  C   UNL     1       2.556   8.246  18.021  0.00  0.00    +0.000 A 
ATOM     22  C   UNL     1       2.096   7.681  19.196  0.00  0.00    +0.000 A 
ATOM     23  C   UNL     1       2.678   6.500  19.642  0.00  0.00    +0.000 A 
ATOM     24  C   UNL     1       3.632   5.855  18.854  0.00  0.00    +0.000 A 
ATOM     25  C   UNL     1       4.176   4.617  19.246  0.00  0.00    +0.000 A 
ATOM     26  C   UNL     1       5.028   3.921  18.395  0.00  0.00    +0.000 A 
ATOM     27  C   UNL     1       5.361   4.474  17.167  0.00  0.00    +0.000 A 
ATOM     28  C   UNL     1       4.855   5.735  16.806  0.00  0.00    +0.000 A 
ATOM     29  C   UNL     1       3.985   6.454  17.623  0.00  0.00    +0.000 A 
ATOM     30  N   UNL     1       3.469   7.648  17.224  0.00  0.00    +0.000 NA
ENDBRANCH  20  21
ENDBRANCH   7  20
TORSDOF 4
ENDMDL
MODEL 9
REMARK VINA RESULT:      -7.8      2.248      9.405
REMARK  Name = 
REMARK  4 active torsions:
REMARK  status: ('A' for Active; 'I' for Inactive)
REMARK    1  A    between atoms: C_2  and  C_3
REMARK    2  A    between atoms: C_8  and  N_9
REMARK    3  A    between atoms: C_18  and  O_19
REMARK    4  A    between atoms: O_19  and  C_20
REMARK                            x       y       z     vdW  Elec       q    Type
REMARK                         _______ _______ _______ _____ _____    ______ ____
ROOT
ATOM      1  O   UNL     1       2.033  10.943  17.472  0.00  0.00    +0.000 OA
ATOM      2  C   UNL     1       1.559  10.999  18.601  0.00  0.00    +0.000 C 
ATOM      3  N   UNL     1       1.235   9.851  19.359  0.00  0.00    +0.000 N 
ATOM      4  C   UNL     1       0.432   9.857  20.580  0.00  0.00    +0.000 C 
ATOM      5  C   UNL     1       1.031   8.980  21.667  0.00  0.00    +0.000 C 
ATOM      6  C   UNL     1       1.242   7.558  21.179  0.00  0.00    +0.000 C 
ATOM      7  C   UNL     1       2.074   7.531  19.891  0.00  0.00    +0.000 C 
ATOM      8  C   UNL     1       1.509   8.501  18.814  0.00  0.00    +0.000 C 
ENDROOT
BRANCH   2   9
ATOM      9  C   UNL     1       1.252  12.359  19.161  0.00  0.00    +0.000 A 
ATOM     10  C   UNL     1       2.309  13.039  19.801  0.00  0.00    +0.000 A 
ATOM     11  C   UNL     1       2.168  14.353  20.257  0.00  0.00    +0.000 A 
ATOM     12  C   UNL     1       0.930  14.972  20.201  0.00  0.00    +0.000 A 
ATOM     13  C   UNL     1      -0.169  14.261  19.721  0.00  0.00    +0.000 A 
ATOM     14  C   UNL     1      -0.021  12.959  19.184  0.00  0.00    +0.000 A 
BRANCH  14  15
ATOM     15  N   UNL     1      -1.200  12.338  18.699  0.00  0.00    +0.000 N 
ATOM     16  N   UNL     1      -2.255  12.089  19.540  0.00  0.00    +0.000 NA
ATOM     17  C   UNL     1      -3.127  11.486  18.733  0.00  0.00    +0.000 A 
ATOM     18  C   UNL     1      -2.636  11.498  17.424  0.00  0.00    +0.000 A 
ATOM     19  N   UNL     1      -1.434  12.073  17.389  0.00  0.00    +0.000 NA
ENDBRANCH  14  15
ENDBRANCH   2   9
BRANCH   7  20
ATOM     20  O   UNL     1       2.400   6.240  19.351  0.00  0.00    +0.000 OA
BRANCH  20  21
ATOM     21  C   UNL     1       3.635   5.994  18.786  0.00  0.00    +0.000 A 
ATOM     22  C   UNL     1       4.530   5.316  19.594  0.00  0.00    +0.000 A 
ATOM     23  C   UNL     1       5.732   4.885  19.045  0.00  0.00    +0.000 A 
ATOM     24  C   UNL     1       5.969   5.046  17.680  0.00  0.00    +0.000 A 
ATOM     25  C   UNL     1       7.142   4.545  17.085  0.00  0.00    +0.000 A 
ATOM     26  C   UNL     1       7.312   4.596  15.705  0.00  0.00    +0.000 A 
ATOM     27  C   UNL     1       6.324   5.175  14.922  0.00  0.00    +0.000 A 
ATOM     28  C   UNL     1       5.179   5.719  15.528  0.00  0.00    +0.000 A 
ATOM     29  C   UNL     1       4.965   5.671  16.904  0.00  0.00    +0.000 A 
ATOM     30  N   UNL     1       3.823   6.160  17.457  0.00  0.00    +0.000 NA
ENDBRANCH  20  21
ENDBRANCH   7  20
TORSDOF 4
ENDMDL
