MODEL 1
REMARK VINA RESULT:      -8.7      0.000      0.000
REMARK  Name = 
REMARK  6 active torsions:
REMARK  status: ('A' for Active; 'I' for Inactive)
REMARK    1  A    between atoms: C_1  and  C_2
REMARK    2  A    between atoms: N_11  and  C_12
REMARK    3  A    between atoms: C_14  and  O_15
REMARK    4  A    between atoms: O_15  and  C_16
REMARK    5  A    between atoms: C_20  and  S_21
REMARK    6  A    between atoms: S_21  and  C_22
REMARK                            x       y       z     vdW  Elec       q    Type
REMARK                         _______ _______ _______ _____ _____    ______ ____
ROOT
ATOM      1  C   UNL     1       1.010  10.142  19.320  0.00  0.00    +0.000 A 
ATOM      2  C   UNL     1       1.688   9.451  18.299  0.00  0.00    +0.000 A 
ATOM      3  C   UNL     1       2.116   8.132  18.487  0.00  0.00    +0.000 A 
ATOM      4  C   UNL     1       2.023   7.545  19.744  0.00  0.00    +0.000 A 
ATOM      5  C   UNL     1       1.393   8.233  20.780  0.00  0.00    +0.000 A 
ATOM      6  C   UNL     1       0.837   9.504  20.561  0.00  0.00    +0.000 A 
ATOM      7 CL   UNL     1      -0.200  10.079  21.822  0.00  0.00    +0.000 Cl
ENDROOT
BRANCH   1  18
ATOM      8  C   UNL     1      -1.835  10.808  18.211  0.00  0.00    +0.000 C 
ATOM      9  C   UNL     1      -0.733  11.769  18.477  0.00  0.00    +0.000 A 
ATOM     10  N   UNL     1      -0.887  13.068  18.337  0.00  0.00    +0.000 NA
ATOM     11  C   UNL     1       0.258  13.643  18.811  0.00  0.00    +0.000 A 
ATOM     12  C   UNL     1       0.617  14.996  18.929  0.00  0.00    +0.000 A 
ATOM     13 CL   UNL     1      -0.545  16.147  18.435  0.00  0.00    +0.000 Cl
ATOM     14  C   UNL     1       1.862  15.366  19.429  0.00  0.00    +0.000 A 
ATOM     15  C   UNL     1       2.780  14.377  19.772  0.00  0.00    +0.000 A 
ATOM     16  C   UNL     1       2.469  13.017  19.636  0.00  0.00    +0.000 A 
ATOM     17  C   UNL     1       1.173  12.666  19.212  0.00  0.00    +0.000 A 
ATOM     18  N   UNL     1       0.510  11.451  19.032  0.00  0.00    +0.000 N 
ENDBRANCH   1  18
BRANCH   3  19
ATOM     19  O   UNL     1       2.685   7.374  17.491  0.00  0.00    +0.000 OA
BRANCH  19  20
ATOM     20  C   UNL     1       3.516   6.325  17.833  0.00  0.00    +0.000 A 
ATOM     21  C   UNL     1       2.879   5.099  18.044  0.00  0.00    +0.000 A 
ATOM     22  C   UNL     1       3.611   3.976  18.434  0.00  0.00    +0.000 A 
ATOM     23  C   UNL     1       4.989   4.070  18.622  0.00  0.00    +0.000 A 
ATOM     24  C   UNL     1       5.630   5.284  18.365  0.00  0.00    +0.000 A 
ATOM     25  C   UNL     1       4.907   6.406  17.944  0.00  0.00    +0.000 A 
BRANCH  24  26
ATOM     26  S   UNL     1       7.376   5.421  18.673  0.00  0.00    +0.000 S 
ATOM     27  C   UNL     1       7.796   7.042  18.101  0.00  0.00    +0.000 C 
ATOM     28  O   UNL     1       7.574   5.412  20.109  0.00  0.00    +0.000 OA
ATOM     29  O   UNL     1       8.026   4.446  17.819  0.00  0.00    +0.000 OA
ENDBRANCH  24  26
ENDBRANCH  19  20
ENDBRANCH   3  19
TORSDOF 4
ENDMDL
MODEL 2
REMARK VINA RESULT:      -8.5      4.764      8.719
REMARK  Name = 
REMARK  6 active torsions:
REMARK  status: ('A' for Active; 'I' for Inactive)
REMARK    1  A    between atoms: C_1  and  C_2
REMARK    2  A    between atoms: N_11  and  C_12
REMARK    3  A    between atoms: C_14  and  O_15
REMARK    4  A    between atoms: O_15  and  C_16
REMARK    5  A    between atoms: C_20  and  S_21
REMARK    6  A    between atoms: S_21  and  C_22
REMARK                            x       y       z     vdW  Elec       q    Type
REMARK                         _______ _______ _______ _____ _____    ______ ____
ROOT
ATOM      1  C   UNL     1       2.512   6.726  18.947  0.00  0.00    +0.000 A 
ATOM      2  C   UNL     1       2.278   8.035  18.492  0.00  0.00    +0.000 A 
ATOM      3  C   UNL     1       1.665   8.984  19.318  0.00  0.00    +0.000 A 
ATOM      4  C   UNL     1       1.128   8.596  20.540  0.00  0.00    +0.000 A 
ATOM      5  C   UNL     1       1.311   7.288  20.988  0.00  0.00    +0.000 A 
ATOM      6  C   UNL     1       2.047   6.367  20.225  0.00  0.00    +0.000 A 
ATOM      7 CL   UNL     1       2.482   4.910  21.052  0.00  0.00    +0.000 Cl
ENDROOT
BRANCH   1  18
ATOM      8  C   UNL     1       1.389   4.091  17.695  0.00  0.00    +0.000 C 
ATOM      9  C   UNL     1       2.773   4.618  17.574  0.00  0.00    +0.000 A 
ATOM     10  N   UNL     1       3.682   4.033  16.824  0.00  0.00    +0.000 NA
ATOM     11  C   UNL     1       4.769   4.862  16.823  0.00  0.00    +0.000 A 
ATOM     12  C   UNL     1       6.003   4.745  16.162  0.00  0.00    +0.000 A 
ATOM     13 CL   UNL     1       6.217   3.373  15.167  0.00  0.00    +0.000 Cl
ATOM     14  C   UNL     1       6.993   5.710  16.318  0.00  0.00    +0.000 A 
ATOM     15  C   UNL     1       6.771   6.782  17.179  0.00  0.00    +0.000 A 
ATOM     16  C   UNL     1       5.565   6.913  17.880  0.00  0.00    +0.000 A 
ATOM     17  C   UNL     1       4.545   5.973  17.640  0.00  0.00    +0.000 A 
ATOM     18  N   UNL     1       3.232   5.832  18.093  0.00  0.00    +0.000 N 
ENDBRANCH   1  18
BRANCH   3  19
ATOM     19  O   UNL     1       1.510  10.305  18.966  0.00  0.00    +0.000 OA
BRANCH  19  20
ATOM     20  C   UNL     1       0.249  10.866  18.994  0.00  0.00    +0.000 A 
ATOM     21  C   UNL     1       0.050  11.847  19.969  0.00  0.00    +0.000 A 
ATOM     22  C   UNL     1      -1.196  12.458  20.120  0.00  0.00    +0.000 A 
ATOM     23  C   UNL     1      -2.259  12.089  19.298  0.00  0.00    +0.000 A 
ATOM     24  C   UNL     1      -2.047  11.142  18.293  0.00  0.00    +0.000 A 
ATOM     25  C   UNL     1      -0.792  10.548  18.117  0.00  0.00    +0.000 A 
BRANCH  24  26
ATOM     26  S   UNL     1      -3.421  10.620  17.293  0.00  0.00    +0.000 S 
ATOM     27  C   UNL     1      -2.751  10.491  15.660  0.00  0.00    +0.000 C 
ATOM     28  O   UNL     1      -3.788   9.281  17.709  0.00  0.00    +0.000 OA
ATOM     29  O   UNL     1      -4.384  11.704  17.313  0.00  0.00    +0.000 OA
ENDBRANCH  24  26
ENDBRANCH  19  20
ENDBRANCH   3  19
TORSDOF 4
ENDMDL
MODEL 3
REMARK VINA RESULT:      -8.3      4.961      8.835
REMARK  Name = 
REMARK  6 active torsions:
REMARK  status: ('A' for Active; 'I' for Inactive)
REMARK    1  A    between atoms: C_1  and  C_2
REMARK    2  A    between atoms: N_11  and  C_12
REMARK    3  A    between atoms: C_14  and  O_15
REMARK    4  A    between atoms: O_15  and  C_16
REMARK    5  A    between atoms: C_20  and  S_21
REMARK    6  A    between atoms: S_21  and  C_22
REMARK                            x       y       z     vdW  Elec       q    Type
REMARK                         _______ _______ _______ _____ _____    ______ ____
ROOT
ATOM      1  C   UNL     1       2.511   6.593  18.943  0.00  0.00    +0.000 A 
ATOM      2  C   UNL     1       2.188   7.886  18.493  0.00  0.00    +0.000 A 
ATOM      3  C   UNL     1       1.557   8.804  19.340  0.00  0.00    +0.000 A 
ATOM      4  C   UNL     1       1.092   8.393  20.584  0.00  0.00    +0.000 A 
ATOM      5  C   UNL     1       1.365   7.100  21.028  0.00  0.00    +0.000 A 
ATOM      6  C   UNL     1       2.119   6.216  20.239  0.00  0.00    +0.000 A 
ATOM      7 CL   UNL     1       2.666   4.790  21.053  0.00  0.00    +0.000 Cl
ENDROOT
BRANCH   1  18
ATOM      8  C   UNL     1       1.447   3.949  17.661  0.00  0.00    +0.000 C 
ATOM      9  C   UNL     1       2.814   4.518  17.530  0.00  0.00    +0.000 A 
ATOM     10  N   UNL     1       3.728   3.972  16.757  0.00  0.00    +0.000 NA
ATOM     11  C   UNL     1       4.790   4.833  16.754  0.00  0.00    +0.000 A 
ATOM     12  C   UNL     1       6.017   4.763  16.073  0.00  0.00    +0.000 A 
ATOM     13 CL   UNL     1       6.256   3.415  15.052  0.00  0.00    +0.000 Cl
ATOM     14  C   UNL     1       6.981   5.754  16.232  0.00  0.00    +0.000 A 
ATOM     15  C   UNL     1       6.740   6.805  17.115  0.00  0.00    +0.000 A 
ATOM     16  C   UNL     1       5.541   6.889  17.835  0.00  0.00    +0.000 A 
ATOM     17  C   UNL     1       4.545   5.923  17.593  0.00  0.00    +0.000 A 
ATOM     18  N   UNL     1       3.245   5.736  18.063  0.00  0.00    +0.000 N 
ENDBRANCH   1  18
BRANCH   3  19
ATOM     19  O   UNL     1       1.316  10.112  18.990  0.00  0.00    +0.000 OA
BRANCH  19  20
ATOM     20  C   UNL     1       0.011  10.549  18.873  0.00  0.00    +0.000 A 
ATOM     21  C   UNL     1      -0.695  10.042  17.779  0.00  0.00    +0.000 A 
ATOM     22  C   UNL     1      -2.010  10.443  17.533  0.00  0.00    +0.000 A 
ATOM     23  C   UNL     1      -2.630  11.359  18.381  0.00  0.00    +0.000 A 
ATOM     24  C   UNL     1      -1.940  11.829  19.500  0.00  0.00    +0.000 A 
ATOM     25  C   UNL     1      -0.633  11.408  19.769  0.00  0.00    +0.000 A 
BRANCH  24  26
ATOM     26  S   UNL     1      -2.706  13.052  20.539  0.00  0.00    +0.000 S 
ATOM     27  C   UNL     1      -2.479  12.436  22.182  0.00  0.00    +0.000 C 
ATOM     28  O   UNL     1      -1.932  14.272  20.430  0.00  0.00    +0.000 OA
ATOM     29  O   UNL     1      -4.123  13.030  20.229  0.00  0.00    +0.000 OA
ENDBRANCH  24  26
ENDBRANCH  19  20
ENDBRANCH   3  19
TORSDOF 4
ENDMDL
MODEL 4
REMARK VINA RESULT:      -8.2      1.730      2.335
REMARK  Name = 
REMARK  6 active torsions:
REMARK  status: ('A' for Active; 'I' for Inactive)
REMARK    1  A    between atoms: C_1  and  C_2
REMARK    2  A    between atoms: N_11  and  C_12
REMARK    3  A    between atoms: C_14  and  O_15
REMARK    4  A    between atoms: O_15  and  C_16
REMARK    5  A    between atoms: C_20  and  S_21
REMARK    6  A    between atoms: S_21  and  C_22
REMARK                            x       y       z     vdW  Elec       q    Type
REMARK                         _______ _______ _______ _____ _____    ______ ____
ROOT
ATOM      1  C   UNL     1       0.951  10.192  19.551  0.00  0.00    +0.000 A 
ATOM      2  C   UNL     1       1.510   9.371  18.555  0.00  0.00    +0.000 A 
ATOM      3  C   UNL     1       1.879   8.051  18.836  0.00  0.00    +0.000 A 
ATOM      4  C   UNL     1       1.853   7.588  20.147  0.00  0.00    +0.000 A 
ATOM      5  C   UNL     1       1.343   8.405  21.155  0.00  0.00    +0.000 A 
ATOM      6  C   UNL     1       0.841   9.682  20.856  0.00  0.00    +0.000 A 
ATOM      7 CL   UNL     1      -0.063  10.432  22.128  0.00  0.00    +0.000 Cl
ENDROOT
BRANCH   1  18
ATOM      8  C   UNL     1      -1.776  10.860  18.177  0.00  0.00    +0.000 C 
ATOM      9  C   UNL     1      -0.684  11.813  18.504  0.00  0.00    +0.000 A 
ATOM     10  N   UNL     1      -0.803  13.109  18.307  0.00  0.00    +0.000 NA
ATOM     11  C   UNL     1       0.307  13.684  18.859  0.00  0.00    +0.000 A 
ATOM     12  C   UNL     1       0.679  15.034  18.961  0.00  0.00    +0.000 A 
ATOM     13 CL   UNL     1      -0.416  16.184  18.329  0.00  0.00    +0.000 Cl
ATOM     14  C   UNL     1       1.882  15.404  19.554  0.00  0.00    +0.000 A 
ATOM     15  C   UNL     1       2.750  14.414  20.009  0.00  0.00    +0.000 A 
ATOM     16  C   UNL     1       2.427  13.055  19.894  0.00  0.00    +0.000 A 
ATOM     17  C   UNL     1       1.167  12.708  19.371  0.00  0.00    +0.000 A 
ATOM     18  N   UNL     1       0.501  11.497  19.176  0.00  0.00    +0.000 N 
ENDBRANCH   1  18
BRANCH   3  19
ATOM     19  O   UNL     1       2.328   7.172  17.879  0.00  0.00    +0.000 OA
BRANCH  19  20
ATOM     20  C   UNL     1       3.288   6.239  18.218  0.00  0.00    +0.000 A 
ATOM     21  C   UNL     1       4.603   6.586  17.896  0.00  0.00    +0.000 A 
ATOM     22  C   UNL     1       5.655   5.705  18.154  0.00  0.00    +0.000 A 
ATOM     23  C   UNL     1       5.400   4.463  18.733  0.00  0.00    +0.000 A 
ATOM     24  C   UNL     1       4.091   4.136  19.097  0.00  0.00    +0.000 A 
ATOM     25  C   UNL     1       3.037   5.028  18.869  0.00  0.00    +0.000 A 
BRANCH  24  26
ATOM     26  S   UNL     1       3.758   2.525  19.769  0.00  0.00    +0.000 S 
ATOM     27  C   UNL     1       2.614   2.826  21.086  0.00  0.00    +0.000 C 
ATOM     28  O   UNL     1       3.052   1.762  18.760  0.00  0.00    +0.000 OA
ATOM     29  O   UNL     1       5.003   2.047  20.339  0.00  0.00    +0.000 OA
ENDBRANCH  24  26
ENDBRANCH  19  20
ENDBRANCH   3  19
TORSDOF 4
ENDMDL
MODEL 5
REMARK VINA RESULT:      -8.1      2.523      3.375
REMARK  Name = 
REMARK  6 active torsions:
REMARK  status: ('A' for Active; 'I' for Inactive)
REMARK    1  A    between atoms: C_1  and  C_2
REMARK    2  A    between atoms: N_11  and  C_12
REMARK    3  A    between atoms: C_14  and  O_15
REMARK    4  A    between atoms: O_15  and  C_16
REMARK    5  A    between atoms: C_20  and  S_21
REMARK    6  A    between atoms: S_21  and  C_22
REMARK                            x       y       z     vdW  Elec       q    Type
REMARK                         _______ _______ _______ _____ _____    ______ ____
ROOT
ATOM      1  C   UNL     1       1.039   9.404  19.954  0.00  0.00    +0.000 A 
ATOM      2  C   UNL     1       1.333   8.052  20.206  0.00  0.00    +0.000 A 
ATOM      3  C   UNL     1       2.165   7.326  19.346  0.00  0.00    +0.000 A 
ATOM      4  C   UNL     1       2.574   7.886  18.141  0.00  0.00    +0.000 A 
ATOM      5  C   UNL     1       2.254   9.212  17.854  0.00  0.00    +0.000 A 
ATOM      6  C   UNL     1       1.537   9.991  18.777  0.00  0.00    +0.000 A 
ATOM      7 CL   UNL     1       1.514  11.689  18.444  0.00  0.00    +0.000 Cl
ENDROOT
BRANCH   1  18
ATOM      8  C   UNL     1       1.527   9.403  23.041  0.00  0.00    +0.000 C 
ATOM      9  C   UNL     1       0.426  10.084  22.311  0.00  0.00    +0.000 A 
ATOM     10  N   UNL     1      -0.448  10.854  22.923  0.00  0.00    +0.000 NA
ATOM     11  C   UNL     1      -1.204  11.430  21.940  0.00  0.00    +0.000 A 
ATOM     12  C   UNL     1      -2.254  12.359  22.025  0.00  0.00    +0.000 A 
ATOM     13 CL   UNL     1      -2.673  12.906  23.588  0.00  0.00    +0.000 Cl
ATOM     14  C   UNL     1      -2.910  12.805  20.882  0.00  0.00    +0.000 A 
ATOM     15  C   UNL     1      -2.548  12.286  19.642  0.00  0.00    +0.000 A 
ATOM     16  C   UNL     1      -1.527  11.333  19.522  0.00  0.00    +0.000 A 
ATOM     17  C   UNL     1      -0.819  10.962  20.681  0.00  0.00    +0.000 A 
ATOM     18  N   UNL     1       0.267  10.119  20.923  0.00  0.00    +0.000 N 
ENDBRANCH   1  18
BRANCH   3  19
ATOM     19  O   UNL     1       2.573   6.037  19.599  0.00  0.00    +0.000 OA
BRANCH  19  20
ATOM     20  C   UNL     1       3.361   5.385  18.672  0.00  0.00    +0.000 A 
ATOM     21  C   UNL     1       2.710   4.411  17.910  0.00  0.00    +0.000 A 
ATOM     22  C   UNL     1       3.413   3.657  16.967  0.00  0.00    +0.000 A 
ATOM     23  C   UNL     1       4.778   3.869  16.782  0.00  0.00    +0.000 A 
ATOM     24  C   UNL     1       5.418   4.874  17.511  0.00  0.00    +0.000 A 
ATOM     25  C   UNL     1       4.712   5.654  18.434  0.00  0.00    +0.000 A 
BRANCH  24  26
ATOM     26  S   UNL     1       7.172   5.094  17.325  0.00  0.00    +0.000 S 
ATOM     27  C   UNL     1       7.414   6.840  17.476  0.00  0.00    +0.000 C 
ATOM     28  O   UNL     1       7.818   4.474  18.464  0.00  0.00    +0.000 OA
ATOM     29  O   UNL     1       7.498   4.697  15.969  0.00  0.00    +0.000 OA
ENDBRANCH  24  26
ENDBRANCH  19  20
ENDBRANCH   3  19
TORSDOF 4
ENDMDL
MODEL 6
REMARK VINA RESULT:      -7.9      4.756      8.695
REMARK  Name = 
REMARK  6 active torsions:
REMARK  status: ('A' for Active; 'I' for Inactive)
REMARK    1  A    between atoms: C_1  and  C_2
REMARK    2  A    between atoms: N_11  and  C_12
REMARK    3  A    between atoms: C_14  and  O_15
REMARK    4  A    between atoms: O_15  and  C_16
REMARK    5  A    between atoms: C_20  and  S_21
REMARK    6  A    between atoms: S_21  and  C_22
REMARK                            x       y       z     vdW  Elec       q    Type
REMARK                         _______ _______ _______ _____ _____    ______ ____
ROOT
ATOM      1  C   UNL     1       2.518   6.727  18.890  0.00  0.00    +0.000 A 
ATOM      2  C   UNL     1       2.261   8.023  18.409  0.00  0.00    +0.000 A 
ATOM      3  C   UNL     1       1.645   8.981  19.222  0.00  0.00    +0.000 A 
ATOM      4  C   UNL     1       1.128   8.612  20.459  0.00  0.00    +0.000 A 
ATOM      5  C   UNL     1       1.335   7.318  20.933  0.00  0.00    +0.000 A 
ATOM      6  C   UNL     1       2.074   6.390  20.181  0.00  0.00    +0.000 A 
ATOM      7 CL   UNL     1       2.539   4.957  21.034  0.00  0.00    +0.000 Cl
ENDROOT
BRANCH   1  18
ATOM      8  C   UNL     1       1.403   4.072  17.675  0.00  0.00    +0.000 C 
ATOM      9  C   UNL     1       2.786   4.602  17.545  0.00  0.00    +0.000 A 
ATOM     10  N   UNL     1       3.695   4.011  16.801  0.00  0.00    +0.000 NA
ATOM     11  C   UNL     1       4.779   4.843  16.786  0.00  0.00    +0.000 A 
ATOM     12  C   UNL     1       6.012   4.723  16.125  0.00  0.00    +0.000 A 
ATOM     13 CL   UNL     1       6.230   3.338  15.149  0.00  0.00    +0.000 Cl
ATOM     14  C   UNL     1       6.999   5.694  16.267  0.00  0.00    +0.000 A 
ATOM     15  C   UNL     1       6.774   6.776  17.114  0.00  0.00    +0.000 A 
ATOM     16  C   UNL     1       5.568   6.912  17.815  0.00  0.00    +0.000 A 
ATOM     17  C   UNL     1       4.552   5.965  17.589  0.00  0.00    +0.000 A 
ATOM     18  N   UNL     1       3.241   5.825  18.047  0.00  0.00    +0.000 N 
ENDBRANCH   1  18
BRANCH   3  19
ATOM     19  O   UNL     1       1.467  10.292  18.844  0.00  0.00    +0.000 OA
BRANCH  19  20
ATOM     20  C   UNL     1       0.419  11.013  19.382  0.00  0.00    +0.000 A 
ATOM     21  C   UNL     1      -0.807  10.867  18.728  0.00  0.00    +0.000 A 
ATOM     22  C   UNL     1      -1.930  11.578  19.156  0.00  0.00    +0.000 A 
ATOM     23  C   UNL     1      -1.835  12.446  20.243  0.00  0.00    +0.000 A 
ATOM     24  C   UNL     1      -0.621  12.555  20.924  0.00  0.00    +0.000 A 
ATOM     25  C   UNL     1       0.501  11.822  20.519  0.00  0.00    +0.000 A 
BRANCH  24  26
ATOM     26  S   UNL     1      -0.482  13.715  22.264  0.00  0.00    +0.000 S 
ATOM     27  C   UNL     1      -1.539  15.055  21.796  0.00  0.00    +0.000 C 
ATOM     28  O   UNL     1      -1.065  13.104  23.441  0.00  0.00    +0.000 OA
ATOM     29  O   UNL     1       0.890  14.186  22.263  0.00  0.00    +0.000 OA
ENDBRANCH  24  26
ENDBRANCH  19  20
ENDBRANCH   3  19
TORSDOF 4
ENDMDL
MODEL 7
REMARK VINA RESULT:      -7.9      2.724      3.826
REMARK  Name = 
REMARK  6 active torsions:
REMARK  status: ('A' for Active; 'I' for Inactive)
REMARK    1  A    between atoms: C_1  and  C_2
REMARK    2  A    between atoms: N_11  and  C_12
REMARK    3  A    between atoms: C_14  and  O_15
REMARK    4  A    between atoms: O_15  and  C_16
REMARK    5  A    between atoms: C_20  and  S_21
REMARK    6  A    between atoms: S_21  and  C_22
REMARK                            x       y       z     vdW  Elec       q    Type
REMARK                         _______ _______ _______ _____ _____    ______ ____
ROOT
ATOM      1  C   UNL     1       0.468  10.969  20.061  0.00  0.00    +0.000 A 
ATOM      2  C   UNL     1       0.467   9.740  19.377  0.00  0.00    +0.000 A 
ATOM      3  C   UNL     1       1.402   9.479  18.369  0.00  0.00    +0.000 A 
ATOM      4  C   UNL     1       2.235  10.496  17.916  0.00  0.00    +0.000 A 
ATOM      5  C   UNL     1       2.217  11.735  18.553  0.00  0.00    +0.000 A 
ATOM      6  C   UNL     1       1.379  11.960  19.658  0.00  0.00    +0.000 A 
ATOM      7 CL   UNL     1       1.711  13.407  20.549  0.00  0.00    +0.000 Cl
ENDROOT
BRANCH   1  18
ATOM      8  C   UNL     1       0.620   9.504  22.817  0.00  0.00    +0.000 C 
ATOM      9  C   UNL     1      -0.436  10.447  22.365  0.00  0.00    +0.000 A 
ATOM     10  N   UNL     1      -1.415  10.834  23.154  0.00  0.00    +0.000 NA
ATOM     11  C   UNL     1      -2.094  11.806  22.474  0.00  0.00    +0.000 A 
ATOM     12  C   UNL     1      -3.201  12.581  22.856  0.00  0.00    +0.000 A 
ATOM     13 CL   UNL     1      -3.819  12.319  24.427  0.00  0.00    +0.000 Cl
ATOM     14  C   UNL     1      -3.756  13.515  21.987  0.00  0.00    +0.000 A 
ATOM     15  C   UNL     1      -3.232  13.647  20.703  0.00  0.00    +0.000 A 
ATOM     16  C   UNL     1      -2.149  12.867  20.276  0.00  0.00    +0.000 A 
ATOM     17  C   UNL     1      -1.548  11.991  21.201  0.00  0.00    +0.000 A 
ATOM     18  N   UNL     1      -0.446  11.137  21.149  0.00  0.00    +0.000 N 
ENDBRANCH   1  18
BRANCH   3  19
ATOM     19  O   UNL     1       1.518   8.259  17.743  0.00  0.00    +0.000 OA
BRANCH  19  20
ATOM     20  C   UNL     1       2.481   7.369  18.175  0.00  0.00    +0.000 A 
ATOM     21  C   UNL     1       2.199   6.716  19.378  0.00  0.00    +0.000 A 
ATOM     22  C   UNL     1       3.117   5.823  19.935  0.00  0.00    +0.000 A 
ATOM     23  C   UNL     1       4.330   5.578  19.294  0.00  0.00    +0.000 A 
ATOM     24  C   UNL     1       4.591   6.196  18.069  0.00  0.00    +0.000 A 
ATOM     25  C   UNL     1       3.662   7.068  17.490  0.00  0.00    +0.000 A 
BRANCH  24  26
ATOM     26  S   UNL     1       6.168   5.939  17.289  0.00  0.00    +0.000 S 
ATOM     27  C   UNL     1       7.338   6.080  18.608  0.00  0.00    +0.000 C 
ATOM     28  O   UNL     1       6.213   4.567  16.825  0.00  0.00    +0.000 OA
ATOM     29  O   UNL     1       6.364   7.048  16.375  0.00  0.00    +0.000 OA
ENDBRANCH  24  26
ENDBRANCH  19  20
ENDBRANCH   3  19
TORSDOF 4
ENDMDL
MODEL 8
REMARK VINA RESULT:      -7.9      2.245      2.422
REMARK  Name = 
REMARK  6 active torsions:
REMARK  status: ('A' for Active; 'I' for Inactive)
REMARK    1  A    between atoms: C_1  and  C_2
REMARK    2  A    between atoms: N_11  and  C_12
REMARK    3  A    between atoms: C_14  and  O_15
REMARK    4  A    between atoms: O_15  and  C_16
REMARK    5  A    between atoms: C_20  and  S_21
REMARK    6  A    between atoms: S_21  and  C_22
REMARK                            x       y       z     vdW  Elec       q    Type
REMARK                         _______ _______ _______ _____ _____    ______ ____
ROOT
ATOM      1  C   UNL     1       0.150   9.799  20.004  0.00  0.00    +0.000 A 
ATOM      2  C   UNL     1       0.973   9.627  18.877  0.00  0.00    +0.000 A 
ATOM      3  C   UNL     1       1.901   8.582  18.818  0.00  0.00    +0.000 A 
ATOM      4  C   UNL     1       2.139   7.802  19.945  0.00  0.00    +0.000 A 
ATOM      5  C   UNL     1       1.363   7.989  21.088  0.00  0.00    +0.000 A 
ATOM      6  C   UNL     1       0.334   8.944  21.106  0.00  0.00    +0.000 A 
ATOM      7 CL   UNL     1      -0.754   8.827  22.447  0.00  0.00    +0.000 Cl
ENDROOT
BRANCH   1  18
ATOM      8  C   UNL     1      -2.119  10.051  17.870  0.00  0.00    +0.000 C 
ATOM      9  C   UNL     1      -1.832  10.993  18.984  0.00  0.00    +0.000 A 
ATOM     10  N   UNL     1      -2.595  12.034  19.234  0.00  0.00    +0.000 NA
ATOM     11  C   UNL     1      -2.135  12.575  20.402  0.00  0.00    +0.000 A 
ATOM     12  C   UNL     1      -2.599  13.675  21.143  0.00  0.00    +0.000 A 
ATOM     13 CL   UNL     1      -3.975  14.485  20.537  0.00  0.00    +0.000 Cl
ATOM     14  C   UNL     1      -1.958  14.072  22.312  0.00  0.00    +0.000 A 
ATOM     15  C   UNL     1      -0.814  13.395  22.727  0.00  0.00    +0.000 A 
ATOM     16  C   UNL     1      -0.303  12.314  21.995  0.00  0.00    +0.000 A 
ATOM     17  C   UNL     1      -1.017  11.875  20.864  0.00  0.00    +0.000 A 
ATOM     18  N   UNL     1      -0.848  10.823  19.962  0.00  0.00    +0.000 N 
ENDBRANCH   1  18
BRANCH   3  19
ATOM     19  O   UNL     1       2.653   8.300  17.701  0.00  0.00    +0.000 OA
BRANCH  19  20
ATOM     20  C   UNL     1       3.278   7.073  17.601  0.00  0.00    +0.000 A 
ATOM     21  C   UNL     1       2.464   5.963  17.845  0.00  0.00    +0.000 A 
ATOM     22  C   UNL     1       2.994   4.671  17.813  0.00  0.00    +0.000 A 
ATOM     23  C   UNL     1       4.347   4.478  17.539  0.00  0.00    +0.000 A 
ATOM     24  C   UNL     1       5.149   5.585  17.250  0.00  0.00    +0.000 A 
ATOM     25  C   UNL     1       4.617   6.879  17.251  0.00  0.00    +0.000 A 
BRANCH  24  26
ATOM     26  S   UNL     1       6.888   5.343  16.973  0.00  0.00    +0.000 S 
ATOM     27  C   UNL     1       6.969   4.438  15.454  0.00  0.00    +0.000 C 
ATOM     28  O   UNL     1       7.481   6.642  16.726  0.00  0.00    +0.000 OA
ATOM     29  O   UNL     1       7.364   4.490  18.045  0.00  0.00    +0.000 OA
ENDBRANCH  24  26
ENDBRANCH  19  20
ENDBRANCH   3  19
TORSDOF 4
ENDMDL
MODEL 9
REMARK VINA RESULT:      -7.8      5.359      9.511
REMARK  Name = 
REMARK  6 active torsions:
REMARK  status: ('A' for Active; 'I' for Inactive)
REMARK    1  A    between atoms: C_1  and  C_2
REMARK    2  A    between atoms: N_11  and  C_12
REMARK    3  A    between atoms: C_14  and  O_15
REMARK    4  A    between atoms: O_15  and  C_16
REMARK    5  A    between atoms: C_20  and  S_21
REMARK    6  A    between atoms: S_21  and  C_22
REMARK                            x       y       z     vdW  Elec       q    Type
REMARK                         _______ _______ _______ _____ _____    ______ ____
ROOT
ATOM      1  C   UNL     1      -0.098  10.797  19.721  0.00  0.00    +0.000 A 
ATOM      2  C   UNL     1      -1.340  10.731  19.065  0.00  0.00    +0.000 A 
ATOM      3  C   UNL     1      -1.990  11.896  18.641  0.00  0.00    +0.000 A 
ATOM      4  C   UNL     1      -1.496  13.141  19.013  0.00  0.00    +0.000 A 
ATOM      5  C   UNL     1      -0.288  13.223  19.703  0.00  0.00    +0.000 A 
ATOM      6  C   UNL     1       0.442  12.063  20.011  0.00  0.00    +0.000 A 
ATOM      7 CL   UNL     1       2.063  12.336  20.552  0.00  0.00    +0.000 Cl
ENDROOT
BRANCH   1  18
ATOM      8  C   UNL     1      -0.406   9.194  22.387  0.00  0.00    +0.000 C 
ATOM      9  C   UNL     1       0.491   8.868  21.247  0.00  0.00    +0.000 A 
ATOM     10  N   UNL     1       1.221   7.774  21.221  0.00  0.00    +0.000 NA
ATOM     11  C   UNL     1       1.788   7.721  19.979  0.00  0.00    +0.000 A 
ATOM     12  C   UNL     1       2.628   6.756  19.401  0.00  0.00    +0.000 A 
ATOM     13 CL   UNL     1       3.012   5.395  20.360  0.00  0.00    +0.000 Cl
ATOM     14  C   UNL     1       3.115   6.912  18.107  0.00  0.00    +0.000 A 
ATOM     15  C   UNL     1       2.800   8.066  17.395  0.00  0.00    +0.000 A 
ATOM     16  C   UNL     1       1.991   9.066  17.951  0.00  0.00    +0.000 A 
ATOM     17  C   UNL     1       1.438   8.847  19.228  0.00  0.00    +0.000 A 
ATOM     18  N   UNL     1       0.563   9.569  20.040  0.00  0.00    +0.000 N 
ENDBRANCH   1  18
BRANCH   3  19
ATOM     19  O   UNL     1      -3.150  11.887  17.901  0.00  0.00    +0.000 OA
BRANCH  19  20
ATOM     20  C   UNL     1      -4.361  11.743  18.548  0.00  0.00    +0.000 A 
ATOM     21  C   UNL     1      -5.329  11.011  17.855  0.00  0.00    +0.000 A 
ATOM     22  C   UNL     1      -6.606  10.833  18.391  0.00  0.00    +0.000 A 
ATOM     23  C   UNL     1      -6.928  11.391  19.627  0.00  0.00    +0.000 A 
ATOM     24  C   UNL     1      -5.946  12.083  20.340  0.00  0.00    +0.000 A 
ATOM     25  C   UNL     1      -4.656  12.239  19.822  0.00  0.00    +0.000 A 
BRANCH  24  26
ATOM     26  S   UNL     1      -6.380  12.856  21.882  0.00  0.00    +0.000 S 
ATOM     27  C   UNL     1      -7.915  12.101  22.334  0.00  0.00    +0.000 C 
ATOM     28  O   UNL     1      -5.399  12.451  22.869  0.00  0.00    +0.000 OA
ATOM     29  O   UNL     1      -6.620  14.256  21.590  0.00  0.00    +0.000 OA
ENDBRANCH  24  26
ENDBRANCH  19  20
ENDBRANCH   3  19
TORSDOF 4
ENDMDL
