MODEL 1
REMARK VINA RESULT:      -7.5      0.000      0.000
REMARK  Name = 
REMARK  8 active torsions:
REMARK  status: ('A' for Active; 'I' for Inactive)
REMARK    1  A    between atoms: C_2  and  C_14
REMARK    2  A    between atoms: N_3  and  C_4
REMARK    3  A    between atoms: C_4  and  C_5
REMARK    4  A    between atoms: C_5  and  C_6
REMARK    5  A    between atoms: C_9  and  O_10
REMARK    6  A    between atoms: C_11  and  O_12
REMARK    7  A    between atoms: C_18  and  O_19
REMARK    8  A    between atoms: C_20  and  O_21
REMARK                            x       y       z     vdW  Elec       q    Type
REMARK                         _______ _______ _______ _____ _____    ______ ____
ROOT
ATOM      1  O   UNL     1       3.770   5.882  17.705  0.00  0.00    +0.000 OA
ATOM      2  C   UNL     1       3.676   4.673  17.882  0.00  0.00    +0.000 C 
ATOM      3  N   UNL     1       4.206   3.748  17.013  0.00  0.00    +0.000 N 
ATOM      4  H   UNL     1       4.143   2.767  17.278  0.00  0.00    +0.000 HD
ENDROOT
BRANCH   2   5
ATOM      5  C   UNL     1       2.941   4.131  19.067  0.00  0.00    +0.000 A 
ATOM      6  C   UNL     1       1.590   4.493  19.213  0.00  0.00    +0.000 A 
ATOM      7  C   UNL     1       0.823   3.998  20.277  0.00  0.00    +0.000 A 
ATOM      8  C   UNL     1       1.395   3.134  21.209  0.00  0.00    +0.000 A 
ATOM      9  C   UNL     1       2.731   2.783  21.072  0.00  0.00    +0.000 A 
ATOM     10  C   UNL     1       3.506   3.275  20.018  0.00  0.00    +0.000 A 
BRANCH   9  11
ATOM     11  O   UNL     1       3.347   1.943  21.962  0.00  0.00    +0.000 OA
ATOM     12  H   UNL     1       2.662   1.413  22.407  0.00  0.00    +0.000 HD
ENDBRANCH   9  11
BRANCH  10  13
ATOM     13  O   UNL     1       4.821   2.881  19.969  0.00  0.00    +0.000 OA
ATOM     14  H   UNL     1       4.993   2.721  19.016  0.00  0.00    +0.000 HD
ENDBRANCH  10  13
ENDBRANCH   2   5
BRANCH   3  15
ATOM     15  C   UNL     1       4.891   4.128  15.796  0.00  0.00    +0.000 C 
BRANCH  15  16
ATOM     16  C   UNL     1       6.405   3.993  15.940  0.00  0.00    +0.000 C 
BRANCH  16  17
ATOM     17  C   UNL     1       6.997   5.070  16.815  0.00  0.00    +0.000 A 
ATOM     18  C   UNL     1       7.035   6.405  16.377  0.00  0.00    +0.000 A 
ATOM     19  C   UNL     1       7.582   7.406  17.185  0.00  0.00    +0.000 A 
ATOM     20  C   UNL     1       8.088   7.069  18.433  0.00  0.00    +0.000 A 
ATOM     21  C   UNL     1       8.042   5.751  18.877  0.00  0.00    +0.000 A 
ATOM     22  C   UNL     1       7.500   4.750  18.083  0.00  0.00    +0.000 A 
BRANCH  20  23
ATOM     23  O   UNL     1       8.644   8.002  19.264  0.00  0.00    +0.000 OA
ATOM     24  H   UNL     1       7.922   8.475  19.711  0.00  0.00    +0.000 HD
ENDBRANCH  20  23
BRANCH  21  25
ATOM     25  O   UNL     1       8.539   5.430  20.109  0.00  0.00    +0.000 OA
ATOM     26  H   UNL     1       9.474   5.711  20.073  0.00  0.00    +0.000 HD
ENDBRANCH  21  25
ENDBRANCH  16  17
ENDBRANCH  15  16
ENDBRANCH   3  15
TORSDOF 8
ENDMDL
MODEL 2
REMARK VINA RESULT:      -7.4      2.801      3.606
REMARK  Name = 
REMARK  8 active torsions:
REMARK  status: ('A' for Active; 'I' for Inactive)
REMARK    1  A    between atoms: C_2  and  C_14
REMARK    2  A    between atoms: N_3  and  C_4
REMARK    3  A    between atoms: C_4  and  C_5
REMARK    4  A    between atoms: C_5  and  C_6
REMARK    5  A    between atoms: C_9  and  O_10
REMARK    6  A    between atoms: C_11  and  O_12
REMARK    7  A    between atoms: C_18  and  O_19
REMARK    8  A    between atoms: C_20  and  O_21
REMARK                            x       y       z     vdW  Elec       q    Type
REMARK                         _______ _______ _______ _____ _____    ______ ____
ROOT
ATOM      1  O   UNL     1       3.292   5.005  19.862  0.00  0.00    +0.000 OA
ATOM      2  C   UNL     1       3.038   5.640  18.844  0.00  0.00    +0.000 C 
ATOM      3  N   UNL     1       3.267   5.147  17.581  0.00  0.00    +0.000 N 
ATOM      4  H   UNL     1       2.957   5.715  16.795  0.00  0.00    +0.000 HD
ENDROOT
BRANCH   2   5
ATOM      5  C   UNL     1       2.477   7.024  18.930  0.00  0.00    +0.000 A 
ATOM      6  C   UNL     1       2.517   7.813  17.767  0.00  0.00    +0.000 A 
ATOM      7  C   UNL     1       1.980   9.108  17.756  0.00  0.00    +0.000 A 
ATOM      8  C   UNL     1       1.394   9.631  18.907  0.00  0.00    +0.000 A 
ATOM      9  C   UNL     1       1.362   8.858  20.060  0.00  0.00    +0.000 A 
ATOM     10  C   UNL     1       1.900   7.568  20.082  0.00  0.00    +0.000 A 
BRANCH   9  11
ATOM     11  O   UNL     1       0.805   9.324  21.221  0.00  0.00    +0.000 OA
ATOM     12  H   UNL     1       1.264   8.905  21.971  0.00  0.00    +0.000 HD
ENDBRANCH   9  11
BRANCH  10  13
ATOM     13  O   UNL     1       1.831   6.880  21.270  0.00  0.00    +0.000 OA
ATOM     14  H   UNL     1       1.446   6.012  21.027  0.00  0.00    +0.000 HD
ENDBRANCH  10  13
ENDBRANCH   2   5
BRANCH   3  15
ATOM     15  C   UNL     1       3.860   3.848  17.349  0.00  0.00    +0.000 C 
BRANCH  15  16
ATOM     16  C   UNL     1       5.192   3.963  16.612  0.00  0.00    +0.000 C 
BRANCH  16  17
ATOM     17  C   UNL     1       6.119   4.963  17.255  0.00  0.00    +0.000 A 
ATOM     18  C   UNL     1       6.485   6.138  16.574  0.00  0.00    +0.000 A 
ATOM     19  C   UNL     1       7.344   7.068  17.167  0.00  0.00    +0.000 A 
ATOM     20  C   UNL     1       7.834   6.822  18.443  0.00  0.00    +0.000 A 
ATOM     21  C   UNL     1       7.465   5.667  19.126  0.00  0.00    +0.000 A 
ATOM     22  C   UNL     1       6.612   4.739  18.547  0.00  0.00    +0.000 A 
BRANCH  20  23
ATOM     23  O   UNL     1       8.685   7.689  19.071  0.00  0.00    +0.000 OA
ATOM     24  H   UNL     1       8.774   8.480  18.512  0.00  0.00    +0.000 HD
ENDBRANCH  20  23
BRANCH  21  25
ATOM     25  O   UNL     1       7.949   5.436  20.383  0.00  0.00    +0.000 OA
ATOM     26  H   UNL     1       8.841   5.065  20.234  0.00  0.00    +0.000 HD
ENDBRANCH  21  25
ENDBRANCH  16  17
ENDBRANCH  15  16
ENDBRANCH   3  15
TORSDOF 8
ENDMDL
MODEL 3
REMARK VINA RESULT:      -7.3      2.128      2.878
REMARK  Name = 
REMARK  8 active torsions:
REMARK  status: ('A' for Active; 'I' for Inactive)
REMARK    1  A    between atoms: C_2  and  C_14
REMARK    2  A    between atoms: N_3  and  C_4
REMARK    3  A    between atoms: C_4  and  C_5
REMARK    4  A    between atoms: C_5  and  C_6
REMARK    5  A    between atoms: C_9  and  O_10
REMARK    6  A    between atoms: C_11  and  O_12
REMARK    7  A    between atoms: C_18  and  O_19
REMARK    8  A    between atoms: C_20  and  O_21
REMARK                            x       y       z     vdW  Elec       q    Type
REMARK                         _______ _______ _______ _____ _____    ______ ____
ROOT
ATOM      1  O   UNL     1       2.264   7.210  20.029  0.00  0.00    +0.000 OA
ATOM      2  C   UNL     1       2.434   6.248  19.288  0.00  0.00    +0.000 C 
ATOM      3  N   UNL     1       2.993   6.360  18.036  0.00  0.00    +0.000 N 
ATOM      4  H   UNL     1       3.162   5.499  17.521  0.00  0.00    +0.000 HD
ENDROOT
BRANCH   2   5
ATOM      5  C   UNL     1       2.008   4.877  19.709  0.00  0.00    +0.000 A 
ATOM      6  C   UNL     1       2.236   4.510  21.047  0.00  0.00    +0.000 A 
ATOM      7  C   UNL     1       1.834   3.256  21.528  0.00  0.00    +0.000 A 
ATOM      8  C   UNL     1       1.198   2.352  20.678  0.00  0.00    +0.000 A 
ATOM      9  C   UNL     1       0.981   2.709  19.354  0.00  0.00    +0.000 A 
ATOM     10  C   UNL     1       1.383   3.954  18.864  0.00  0.00    +0.000 A 
BRANCH   9  11
ATOM     11  O   UNL     1       0.367   1.858  18.474  0.00  0.00    +0.000 OA
ATOM     12  H   UNL     1       1.035   1.241  18.127  0.00  0.00    +0.000 HD
ENDBRANCH   9  11
BRANCH  10  13
ATOM     13  O   UNL     1       1.135   4.216  17.538  0.00  0.00    +0.000 OA
ATOM     14  H   UNL     1       0.581   3.463  17.240  0.00  0.00    +0.000 HD
ENDBRANCH  10  13
ENDBRANCH   2   5
BRANCH   3  15
ATOM     15  C   UNL     1       3.396   7.632  17.476  0.00  0.00    +0.000 C 
BRANCH  15  16
ATOM     16  C   UNL     1       4.428   7.452  16.365  0.00  0.00    +0.000 C 
BRANCH  16  17
ATOM     17  C   UNL     1       5.531   6.500  16.753  0.00  0.00    +0.000 A 
ATOM     18  C   UNL     1       5.697   5.283  16.067  0.00  0.00    +0.000 A 
ATOM     19  C   UNL     1       6.718   4.397  16.423  0.00  0.00    +0.000 A 
ATOM     20  C   UNL     1       7.574   4.732  17.464  0.00  0.00    +0.000 A 
ATOM     21  C   UNL     1       7.422   5.940  18.138  0.00  0.00    +0.000 A 
ATOM     22  C   UNL     1       6.413   6.827  17.791  0.00  0.00    +0.000 A 
BRANCH  20  23
ATOM     23  O   UNL     1       8.585   3.903  17.865  0.00  0.00    +0.000 OA
ATOM     24  H   UNL     1       9.041   3.579  17.070  0.00  0.00    +0.000 HD
ENDBRANCH  20  23
BRANCH  21  25
ATOM     25  O   UNL     1       8.272   6.262  19.159  0.00  0.00    +0.000 OA
ATOM     26  H   UNL     1       9.162   6.188  18.763  0.00  0.00    +0.000 HD
ENDBRANCH  21  25
ENDBRANCH  16  17
ENDBRANCH  15  16
ENDBRANCH   3  15
TORSDOF 8
ENDMDL
MODEL 4
REMARK VINA RESULT:      -7.2      1.510      1.611
REMARK  Name = 
REMARK  8 active torsions:
REMARK  status: ('A' for Active; 'I' for Inactive)
REMARK    1  A    between atoms: C_2  and  C_14
REMARK    2  A    between atoms: N_3  and  C_4
REMARK    3  A    between atoms: C_4  and  C_5
REMARK    4  A    between atoms: C_5  and  C_6
REMARK    5  A    between atoms: C_9  and  O_10
REMARK    6  A    between atoms: C_11  and  O_12
REMARK    7  A    between atoms: C_18  and  O_19
REMARK    8  A    between atoms: C_20  and  O_21
REMARK                            x       y       z     vdW  Elec       q    Type
REMARK                         _______ _______ _______ _____ _____    ______ ____
ROOT
ATOM      1  O   UNL     1       3.814   6.226  17.146  0.00  0.00    +0.000 OA
ATOM      2  C   UNL     1       3.652   5.042  17.420  0.00  0.00    +0.000 C 
ATOM      3  N   UNL     1       4.230   4.024  16.699  0.00  0.00    +0.000 N 
ATOM      4  H   UNL     1       4.099   3.075  17.042  0.00  0.00    +0.000 HD
ENDROOT
BRANCH   2   5
ATOM      5  C   UNL     1       2.776   4.637  18.563  0.00  0.00    +0.000 A 
ATOM      6  C   UNL     1       2.940   5.322  19.780  0.00  0.00    +0.000 A 
ATOM      7  C   UNL     1       2.134   5.025  20.888  0.00  0.00    +0.000 A 
ATOM      8  C   UNL     1       1.151   4.042  20.794  0.00  0.00    +0.000 A 
ATOM      9  C   UNL     1       0.993   3.358  19.596  0.00  0.00    +0.000 A 
ATOM     10  C   UNL     1       1.796   3.642  18.488  0.00  0.00    +0.000 A 
BRANCH   9  11
ATOM     11  O   UNL     1       0.048   2.377  19.449  0.00  0.00    +0.000 OA
ATOM     12  H   UNL     1      -0.483   2.338  20.264  0.00  0.00    +0.000 HD
ENDBRANCH   9  11
BRANCH  10  13
ATOM     13  O   UNL     1       1.574   2.908  17.347  0.00  0.00    +0.000 OA
ATOM     14  H   UNL     1       0.616   3.021  17.167  0.00  0.00    +0.000 HD
ENDBRANCH  10  13
ENDBRANCH   2   5
BRANCH   3  15
ATOM     15  C   UNL     1       5.053   4.267  15.533  0.00  0.00    +0.000 C 
BRANCH  15  16
ATOM     16  C   UNL     1       6.535   4.062  15.841  0.00  0.00    +0.000 C 
BRANCH  16  17
ATOM     17  C   UNL     1       7.085   5.131  16.751  0.00  0.00    +0.000 A 
ATOM     18  C   UNL     1       7.139   6.471  16.327  0.00  0.00    +0.000 A 
ATOM     19  C   UNL     1       7.649   7.466  17.167  0.00  0.00    +0.000 A 
ATOM     20  C   UNL     1       8.101   7.118  18.433  0.00  0.00    +0.000 A 
ATOM     21  C   UNL     1       8.038   5.795  18.863  0.00  0.00    +0.000 A 
ATOM     22  C   UNL     1       7.533   4.801  18.037  0.00  0.00    +0.000 A 
BRANCH  20  23
ATOM     23  O   UNL     1       8.618   8.044  19.296  0.00  0.00    +0.000 OA
ATOM     24  H   UNL     1       9.317   8.532  18.829  0.00  0.00    +0.000 HD
ENDBRANCH  20  23
BRANCH  21  25
ATOM     25  O   UNL     1       8.482   5.464  20.112  0.00  0.00    +0.000 OA
ATOM     26  H   UNL     1       7.719   5.644  20.695  0.00  0.00    +0.000 HD
ENDBRANCH  21  25
ENDBRANCH  16  17
ENDBRANCH  15  16
ENDBRANCH   3  15
TORSDOF 8
ENDMDL
MODEL 5
REMARK VINA RESULT:      -7.2      2.238      6.151
REMARK  Name = 
REMARK  8 active torsions:
REMARK  status: ('A' for Active; 'I' for Inactive)
REMARK    1  A    between atoms: C_2  and  C_14
REMARK    2  A    between atoms: N_3  and  C_4
REMARK    3  A    between atoms: C_4  and  C_5
REMARK    4  A    between atoms: C_5  and  C_6
REMARK    5  A    between atoms: C_9  and  O_10
REMARK    6  A    between atoms: C_11  and  O_12
REMARK    7  A    between atoms: C_18  and  O_19
REMARK    8  A    between atoms: C_20  and  O_21
REMARK                            x       y       z     vdW  Elec       q    Type
REMARK                         _______ _______ _______ _____ _____    ______ ____
ROOT
ATOM      1  O   UNL     1       5.783   5.925  18.679  0.00  0.00    +0.000 OA
ATOM      2  C   UNL     1       5.057   5.818  17.697  0.00  0.00    +0.000 C 
ATOM      3  N   UNL     1       3.725   6.158  17.713  0.00  0.00    +0.000 N 
ATOM      4  H   UNL     1       3.218   6.105  16.832  0.00  0.00    +0.000 HD
ENDROOT
BRANCH   2   5
ATOM      5  C   UNL     1       5.592   5.275  16.409  0.00  0.00    +0.000 A 
ATOM      6  C   UNL     1       4.858   4.254  15.780  0.00  0.00    +0.000 A 
ATOM      7  C   UNL     1       5.274   3.718  14.554  0.00  0.00    +0.000 A 
ATOM      8  C   UNL     1       6.429   4.196  13.938  0.00  0.00    +0.000 A 
ATOM      9  C   UNL     1       7.162   5.196  14.562  0.00  0.00    +0.000 A 
ATOM     10  C   UNL     1       6.758   5.734  15.787  0.00  0.00    +0.000 A 
BRANCH   9  11
ATOM     11  O   UNL     1       8.308   5.699  14.006  0.00  0.00    +0.000 OA
ATOM     12  H   UNL     1       8.632   6.422  14.572  0.00  0.00    +0.000 HD
ENDBRANCH   9  11
BRANCH  10  13
ATOM     13  O   UNL     1       7.551   6.714  16.334  0.00  0.00    +0.000 OA
ATOM     14  H   UNL     1       7.034   7.540  16.215  0.00  0.00    +0.000 HD
ENDBRANCH  10  13
ENDBRANCH   2   5
BRANCH   3  15
ATOM     15  C   UNL     1       3.059   6.640  18.904  0.00  0.00    +0.000 C 
BRANCH  15  16
ATOM     16  C   UNL     1       2.208   5.550  19.551  0.00  0.00    +0.000 C 
BRANCH  16  17
ATOM     17  C   UNL     1       2.682   4.164  19.195  0.00  0.00    +0.000 A 
ATOM     18  C   UNL     1       2.094   3.460  18.129  0.00  0.00    +0.000 A 
ATOM     19  C   UNL     1       2.531   2.175  17.795  0.00  0.00    +0.000 A 
ATOM     20  C   UNL     1       3.559   1.596  18.528  0.00  0.00    +0.000 A 
ATOM     21  C   UNL     1       4.152   2.293  19.576  0.00  0.00    +0.000 A 
ATOM     22  C   UNL     1       3.727   3.570  19.914  0.00  0.00    +0.000 A 
BRANCH  20  23
ATOM     23  O   UNL     1       4.022   0.339  18.256  0.00  0.00    +0.000 OA
ATOM     24  H   UNL     1       4.710   0.124  18.909  0.00  0.00    +0.000 HD
ENDBRANCH  20  23
BRANCH  21  25
ATOM     25  O   UNL     1       5.166   1.716  20.289  0.00  0.00    +0.000 OA
ATOM     26  H   UNL     1       5.691   2.473  20.617  0.00  0.00    +0.000 HD
ENDBRANCH  21  25
ENDBRANCH  16  17
ENDBRANCH  15  16
ENDBRANCH   3  15
TORSDOF 8
ENDMDL
MODEL 6
REMARK VINA RESULT:      -7.2      2.771      7.153
REMARK  Name = 
REMARK  8 active torsions:
REMARK  status: ('A' for Active; 'I' for Inactive)
REMARK    1  A    between atoms: C_2  and  C_14
REMARK    2  A    between atoms: N_3  and  C_4
REMARK    3  A    between atoms: C_4  and  C_5
REMARK    4  A    between atoms: C_5  and  C_6
REMARK    5  A    between atoms: C_9  and  O_10
REMARK    6  A    between atoms: C_11  and  O_12
REMARK    7  A    between atoms: C_18  and  O_19
REMARK    8  A    between atoms: C_20  and  O_21
REMARK                            x       y       z     vdW  Elec       q    Type
REMARK                         _______ _______ _______ _____ _____    ______ ____
ROOT
ATOM      1  O   UNL     1       4.673   3.576  16.621  0.00  0.00    +0.000 OA
ATOM      2  C   UNL     1       5.194   4.564  16.116  0.00  0.00    +0.000 C 
ATOM      3  N   UNL     1       5.145   5.811  16.693  0.00  0.00    +0.000 N 
ATOM      4  H   UNL     1       5.668   6.558  16.239  0.00  0.00    +0.000 HD
ENDROOT
BRANCH   2   5
ATOM      5  C   UNL     1       5.903   4.464  14.802  0.00  0.00    +0.000 A 
ATOM      6  C   UNL     1       5.327   3.646  13.814  0.00  0.00    +0.000 A 
ATOM      7  C   UNL     1       5.911   3.527  12.546  0.00  0.00    +0.000 A 
ATOM      8  C   UNL     1       7.080   4.225  12.247  0.00  0.00    +0.000 A 
ATOM      9  C   UNL     1       7.657   5.025  13.223  0.00  0.00    +0.000 A 
ATOM     10  C   UNL     1       7.084   5.146  14.492  0.00  0.00    +0.000 A 
BRANCH   9  11
ATOM     11  O   UNL     1       8.809   5.728  12.987  0.00  0.00    +0.000 OA
ATOM     12  H   UNL     1       8.868   6.448  13.639  0.00  0.00    +0.000 HD
ENDBRANCH   9  11
BRANCH  10  13
ATOM     13  O   UNL     1       7.731   5.953  15.398  0.00  0.00    +0.000 OA
ATOM     14  H   UNL     1       7.103   6.032  16.147  0.00  0.00    +0.000 HD
ENDBRANCH  10  13
ENDBRANCH   2   5
BRANCH   3  15
ATOM     15  C   UNL     1       4.444   6.068  17.933  0.00  0.00    +0.000 C 
BRANCH  15  16
ATOM     16  C   UNL     1       2.939   5.856  17.779  0.00  0.00    +0.000 C 
BRANCH  16  17
ATOM     17  C   UNL     1       2.370   4.973  18.860  0.00  0.00    +0.000 A 
ATOM     18  C   UNL     1       2.731   5.167  20.205  0.00  0.00    +0.000 A 
ATOM     19  C   UNL     1       2.205   4.350  21.210  0.00  0.00    +0.000 A 
ATOM     20  C   UNL     1       1.314   3.341  20.868  0.00  0.00    +0.000 A 
ATOM     21  C   UNL     1       0.944   3.152  19.539  0.00  0.00    +0.000 A 
ATOM     22  C   UNL     1       1.459   3.959  18.534  0.00  0.00    +0.000 A 
BRANCH  20  23
ATOM     23  O   UNL     1       0.774   2.504  21.804  0.00  0.00    +0.000 OA
ATOM     24  H   UNL     1       1.353   2.514  22.585  0.00  0.00    +0.000 HD
ENDBRANCH  20  23
BRANCH  21  25
ATOM     25  O   UNL     1       0.063   2.159  19.213  0.00  0.00    +0.000 OA
ATOM     26  H   UNL     1      -0.732   2.357  19.745  0.00  0.00    +0.000 HD
ENDBRANCH  21  25
ENDBRANCH  16  17
ENDBRANCH  15  16
ENDBRANCH   3  15
TORSDOF 8
ENDMDL
MODEL 7
REMARK VINA RESULT:      -7.1      2.616      3.864
REMARK  Name = 
REMARK  8 active torsions:
REMARK  status: ('A' for Active; 'I' for Inactive)
REMARK    1  A    between atoms: C_2  and  C_14
REMARK    2  A    between atoms: N_3  and  C_4
REMARK    3  A    between atoms: C_4  and  C_5
REMARK    4  A    between atoms: C_5  and  C_6
REMARK    5  A    between atoms: C_9  and  O_10
REMARK    6  A    between atoms: C_11  and  O_12
REMARK    7  A    between atoms: C_18  and  O_19
REMARK    8  A    between atoms: C_20  and  O_21
REMARK                            x       y       z     vdW  Elec       q    Type
REMARK                         _______ _______ _______ _____ _____    ______ ____
ROOT
ATOM      1  O   UNL     1       3.778   5.323  19.888  0.00  0.00    +0.000 OA
ATOM      2  C   UNL     1       3.181   5.827  18.943  0.00  0.00    +0.000 C 
ATOM      3  N   UNL     1       3.164   5.267  17.688  0.00  0.00    +0.000 N 
ATOM      4  H   UNL     1       2.582   5.715  16.983  0.00  0.00    +0.000 HD
ENDROOT
BRANCH   2   5
ATOM      5  C   UNL     1       2.445   7.119  19.108  0.00  0.00    +0.000 A 
ATOM      6  C   UNL     1       1.771   7.331  20.324  0.00  0.00    +0.000 A 
ATOM      7  C   UNL     1       1.088   8.530  20.570  0.00  0.00    +0.000 A 
ATOM      8  C   UNL     1       1.070   9.535  19.603  0.00  0.00    +0.000 A 
ATOM      9  C   UNL     1       1.725   9.323  18.398  0.00  0.00    +0.000 A 
ATOM     10  C   UNL     1       2.404   8.129  18.142  0.00  0.00    +0.000 A 
BRANCH   9  11
ATOM     11  O   UNL     1       1.734  10.273  17.411  0.00  0.00    +0.000 OA
ATOM     12  H   UNL     1       2.282  11.020  17.710  0.00  0.00    +0.000 HD
ENDBRANCH   9  11
BRANCH  10  13
ATOM     13  O   UNL     1       3.016   8.006  16.917  0.00  0.00    +0.000 OA
ATOM     14  H   UNL     1       3.098   7.038  16.782  0.00  0.00    +0.000 HD
ENDBRANCH  10  13
ENDBRANCH   2   5
BRANCH   3  15
ATOM     15  C   UNL     1       3.880   4.050  17.369  0.00  0.00    +0.000 C 
BRANCH  15  16
ATOM     16  C   UNL     1       5.106   4.332  16.503  0.00  0.00    +0.000 C 
BRANCH  16  17
ATOM     17  C   UNL     1       6.085   5.259  17.178  0.00  0.00    +0.000 A 
ATOM     18  C   UNL     1       6.298   6.557  16.680  0.00  0.00    +0.000 A 
ATOM     19  C   UNL     1       7.205   7.421  17.303  0.00  0.00    +0.000 A 
ATOM     20  C   UNL     1       7.895   6.984  18.426  0.00  0.00    +0.000 A 
ATOM     21  C   UNL     1       7.679   5.705  18.930  0.00  0.00    +0.000 A 
ATOM     22  C   UNL     1       6.780   4.841  18.320  0.00  0.00    +0.000 A 
BRANCH  20  23
ATOM     23  O   UNL     1       8.801   7.778  19.072  0.00  0.00    +0.000 OA
ATOM     24  H   UNL     1       8.600   8.703  18.853  0.00  0.00    +0.000 HD
ENDBRANCH  20  23
BRANCH  21  25
ATOM     25  O   UNL     1       8.360   5.286  20.038  0.00  0.00    +0.000 OA
ATOM     26  H   UNL     1       8.222   4.318  20.055  0.00  0.00    +0.000 HD
ENDBRANCH  21  25
ENDBRANCH  16  17
ENDBRANCH  15  16
ENDBRANCH   3  15
TORSDOF 8
ENDMDL
MODEL 8
REMARK VINA RESULT:      -7.0      2.513      6.970
REMARK  Name = 
REMARK  8 active torsions:
REMARK  status: ('A' for Active; 'I' for Inactive)
REMARK    1  A    between atoms: C_2  and  C_14
REMARK    2  A    between atoms: N_3  and  C_4
REMARK    3  A    between atoms: C_4  and  C_5
REMARK    4  A    between atoms: C_5  and  C_6
REMARK    5  A    between atoms: C_9  and  O_10
REMARK    6  A    between atoms: C_11  and  O_12
REMARK    7  A    between atoms: C_18  and  O_19
REMARK    8  A    between atoms: C_20  and  O_21
REMARK                            x       y       z     vdW  Elec       q    Type
REMARK                         _______ _______ _______ _____ _____    ______ ____
ROOT
ATOM      1  O   UNL     1       5.176   3.346  16.769  0.00  0.00    +0.000 OA
ATOM      2  C   UNL     1       5.276   4.377  16.113  0.00  0.00    +0.000 C 
ATOM      3  N   UNL     1       4.745   5.577  16.524  0.00  0.00    +0.000 N 
ATOM      4  H   UNL     1       4.940   6.396  15.951  0.00  0.00    +0.000 HD
ENDROOT
BRANCH   2   5
ATOM      5  C   UNL     1       5.976   4.375  14.791  0.00  0.00    +0.000 A 
ATOM      6  C   UNL     1       5.433   3.573  13.771  0.00  0.00    +0.000 A 
ATOM      7  C   UNL     1       6.010   3.543  12.494  0.00  0.00    +0.000 A 
ATOM      8  C   UNL     1       7.137   4.316  12.217  0.00  0.00    +0.000 A 
ATOM      9  C   UNL     1       7.680   5.100  13.225  0.00  0.00    +0.000 A 
ATOM     10  C   UNL     1       7.116   5.132  14.503  0.00  0.00    +0.000 A 
BRANCH   9  11
ATOM     11  O   UNL     1       8.791   5.874  13.012  0.00  0.00    +0.000 OA
ATOM     12  H   UNL     1       8.894   6.477  13.769  0.00  0.00    +0.000 HD
ENDBRANCH   9  11
BRANCH  10  13
ATOM     13  O   UNL     1       7.728   5.931  15.440  0.00  0.00    +0.000 OA
ATOM     14  H   UNL     1       7.369   6.827  15.268  0.00  0.00    +0.000 HD
ENDBRANCH  10  13
ENDBRANCH   2   5
BRANCH   3  15
ATOM     15  C   UNL     1       3.992   5.714  17.752  0.00  0.00    +0.000 C 
BRANCH  15  16
ATOM     16  C   UNL     1       2.671   4.951  17.688  0.00  0.00    +0.000 C 
BRANCH  16  17
ATOM     17  C   UNL     1       2.401   4.163  18.945  0.00  0.00    +0.000 A 
ATOM     18  C   UNL     1       1.114   4.139  19.510  0.00  0.00    +0.000 A 
ATOM     19  C   UNL     1       0.858   3.409  20.675  0.00  0.00    +0.000 A 
ATOM     20  C   UNL     1       1.894   2.701  21.272  0.00  0.00    +0.000 A 
ATOM     21  C   UNL     1       3.167   2.712  20.711  0.00  0.00    +0.000 A 
ATOM     22  C   UNL     1       3.430   3.432  19.554  0.00  0.00    +0.000 A 
BRANCH  20  23
ATOM     23  O   UNL     1       1.709   1.978  22.417  0.00  0.00    +0.000 OA
ATOM     24  H   UNL     1       2.543   1.985  22.915  0.00  0.00    +0.000 HD
ENDBRANCH  20  23
BRANCH  21  25
ATOM     25  O   UNL     1       4.178   2.009  21.303  0.00  0.00    +0.000 OA
ATOM     26  H   UNL     1       3.821   1.765  22.180  0.00  0.00    +0.000 HD
ENDBRANCH  21  25
ENDBRANCH  16  17
ENDBRANCH  15  16
ENDBRANCH   3  15
TORSDOF 8
ENDMDL
MODEL 9
REMARK VINA RESULT:      -7.0      3.548      4.931
REMARK  Name = 
REMARK  8 active torsions:
REMARK  status: ('A' for Active; 'I' for Inactive)
REMARK    1  A    between atoms: C_2  and  C_14
REMARK    2  A    between atoms: N_3  and  C_4
REMARK    3  A    between atoms: C_4  and  C_5
REMARK    4  A    between atoms: C_5  and  C_6
REMARK    5  A    between atoms: C_9  and  O_10
REMARK    6  A    between atoms: C_11  and  O_12
REMARK    7  A    between atoms: C_18  and  O_19
REMARK    8  A    between atoms: C_20  and  O_21
REMARK                            x       y       z     vdW  Elec       q    Type
REMARK                         _______ _______ _______ _____ _____    ______ ____
ROOT
ATOM      1  O   UNL     1       6.090   7.175  16.181  0.00  0.00    +0.000 OA
ATOM      2  C   UNL     1       6.225   6.796  17.339  0.00  0.00    +0.000 C 
ATOM      3  N   UNL     1       7.252   7.221  18.148  0.00  0.00    +0.000 N 
ATOM      4  H   UNL     1       7.243   6.912  19.118  0.00  0.00    +0.000 HD
ENDROOT
BRANCH   2   5
ATOM      5  C   UNL     1       5.269   5.811  17.935  0.00  0.00    +0.000 A 
ATOM      6  C   UNL     1       3.901   6.135  17.905  0.00  0.00    +0.000 A 
ATOM      7  C   UNL     1       2.940   5.249  18.411  0.00  0.00    +0.000 A 
ATOM      8  C   UNL     1       3.333   4.026  18.953  0.00  0.00    +0.000 A 
ATOM      9  C   UNL     1       4.684   3.709  18.993  0.00  0.00    +0.000 A 
ATOM     10  C   UNL     1       5.650   4.588  18.496  0.00  0.00    +0.000 A 
BRANCH   9  11
ATOM     11  O   UNL     1       5.127   2.524  19.520  0.00  0.00    +0.000 OA
ATOM     12  H   UNL     1       4.776   2.441  20.424  0.00  0.00    +0.000 HD
ENDBRANCH   9  11
BRANCH  10  13
ATOM     13  O   UNL     1       6.963   4.193  18.586  0.00  0.00    +0.000 OA
ATOM     14  H   UNL     1       6.919   3.217  18.676  0.00  0.00    +0.000 HD
ENDBRANCH  10  13
ENDBRANCH   2   5
BRANCH   3  15
ATOM     15  C   UNL     1       8.282   8.127  17.686  0.00  0.00    +0.000 C 
BRANCH  15  16
ATOM     16  C   UNL     1       7.921   9.582  17.978  0.00  0.00    +0.000 C 
BRANCH  16  17
ATOM     17  C   UNL     1       9.090  10.367  18.515  0.00  0.00    +0.000 A 
ATOM     18  C   UNL     1       9.230  10.583  19.898  0.00  0.00    +0.000 A 
ATOM     19  C   UNL     1      10.313  11.310  20.401  0.00  0.00    +0.000 A 
ATOM     20  C   UNL     1      11.257  11.818  19.519  0.00  0.00    +0.000 A 
ATOM     21  C   UNL     1      11.131  11.597  18.150  0.00  0.00    +0.000 A 
ATOM     22  C   UNL     1      10.061  10.875  17.641  0.00  0.00    +0.000 A 
BRANCH  20  23
ATOM     23  O   UNL     1      12.332  12.545  19.949  0.00  0.00    +0.000 OA
ATOM     24  H   UNL     1      12.363  13.369  19.435  0.00  0.00    +0.000 HD
ENDBRANCH  20  23
BRANCH  21  25
ATOM     25  O   UNL     1      12.067  12.098  17.291  0.00  0.00    +0.000 OA
ATOM     26  H   UNL     1      11.545  12.554  16.603  0.00  0.00    +0.000 HD
ENDBRANCH  21  25
ENDBRANCH  16  17
ENDBRANCH  15  16
ENDBRANCH   3  15
TORSDOF 8
ENDMDL
