MODEL 1
REMARK VINA RESULT:      -7.7      0.000      0.000
REMARK  Name = 
REMARK  5 active torsions:
REMARK  status: ('A' for Active; 'I' for Inactive)
REMARK    1  A    between atoms: C_1  and  O_2
REMARK    2  A    between atoms: O_2  and  C_3
REMARK    3  A    between atoms: C_6  and  C_7
REMARK    4  A    between atoms: C_7  and  N_8
REMARK    5  A    between atoms: C_9  and  C_10
REMARK                            x       y       z     vdW  Elec       q    Type
REMARK                         _______ _______ _______ _____ _____    ______ ____
ROOT
ATOM      1  N   UNL     1       3.287   5.304  18.726  0.00  0.00    +0.000 N 
ATOM      2  C   UNL     1       3.830   4.841  17.527  0.00  0.00    +0.000 A 
ATOM      3  C   UNL     1       3.251   3.603  17.272  0.00  0.00    +0.000 A 
ATOM      4  C   UNL     1       2.254   3.393  18.257  0.00  0.00    +0.000 A 
ATOM      5  S   UNL     1       1.041   2.225  18.657  0.00  0.00    +0.000 S 
ATOM      6  C   UNL     1       0.635   3.136  20.056  0.00  0.00    +0.000 A 
ATOM      7  C   UNL     1       1.367   4.295  20.207  0.00  0.00    +0.000 A 
ATOM      8  C   UNL     1       2.302   4.426  19.140  0.00  0.00    +0.000 A 
ENDROOT
BRANCH   2   9
ATOM      9  C   UNL     1       4.898   5.529  16.801  0.00  0.00    +0.000 C 
ATOM     10  O   UNL     1       4.663   6.110  15.742  0.00  0.00    +0.000 OA
ATOM     11  N   UNL     1       6.194   5.548  17.307  0.00  0.00    +0.000 N 
ATOM     12  C   UNL     1       6.773   4.748  18.388  0.00  0.00    +0.000 C 
ATOM     13  C   UNL     1       7.339   5.679  19.468  0.00  0.00    +0.000 C 
ATOM     14  O   UNL     1       8.293   6.601  18.909  0.00  0.00    +0.000 OA
ATOM     15  C   UNL     1       7.700   7.390  17.861  0.00  0.00    +0.000 C 
ATOM     16  C   UNL     1       7.158   6.497  16.741  0.00  0.00    +0.000 C 
ENDBRANCH   2   9
BRANCH   1  17
ATOM     17  C   UNL     1       3.568   6.563  19.412  0.00  0.00    +0.000 C 
BRANCH  17  21
ATOM     18  C   UNL     1       0.621   9.697  18.874  0.00  0.00    +0.000 A 
ATOM     19  C   UNL     1       0.795   9.088  20.114  0.00  0.00    +0.000 A 
ATOM     20  C   UNL     1       1.742   8.074  20.280  0.00  0.00    +0.000 A 
ATOM     21  C   UNL     1       2.516   7.627  19.199  0.00  0.00    +0.000 A 
ATOM     22  C   UNL     1       2.314   8.231  17.950  0.00  0.00    +0.000 A 
ATOM     23  C   UNL     1       1.373   9.256  17.785  0.00  0.00    +0.000 A 
BRANCH  18  25
ATOM     24  C   UNL     1      -1.418  10.432  17.944  0.00  0.00    +0.000 C 
ATOM     25  O   UNL     1      -0.330  10.679  18.828  0.00  0.00    +0.000 OA
ENDBRANCH  18  25
ENDBRANCH  17  21
ENDBRANCH   1  17
TORSDOF 4
ENDMDL
MODEL 2
REMARK VINA RESULT:      -7.0      2.125      6.208
REMARK  Name = 
REMARK  5 active torsions:
REMARK  status: ('A' for Active; 'I' for Inactive)
REMARK    1  A    between atoms: C_1  and  O_2
REMARK    2  A    between atoms: O_2  and  C_3
REMARK    3  A    between atoms: C_6  and  C_7
REMARK    4  A    between atoms: C_7  and  N_8
REMARK    5  A    between atoms: C_9  and  C_10
REMARK                            x       y       z     vdW  Elec       q    Type
REMARK                         _______ _______ _______ _____ _____    ______ ____
ROOT
ATOM      1  N   UNL     1       3.667   5.629  19.209  0.00  0.00    +0.000 N 
ATOM      2  C   UNL     1       2.439   6.284  19.293  0.00  0.00    +0.000 A 
ATOM      3  C   UNL     1       1.498   5.333  19.670  0.00  0.00    +0.000 A 
ATOM      4  C   UNL     1       2.199   4.133  19.948  0.00  0.00    +0.000 A 
ATOM      5  S   UNL     1       1.872   2.535  20.525  0.00  0.00    +0.000 S 
ATOM      6  C   UNL     1       3.526   2.125  20.310  0.00  0.00    +0.000 A 
ATOM      7  C   UNL     1       4.308   3.162  19.844  0.00  0.00    +0.000 A 
ATOM      8  C   UNL     1       3.510   4.325  19.646  0.00  0.00    +0.000 A 
ENDROOT
BRANCH   2   9
ATOM      9  C   UNL     1       2.238   7.683  18.912  0.00  0.00    +0.000 C 
ATOM     10  O   UNL     1       2.566   8.082  17.795  0.00  0.00    +0.000 OA
ATOM     11  N   UNL     1       1.657   8.579  19.804  0.00  0.00    +0.000 N 
ATOM     12  C   UNL     1       1.413   8.422  21.240  0.00  0.00    +0.000 C 
ATOM     13  C   UNL     1      -0.082   8.614  21.529  0.00  0.00    +0.000 C 
ATOM     14  O   UNL     1      -0.544   9.887  21.038  0.00  0.00    +0.000 OA
ATOM     15  C   UNL     1      -0.311  10.014  19.624  0.00  0.00    +0.000 C 
ATOM     16  C   UNL     1       1.179   9.868  19.297  0.00  0.00    +0.000 C 
ENDBRANCH   2   9
BRANCH   1  17
ATOM     17  C   UNL     1       4.967   6.198  18.859  0.00  0.00    +0.000 C 
BRANCH  17  21
ATOM     18  C   UNL     1       6.581   4.920  15.043  0.00  0.00    +0.000 A 
ATOM     19  C   UNL     1       5.472   5.760  15.103  0.00  0.00    +0.000 A 
ATOM     20  C   UNL     1       4.952   6.163  16.335  0.00  0.00    +0.000 A 
ATOM     21  C   UNL     1       5.515   5.710  17.537  0.00  0.00    +0.000 A 
ATOM     22  C   UNL     1       6.616   4.846  17.465  0.00  0.00    +0.000 A 
ATOM     23  C   UNL     1       7.144   4.450  16.229  0.00  0.00    +0.000 A 
BRANCH  18  25
ATOM     24  C   UNL     1       6.183   3.665  13.086  0.00  0.00    +0.000 C 
ATOM     25  O   UNL     1       7.006   4.593  13.785  0.00  0.00    +0.000 OA
ENDBRANCH  18  25
ENDBRANCH  17  21
ENDBRANCH   1  17
TORSDOF 4
ENDMDL
MODEL 3
REMARK VINA RESULT:      -6.6      1.189      2.038
REMARK  Name = 
REMARK  5 active torsions:
REMARK  status: ('A' for Active; 'I' for Inactive)
REMARK    1  A    between atoms: C_1  and  O_2
REMARK    2  A    between atoms: O_2  and  C_3
REMARK    3  A    between atoms: C_6  and  C_7
REMARK    4  A    between atoms: C_7  and  N_8
REMARK    5  A    between atoms: C_9  and  C_10
REMARK                            x       y       z     vdW  Elec       q    Type
REMARK                         _______ _______ _______ _____ _____    ______ ____
ROOT
ATOM      1  N   UNL     1       3.374   4.838  19.513  0.00  0.00    +0.000 N 
ATOM      2  C   UNL     1       4.300   4.253  18.650  0.00  0.00    +0.000 A 
ATOM      3  C   UNL     1       3.760   3.039  18.240  0.00  0.00    +0.000 A 
ATOM      4  C   UNL     1       2.441   2.969  18.754  0.00  0.00    +0.000 A 
ATOM      5  S   UNL     1       1.070   1.916  18.688  0.00  0.00    +0.000 S 
ATOM      6  C   UNL     1       0.229   2.953  19.769  0.00  0.00    +0.000 A 
ATOM      7  C   UNL     1       0.944   4.070  20.150  0.00  0.00    +0.000 A 
ATOM      8  C   UNL     1       2.230   4.059  19.538  0.00  0.00    +0.000 A 
ENDROOT
BRANCH   2   9
ATOM      9  C   UNL     1       5.625   4.813  18.381  0.00  0.00    +0.000 C 
ATOM     10  O   UNL     1       6.516   4.750  19.228  0.00  0.00    +0.000 OA
ATOM     11  N   UNL     1       5.901   5.412  17.156  0.00  0.00    +0.000 N 
ATOM     12  C   UNL     1       4.971   5.826  16.103  0.00  0.00    +0.000 C 
ATOM     13  C   UNL     1       5.345   5.129  14.787  0.00  0.00    +0.000 C 
ATOM     14  O   UNL     1       6.715   5.395  14.433  0.00  0.00    +0.000 OA
ATOM     15  C   UNL     1       7.613   4.965  15.472  0.00  0.00    +0.000 C 
ATOM     16  C   UNL     1       7.298   5.670  16.796  0.00  0.00    +0.000 C 
ENDBRANCH   2   9
BRANCH   1  17
ATOM     17  C   UNL     1       3.473   6.124  20.200  0.00  0.00    +0.000 C 
BRANCH  17  21
ATOM     18  C   UNL     1       1.003   9.305  18.597  0.00  0.00    +0.000 A 
ATOM     19  C   UNL     1       0.917   8.944  19.938  0.00  0.00    +0.000 A 
ATOM     20  C   UNL     1       1.711   7.914  20.448  0.00  0.00    +0.000 A 
ATOM     21  C   UNL     1       2.588   7.202  19.617  0.00  0.00    +0.000 A 
ATOM     22  C   UNL     1       2.648   7.559  18.263  0.00  0.00    +0.000 A 
ATOM     23  C   UNL     1       1.860   8.599  17.753  0.00  0.00    +0.000 A 
BRANCH  18  25
ATOM     24  C   UNL     1      -0.989  10.504  18.997  0.00  0.00    +0.000 C 
ATOM     25  O   UNL     1       0.182  10.329  18.208  0.00  0.00    +0.000 OA
ENDBRANCH  18  25
ENDBRANCH  17  21
ENDBRANCH   1  17
TORSDOF 4
ENDMDL
MODEL 4
REMARK VINA RESULT:      -6.5      2.570      4.843
REMARK  Name = 
REMARK  5 active torsions:
REMARK  status: ('A' for Active; 'I' for Inactive)
REMARK    1  A    between atoms: C_1  and  O_2
REMARK    2  A    between atoms: O_2  and  C_3
REMARK    3  A    between atoms: C_6  and  C_7
REMARK    4  A    between atoms: C_7  and  N_8
REMARK    5  A    between atoms: C_9  and  C_10
REMARK                            x       y       z     vdW  Elec       q    Type
REMARK                         _______ _______ _______ _____ _____    ______ ____
ROOT
ATOM      1  N   UNL     1       4.283   6.090  17.624  0.00  0.00    +0.000 N 
ATOM      2  C   UNL     1       4.011   4.835  18.168  0.00  0.00    +0.000 A 
ATOM      3  C   UNL     1       5.222   4.315  18.612  0.00  0.00    +0.000 A 
ATOM      4  C   UNL     1       6.199   5.330  18.457  0.00  0.00    +0.000 A 
ATOM      5  S   UNL     1       7.875   5.591  18.798  0.00  0.00    +0.000 S 
ATOM      6  C   UNL     1       7.779   7.138  18.056  0.00  0.00    +0.000 A 
ATOM      7  C   UNL     1       6.523   7.462  17.588  0.00  0.00    +0.000 A 
ATOM      8  C   UNL     1       5.616   6.393  17.840  0.00  0.00    +0.000 A 
ENDROOT
BRANCH   2   9
ATOM      9  C   UNL     1       2.694   4.199  18.124  0.00  0.00    +0.000 C 
ATOM     10  O   UNL     1       2.220   3.813  17.055  0.00  0.00    +0.000 OA
ATOM     11  N   UNL     1       1.965   4.007  19.293  0.00  0.00    +0.000 N 
ATOM     12  C   UNL     1       2.187   4.581  20.622  0.00  0.00    +0.000 C 
ATOM     13  C   UNL     1       2.348   3.451  21.647  0.00  0.00    +0.000 C 
ATOM     14  O   UNL     1       1.213   2.565  21.624  0.00  0.00    +0.000 OA
ATOM     15  C   UNL     1       1.023   1.998  20.315  0.00  0.00    +0.000 C 
ATOM     16  C   UNL     1       0.817   3.096  19.266  0.00  0.00    +0.000 C 
ENDBRANCH   2   9
BRANCH   1  17
ATOM     17  C   UNL     1       3.340   7.037  17.035  0.00  0.00    +0.000 C 
BRANCH  17  21
ATOM     18  C   UNL     1       1.077   9.397  19.883  0.00  0.00    +0.000 A 
ATOM     19  C   UNL     1       1.226   9.820  18.566  0.00  0.00    +0.000 A 
ATOM     20  C   UNL     1       1.962   9.059  17.654  0.00  0.00    +0.000 A 
ATOM     21  C   UNL     1       2.589   7.870  18.050  0.00  0.00    +0.000 A 
ATOM     22  C   UNL     1       2.453   7.465  19.385  0.00  0.00    +0.000 A 
ATOM     23  C   UNL     1       1.706   8.223  20.297  0.00  0.00    +0.000 A 
BRANCH  18  25
ATOM     24  C   UNL     1      -0.299   9.580  21.789  0.00  0.00    +0.000 C 
ATOM     25  O   UNL     1       0.335  10.218  20.687  0.00  0.00    +0.000 OA
ENDBRANCH  18  25
ENDBRANCH  17  21
ENDBRANCH   1  17
TORSDOF 4
ENDMDL
MODEL 5
REMARK VINA RESULT:      -6.5      4.355      8.102
REMARK  Name = 
REMARK  5 active torsions:
REMARK  status: ('A' for Active; 'I' for Inactive)
REMARK    1  A    between atoms: C_1  and  O_2
REMARK    2  A    between atoms: O_2  and  C_3
REMARK    3  A    between atoms: C_6  and  C_7
REMARK    4  A    between atoms: C_7  and  N_8
REMARK    5  A    between atoms: C_9  and  C_10
REMARK                            x       y       z     vdW  Elec       q    Type
REMARK                         _______ _______ _______ _____ _____    ______ ____
ROOT
ATOM      1  N   UNL     1      -0.426  11.420  18.878  0.00  0.00    +0.000 N 
ATOM      2  C   UNL     1      -0.913  12.161  19.954  0.00  0.00    +0.000 A 
ATOM      3  C   UNL     1      -2.296  12.217  19.814  0.00  0.00    +0.000 A 
ATOM      4  C   UNL     1      -2.642  11.383  18.721  0.00  0.00    +0.000 A 
ATOM      5  S   UNL     1      -4.063  10.816  17.913  0.00  0.00    +0.000 S 
ATOM      6  C   UNL     1      -3.078   9.986  16.777  0.00  0.00    +0.000 A 
ATOM      7  C   UNL     1      -1.724  10.107  17.010  0.00  0.00    +0.000 A 
ATOM      8  C   UNL     1      -1.496  10.923  18.155  0.00  0.00    +0.000 A 
ENDROOT
BRANCH   2   9
ATOM      9  C   UNL     1      -0.056  12.831  20.933  0.00  0.00    +0.000 C 
ATOM     10  O   UNL     1       0.068  12.378  22.071  0.00  0.00    +0.000 OA
ATOM     11  N   UNL     1       0.644  13.982  20.586  0.00  0.00    +0.000 N 
ATOM     12  C   UNL     1       0.482  14.839  19.410  0.00  0.00    +0.000 C 
ATOM     13  C   UNL     1       1.814  14.928  18.653  0.00  0.00    +0.000 C 
ATOM     14  O   UNL     1       2.869  15.390  19.516  0.00  0.00    +0.000 OA
ATOM     15  C   UNL     1       3.025  14.524  20.656  0.00  0.00    +0.000 C 
ATOM     16  C   UNL     1       1.725  14.441  21.463  0.00  0.00    +0.000 C 
ENDBRANCH   2   9
BRANCH   1  17
ATOM     17  C   UNL     1       0.962  11.072  18.582  0.00  0.00    +0.000 C 
BRANCH  17  21
ATOM     18  C   UNL     1       2.175   7.067  19.716  0.00  0.00    +0.000 A 
ATOM     19  C   UNL     1       2.402   7.542  18.428  0.00  0.00    +0.000 A 
ATOM     20  C   UNL     1       2.004   8.832  18.066  0.00  0.00    +0.000 A 
ATOM     21  C   UNL     1       1.341   9.663  18.980  0.00  0.00    +0.000 A 
ATOM     22  C   UNL     1       1.096   9.165  20.267  0.00  0.00    +0.000 A 
ATOM     23  C   UNL     1       1.505   7.876  20.633  0.00  0.00    +0.000 A 
BRANCH  18  25
ATOM     24  C   UNL     1       1.700   4.966  20.677  0.00  0.00    +0.000 C 
ATOM     25  O   UNL     1       2.609   5.793  19.960  0.00  0.00    +0.000 OA
ENDBRANCH  18  25
ENDBRANCH  17  21
ENDBRANCH   1  17
TORSDOF 4
ENDMDL
MODEL 6
REMARK VINA RESULT:      -6.4      2.148      6.244
REMARK  Name = 
REMARK  5 active torsions:
REMARK  status: ('A' for Active; 'I' for Inactive)
REMARK    1  A    between atoms: C_1  and  O_2
REMARK    2  A    between atoms: O_2  and  C_3
REMARK    3  A    between atoms: C_6  and  C_7
REMARK    4  A    between atoms: C_7  and  N_8
REMARK    5  A    between atoms: C_9  and  C_10
REMARK                            x       y       z     vdW  Elec       q    Type
REMARK                         _______ _______ _______ _____ _____    ______ ____
ROOT
ATOM      1  N   UNL     1       3.694   5.358  18.534  0.00  0.00    +0.000 N 
ATOM      2  C   UNL     1       2.511   6.067  18.741  0.00  0.00    +0.000 A 
ATOM      3  C   UNL     1       1.529   5.134  19.051  0.00  0.00    +0.000 A 
ATOM      4  C   UNL     1       2.166   3.873  19.165  0.00  0.00    +0.000 A 
ATOM      5  S   UNL     1       1.764   2.241  19.578  0.00  0.00    +0.000 S 
ATOM      6  C   UNL     1       3.382   1.766  19.248  0.00  0.00    +0.000 A 
ATOM      7  C   UNL     1       4.208   2.803  18.866  0.00  0.00    +0.000 A 
ATOM      8  C   UNL     1       3.475   4.024  18.831  0.00  0.00    +0.000 A 
ENDROOT
BRANCH   2   9
ATOM      9  C   UNL     1       2.381   7.509  18.525  0.00  0.00    +0.000 C 
ATOM     10  O   UNL     1       2.714   8.015  17.453  0.00  0.00    +0.000 OA
ATOM     11  N   UNL     1       1.864   8.326  19.524  0.00  0.00    +0.000 N 
ATOM     12  C   UNL     1       1.633   8.020  20.938  0.00  0.00    +0.000 C 
ATOM     13  C   UNL     1       0.155   8.257  21.278  0.00  0.00    +0.000 C 
ATOM     14  O   UNL     1      -0.244   9.600  20.944  0.00  0.00    +0.000 OA
ATOM     15  C   UNL     1      -0.025   9.875  19.548  0.00  0.00    +0.000 C 
ATOM     16  C   UNL     1       1.449   9.688  19.176  0.00  0.00    +0.000 C 
ENDBRANCH   2   9
BRANCH   1  17
ATOM     17  C   UNL     1       5.012   5.888  18.194  0.00  0.00    +0.000 C 
BRANCH  17  21
ATOM     18  C   UNL     1       6.510   4.576  14.342  0.00  0.00    +0.000 A 
ATOM     19  C   UNL     1       7.365   5.137  15.286  0.00  0.00    +0.000 A 
ATOM     20  C   UNL     1       6.876   5.564  16.523  0.00  0.00    +0.000 A 
ATOM     21  C   UNL     1       5.512   5.465  16.831  0.00  0.00    +0.000 A 
ATOM     22  C   UNL     1       4.656   4.921  15.863  0.00  0.00    +0.000 A 
ATOM     23  C   UNL     1       5.148   4.483  14.626  0.00  0.00    +0.000 A 
BRANCH  18  25
ATOM     24  C   UNL     1       6.294   3.372  12.326  0.00  0.00    +0.000 C 
ATOM     25  O   UNL     1       7.097   4.191  13.168  0.00  0.00    +0.000 OA
ENDBRANCH  18  25
ENDBRANCH  17  21
ENDBRANCH   1  17
TORSDOF 4
ENDMDL
MODEL 7
REMARK VINA RESULT:      -6.3      5.201      9.634
REMARK  Name = 
REMARK  5 active torsions:
REMARK  status: ('A' for Active; 'I' for Inactive)
REMARK    1  A    between atoms: C_1  and  O_2
REMARK    2  A    between atoms: O_2  and  C_3
REMARK    3  A    between atoms: C_6  and  C_7
REMARK    4  A    between atoms: C_7  and  N_8
REMARK    5  A    between atoms: C_9  and  C_10
REMARK                            x       y       z     vdW  Elec       q    Type
REMARK                         _______ _______ _______ _____ _____    ______ ____
ROOT
ATOM      1  N   UNL     1       0.471  12.202  20.042  0.00  0.00    +0.000 N 
ATOM      2  C   UNL     1       0.163  12.720  21.299  0.00  0.00    +0.000 A 
ATOM      3  C   UNL     1       1.004  13.807  21.507  0.00  0.00    +0.000 A 
ATOM      4  C   UNL     1       1.722  14.020  20.303  0.00  0.00    +0.000 A 
ATOM      5  S   UNL     1       2.872  15.137  19.650  0.00  0.00    +0.000 S 
ATOM      6  C   UNL     1       2.937  14.213  18.203  0.00  0.00    +0.000 A 
ATOM      7  C   UNL     1       2.104  13.114  18.197  0.00  0.00    +0.000 A 
ATOM      8  C   UNL     1       1.400  13.027  19.433  0.00  0.00    +0.000 A 
ENDROOT
BRANCH   2   9
ATOM      9  C   UNL     1      -0.790  12.100  22.221  0.00  0.00    +0.000 C 
ATOM     10  O   UNL     1      -0.424  11.228  23.009  0.00  0.00    +0.000 OA
ATOM     11  N   UNL     1      -2.123  12.500  22.230  0.00  0.00    +0.000 N 
ATOM     12  C   UNL     1      -2.847  13.316  21.253  0.00  0.00    +0.000 C 
ATOM     13  C   UNL     1      -3.448  14.542  21.954  0.00  0.00    +0.000 C 
ATOM     14  O   UNL     1      -4.287  14.147  23.056  0.00  0.00    +0.000 OA
ATOM     15  C   UNL     1      -3.553  13.362  24.013  0.00  0.00    +0.000 C 
ATOM     16  C   UNL     1      -2.969  12.105  23.360  0.00  0.00    +0.000 C 
ENDBRANCH   2   9
BRANCH   1  17
ATOM     17  C   UNL     1      -0.143  11.062  19.364  0.00  0.00    +0.000 C 
BRANCH  17  21
ATOM     18  C   UNL     1       2.300   7.486  19.167  0.00  0.00    +0.000 A 
ATOM     19  C   UNL     1       1.748   7.906  20.374  0.00  0.00    +0.000 A 
ATOM     20  C   UNL     1       0.967   9.063  20.433  0.00  0.00    +0.000 A 
ATOM     21  C   UNL     1       0.746   9.841  19.288  0.00  0.00    +0.000 A 
ATOM     22  C   UNL     1       1.326   9.421  18.083  0.00  0.00    +0.000 A 
ATOM     23  C   UNL     1       2.101   8.255  18.021  0.00  0.00    +0.000 A 
BRANCH  18  25
ATOM     24  C   UNL     1       3.044   5.552  18.039  0.00  0.00    +0.000 C 
ATOM     25  O   UNL     1       3.044   6.339  19.225  0.00  0.00    +0.000 OA
ENDBRANCH  18  25
ENDBRANCH  17  21
ENDBRANCH   1  17
TORSDOF 4
ENDMDL
MODEL 8
REMARK VINA RESULT:      -6.3      5.128      9.604
REMARK  Name = 
REMARK  5 active torsions:
REMARK  status: ('A' for Active; 'I' for Inactive)
REMARK    1  A    between atoms: C_1  and  O_2
REMARK    2  A    between atoms: O_2  and  C_3
REMARK    3  A    between atoms: C_6  and  C_7
REMARK    4  A    between atoms: C_7  and  N_8
REMARK    5  A    between atoms: C_9  and  C_10
REMARK                            x       y       z     vdW  Elec       q    Type
REMARK                         _______ _______ _______ _____ _____    ______ ____
ROOT
ATOM      1  N   UNL     1       0.510  12.065  20.063  0.00  0.00    +0.000 N 
ATOM      2  C   UNL     1       0.221  12.602  21.317  0.00  0.00    +0.000 A 
ATOM      3  C   UNL     1       1.103  13.658  21.519  0.00  0.00    +0.000 A 
ATOM      4  C   UNL     1       1.829  13.837  20.316  0.00  0.00    +0.000 A 
ATOM      5  S   UNL     1       3.021  14.905  19.657  0.00  0.00    +0.000 S 
ATOM      6  C   UNL     1       3.052  13.972  18.216  0.00  0.00    +0.000 A 
ATOM      7  C   UNL     1       2.177  12.905  18.215  0.00  0.00    +0.000 A 
ATOM      8  C   UNL     1       1.470  12.852  19.450  0.00  0.00    +0.000 A 
ENDROOT
BRANCH   2   9
ATOM      9  C   UNL     1      -0.756  12.024  22.242  0.00  0.00    +0.000 C 
ATOM     10  O   UNL     1      -0.424  11.142  23.033  0.00  0.00    +0.000 OA
ATOM     11  N   UNL     1      -2.071  12.476  22.249  0.00  0.00    +0.000 N 
ATOM     12  C   UNL     1      -2.763  13.316  21.269  0.00  0.00    +0.000 C 
ATOM     13  C   UNL     1      -3.316  14.567  21.964  0.00  0.00    +0.000 C 
ATOM     14  O   UNL     1      -4.170  14.210  23.067  0.00  0.00    +0.000 OA
ATOM     15  C   UNL     1      -3.467  13.401  24.028  0.00  0.00    +0.000 C 
ATOM     16  C   UNL     1      -2.933  12.119  23.380  0.00  0.00    +0.000 C 
ENDBRANCH   2   9
BRANCH   1  17
ATOM     17  C   UNL     1      -0.146  10.947  19.392  0.00  0.00    +0.000 C 
BRANCH  17  21
ATOM     18  C   UNL     1       2.421   7.469  19.048  0.00  0.00    +0.000 A 
ATOM     19  C   UNL     1       2.116   8.242  17.932  0.00  0.00    +0.000 A 
ATOM     20  C   UNL     1       1.283   9.358  18.047  0.00  0.00    +0.000 A 
ATOM     21  C   UNL     1       0.713   9.707  19.280  0.00  0.00    +0.000 A 
ATOM     22  C   UNL     1       1.008   8.907  20.392  0.00  0.00    +0.000 A 
ATOM     23  C   UNL     1       1.851   7.794  20.279  0.00  0.00    +0.000 A 
BRANCH  18  25
ATOM     24  C   UNL     1       4.020   6.476  17.627  0.00  0.00    +0.000 C 
ATOM     25  O   UNL     1       3.247   6.403  18.820  0.00  0.00    +0.000 OA
ENDBRANCH  18  25
ENDBRANCH  17  21
ENDBRANCH   1  17
TORSDOF 4
ENDMDL
MODEL 9
REMARK VINA RESULT:      -6.3      2.692      4.966
REMARK  Name = 
REMARK  5 active torsions:
REMARK  status: ('A' for Active; 'I' for Inactive)
REMARK    1  A    between atoms: C_1  and  O_2
REMARK    2  A    between atoms: O_2  and  C_3
REMARK    3  A    between atoms: C_6  and  C_7
REMARK    4  A    between atoms: C_7  and  N_8
REMARK    5  A    between atoms: C_9  and  C_10
REMARK                            x       y       z     vdW  Elec       q    Type
REMARK                         _______ _______ _______ _____ _____    ______ ____
ROOT
ATOM      1  N   UNL     1       4.087   5.881  18.452  0.00  0.00    +0.000 N 
ATOM      2  C   UNL     1       4.270   5.044  19.552  0.00  0.00    +0.000 A 
ATOM      3  C   UNL     1       5.642   4.921  19.743  0.00  0.00    +0.000 A 
ATOM      4  C   UNL     1       6.275   5.804  18.834  0.00  0.00    +0.000 A 
ATOM      5  S   UNL     1       7.871   6.343  18.436  0.00  0.00    +0.000 S 
ATOM      6  C   UNL     1       7.223   7.301  17.165  0.00  0.00    +0.000 A 
ATOM      7  C   UNL     1       5.850   7.240  17.056  0.00  0.00    +0.000 A 
ATOM      8  C   UNL     1       5.319   6.364  18.047  0.00  0.00    +0.000 A 
ENDROOT
BRANCH   2   9
ATOM      9  C   UNL     1       3.176   4.360  20.243  0.00  0.00    +0.000 C 
ATOM     10  O   UNL     1       2.673   4.846  21.256  0.00  0.00    +0.000 OA
ATOM     11  N   UNL     1       2.678   3.157  19.753  0.00  0.00    +0.000 N 
ATOM     12  C   UNL     1       3.248   2.268  18.738  0.00  0.00    +0.000 C 
ATOM     13  C   UNL     1       2.234   2.071  17.603  0.00  0.00    +0.000 C 
ATOM     14  O   UNL     1       0.980   1.578  18.109  0.00  0.00    +0.000 OA
ATOM     15  C   UNL     1       0.428   2.473  19.091  0.00  0.00    +0.000 C 
ATOM     16  C   UNL     1       1.395   2.665  20.264  0.00  0.00    +0.000 C 
ENDBRANCH   2   9
BRANCH   1  17
ATOM     17  C   UNL     1       2.827   6.324  17.860  0.00  0.00    +0.000 C 
BRANCH  17  21
ATOM     18  C   UNL     1       1.153   9.967  19.511  0.00  0.00    +0.000 A 
ATOM     19  C   UNL     1       1.587   9.917  18.190  0.00  0.00    +0.000 A 
ATOM     20  C   UNL     1       2.132   8.743  17.665  0.00  0.00    +0.000 A 
ATOM     21  C   UNL     1       2.280   7.599  18.462  0.00  0.00    +0.000 A 
ATOM     22  C   UNL     1       1.862   7.668  19.798  0.00  0.00    +0.000 A 
ATOM     23  C   UNL     1       1.306   8.842  20.322  0.00  0.00    +0.000 A 
BRANCH  18  25
ATOM     24  C   UNL     1      -0.758  11.340  19.677  0.00  0.00    +0.000 C 
ATOM     25  O   UNL     1       0.634  11.166  19.918  0.00  0.00    +0.000 OA
ENDBRANCH  18  25
ENDBRANCH  17  21
ENDBRANCH   1  17
TORSDOF 4
ENDMDL
