MODEL 1
REMARK VINA RESULT:      -8.7      0.000      0.000
REMARK  Name = 
REMARK  5 active torsions:
REMARK  status: ('A' for Active; 'I' for Inactive)
REMARK    1  A    between atoms: C_2  and  C_12
REMARK    2  A    between atoms: N_3  and  C_4
REMARK    3  A    between atoms: C_4  and  C_5
REMARK    4  A    between atoms: C_5  and  C_6
REMARK    5  A    between atoms: C_15  and  C_16
REMARK                            x       y       z     vdW  Elec       q    Type
REMARK                         _______ _______ _______ _____ _____    ______ ____
ROOT
ATOM      1  C   UNL     1       3.616   6.970  17.833  0.00  0.00    +0.000 A 
ATOM      2  C   UNL     1       3.229   8.289  17.588  0.00  0.00    +0.000 A 
ATOM      3  C   UNL     1       2.355   8.957  18.450  0.00  0.00    +0.000 A 
ATOM      4  C   UNL     1       1.797   8.339  19.597  0.00  0.00    +0.000 A 
ATOM      5  C   UNL     1       2.153   6.978  19.825  0.00  0.00    +0.000 A 
ATOM      6  C   UNL     1       1.810   5.969  20.779  0.00  0.00    +0.000 A 
ATOM      7  C   UNL     1       2.551   4.855  20.477  0.00  0.00    +0.000 A 
ATOM      8  O   UNL     1       3.297   5.077  19.372  0.00  0.00    +0.000 OA
ATOM      9  C   UNL     1       3.053   6.357  18.956  0.00  0.00    +0.000 A 
ENDROOT
BRANCH   4  10
ATOM     10  C   UNL     1       0.894   9.068  20.518  0.00  0.00    +0.000 A 
ATOM     11  C   UNL     1      -0.057   9.993  20.035  0.00  0.00    +0.000 A 
ATOM     12  C   UNL     1      -0.916  10.685  20.899  0.00  0.00    +0.000 A 
ATOM     13  C   UNL     1      -0.854  10.445  22.264  0.00  0.00    +0.000 A 
ATOM     14  F   UNL     1      -1.691  11.088  23.088  0.00  0.00    +0.000 F 
ATOM     15  C   UNL     1       0.074   9.549  22.767  0.00  0.00    +0.000 A 
ATOM     16  F   UNL     1       0.135   9.304  24.083  0.00  0.00    +0.000 F 
ATOM     17  C   UNL     1       0.956   8.890  21.913  0.00  0.00    +0.000 A 
ENDBRANCH   4  10
BRANCH   1  19
ATOM     18  O   UNL     1       4.782   6.735  15.797  0.00  0.00    +0.000 OA
ATOM     19  C   UNL     1       4.587   6.300  16.926  0.00  0.00    +0.000 C 
ATOM     20  N   UNL     1       5.235   5.195  17.434  0.00  0.00    +0.000 N 
ATOM     21  H   UNL     1       4.997   4.878  18.370  0.00  0.00    +0.000 HD
BRANCH  20  22
ATOM     22  C   UNL     1       6.232   4.470  16.682  0.00  0.00    +0.000 C 
BRANCH  22  23
ATOM     23  C   UNL     1       5.603   3.647  15.559  0.00  0.00    +0.000 C 
BRANCH  23  24
ATOM     24  C   UNL     1       6.262   3.936  14.237  0.00  0.00    +0.000 A 
ATOM     25  C   UNL     1       7.247   4.927  14.136  0.00  0.00    +0.000 A 
ATOM     26  C   UNL     1       7.807   5.238  12.896  0.00  0.00    +0.000 A 
ATOM     27  C   UNL     1       7.386   4.564  11.752  0.00  0.00    +0.000 A 
ATOM     28  C   UNL     1       6.411   3.573  11.845  0.00  0.00    +0.000 A 
ATOM     29  C   UNL     1       5.850   3.259  13.082  0.00  0.00    +0.000 A 
ENDBRANCH  23  24
ENDBRANCH  22  23
ENDBRANCH  20  22
ENDBRANCH   1  19
TORSDOF 5
ENDMDL
MODEL 2
REMARK VINA RESULT:      -8.6      1.047      1.841
REMARK  Name = 
REMARK  5 active torsions:
REMARK  status: ('A' for Active; 'I' for Inactive)
REMARK    1  A    between atoms: C_2  and  C_12
REMARK    2  A    between atoms: N_3  and  C_4
REMARK    3  A    between atoms: C_4  and  C_5
REMARK    4  A    between atoms: C_5  and  C_6
REMARK    5  A    between atoms: C_15  and  C_16
REMARK                            x       y       z     vdW  Elec       q    Type
REMARK                         _______ _______ _______ _____ _____    ______ ____
ROOT
ATOM      1  C   UNL     1       3.528   5.926  18.140  0.00  0.00    +0.000 A 
ATOM      2  C   UNL     1       3.352   7.251  17.737  0.00  0.00    +0.000 A 
ATOM      3  C   UNL     1       2.573   8.137  18.487  0.00  0.00    +0.000 A 
ATOM      4  C   UNL     1       1.905   7.744  19.674  0.00  0.00    +0.000 A 
ATOM      5  C   UNL     1       2.045   6.381  20.063  0.00  0.00    +0.000 A 
ATOM      6  C   UNL     1       1.533   5.550  21.110  0.00  0.00    +0.000 A 
ATOM      7  C   UNL     1       2.102   4.311  20.960  0.00  0.00    +0.000 A 
ATOM      8  O   UNL     1       2.894   4.291  19.866  0.00  0.00    +0.000 OA
ATOM      9  C   UNL     1       2.856   5.537  19.302  0.00  0.00    +0.000 A 
ENDROOT
BRANCH   4  10
ATOM     10  C   UNL     1       1.106   8.701  20.476  0.00  0.00    +0.000 A 
ATOM     11  C   UNL     1       1.158   8.699  21.887  0.00  0.00    +0.000 A 
ATOM     12  C   UNL     1       0.407   9.600  22.653  0.00  0.00    +0.000 A 
ATOM     13  C   UNL     1      -0.394  10.538  22.017  0.00  0.00    +0.000 A 
ATOM     14  F   UNL     1      -1.093  11.416  22.748  0.00  0.00    +0.000 F 
ATOM     15  C   UNL     1      -0.470  10.559  20.635  0.00  0.00    +0.000 A 
ATOM     16  F   UNL     1      -1.234  11.466  20.012  0.00  0.00    +0.000 F 
ATOM     17  C   UNL     1       0.245   9.636  19.873  0.00  0.00    +0.000 A 
ENDBRANCH   4  10
BRANCH   1  19
ATOM     18  O   UNL     1       3.918   4.089  16.714  0.00  0.00    +0.000 OA
ATOM     19  C   UNL     1       4.403   5.019  17.349  0.00  0.00    +0.000 C 
ATOM     20  N   UNL     1       5.752   5.295  17.375  0.00  0.00    +0.000 N 
ATOM     21  H   UNL     1       6.080   6.067  17.950  0.00  0.00    +0.000 HD
BRANCH  20  22
ATOM     22  C   UNL     1       6.714   4.525  16.623  0.00  0.00    +0.000 C 
BRANCH  22  23
ATOM     23  C   UNL     1       7.324   5.342  15.485  0.00  0.00    +0.000 C 
BRANCH  23  24
ATOM     24  C   UNL     1       6.954   4.768  14.143  0.00  0.00    +0.000 A 
ATOM     25  C   UNL     1       5.855   3.908  14.017  0.00  0.00    +0.000 A 
ATOM     26  C   UNL     1       5.557   3.324  12.785  0.00  0.00    +0.000 A 
ATOM     27  C   UNL     1       6.354   3.594  11.674  0.00  0.00    +0.000 A 
ATOM     28  C   UNL     1       7.445   4.452  11.790  0.00  0.00    +0.000 A 
ATOM     29  C   UNL     1       7.746   5.037  13.019  0.00  0.00    +0.000 A 
ENDBRANCH  23  24
ENDBRANCH  22  23
ENDBRANCH  20  22
ENDBRANCH   1  19
TORSDOF 5
ENDMDL
MODEL 3
REMARK VINA RESULT:      -8.5      3.617      5.705
REMARK  Name = 
REMARK  5 active torsions:
REMARK  status: ('A' for Active; 'I' for Inactive)
REMARK    1  A    between atoms: C_2  and  C_12
REMARK    2  A    between atoms: N_3  and  C_4
REMARK    3  A    between atoms: C_4  and  C_5
REMARK    4  A    between atoms: C_5  and  C_6
REMARK    5  A    between atoms: C_15  and  C_16
REMARK                            x       y       z     vdW  Elec       q    Type
REMARK                         _______ _______ _______ _____ _____    ______ ____
ROOT
ATOM      1  C   UNL     1       0.695   8.888  21.168  0.00  0.00    +0.000 A 
ATOM      2  C   UNL     1       0.542   8.989  22.553  0.00  0.00    +0.000 A 
ATOM      3  C   UNL     1      -0.198  10.028  23.124  0.00  0.00    +0.000 A 
ATOM      4  C   UNL     1      -0.811  11.041  22.346  0.00  0.00    +0.000 A 
ATOM      5  C   UNL     1      -0.619  10.967  20.936  0.00  0.00    +0.000 A 
ATOM      6  C   UNL     1      -0.985  11.761  19.803  0.00  0.00    +0.000 A 
ATOM      7  C   UNL     1      -0.534  11.106  18.686  0.00  0.00    +0.000 A 
ATOM      8  O   UNL     1       0.132   9.984  19.039  0.00  0.00    +0.000 OA
ATOM      9  C   UNL     1       0.102   9.896  20.405  0.00  0.00    +0.000 A 
ENDROOT
BRANCH   4  10
ATOM     10  C   UNL     1      -1.617  12.121  22.963  0.00  0.00    +0.000 A 
ATOM     11  C   UNL     1      -1.105  13.430  23.104  0.00  0.00    +0.000 A 
ATOM     12  C   UNL     1      -1.861  14.457  23.684  0.00  0.00    +0.000 A 
ATOM     13  C   UNL     1      -3.154  14.199  24.112  0.00  0.00    +0.000 A 
ATOM     14  F   UNL     1      -3.886  15.186  24.644  0.00  0.00    +0.000 F 
ATOM     15  C   UNL     1      -3.680  12.923  23.993  0.00  0.00    +0.000 A 
ATOM     16  F   UNL     1      -4.932  12.665  24.396  0.00  0.00    +0.000 F 
ATOM     17  C   UNL     1      -2.916  11.890  23.454  0.00  0.00    +0.000 A 
ENDBRANCH   4  10
BRANCH   1  19
ATOM     18  O   UNL     1       1.398   6.638  21.113  0.00  0.00    +0.000 OA
ATOM     19  C   UNL     1       1.446   7.743  20.585  0.00  0.00    +0.000 C 
ATOM     20  N   UNL     1       2.169   8.006  19.443  0.00  0.00    +0.000 N 
ATOM     21  H   UNL     1       2.182   8.956  19.082  0.00  0.00    +0.000 HD
BRANCH  20  22
ATOM     22  C   UNL     1       2.912   6.983  18.746  0.00  0.00    +0.000 C 
BRANCH  22  23
ATOM     23  C   UNL     1       2.013   6.167  17.818  0.00  0.00    +0.000 C 
BRANCH  23  24
ATOM     24  C   UNL     1       2.281   4.693  17.957  0.00  0.00    +0.000 A 
ATOM     25  C   UNL     1       3.450   4.130  17.428  0.00  0.00    +0.000 A 
ATOM     26  C   UNL     1       3.662   2.752  17.500  0.00  0.00    +0.000 A 
ATOM     27  C   UNL     1       2.709   1.930  18.097  0.00  0.00    +0.000 A 
ATOM     28  C   UNL     1       1.547   2.483  18.632  0.00  0.00    +0.000 A 
ATOM     29  C   UNL     1       1.332   3.858  18.562  0.00  0.00    +0.000 A 
ENDBRANCH  23  24
ENDBRANCH  22  23
ENDBRANCH  20  22
ENDBRANCH   1  19
TORSDOF 5
ENDMDL
MODEL 4
REMARK VINA RESULT:      -8.5      1.628      2.841
REMARK  Name = 
REMARK  5 active torsions:
REMARK  status: ('A' for Active; 'I' for Inactive)
REMARK    1  A    between atoms: C_2  and  C_12
REMARK    2  A    between atoms: N_3  and  C_4
REMARK    3  A    between atoms: C_4  and  C_5
REMARK    4  A    between atoms: C_5  and  C_6
REMARK    5  A    between atoms: C_15  and  C_16
REMARK                            x       y       z     vdW  Elec       q    Type
REMARK                         _______ _______ _______ _____ _____    ______ ____
ROOT
ATOM      1  C   UNL     1       3.332   5.659  17.905  0.00  0.00    +0.000 A 
ATOM      2  C   UNL     1       3.243   6.988  17.485  0.00  0.00    +0.000 A 
ATOM      3  C   UNL     1       2.608   7.953  18.272  0.00  0.00    +0.000 A 
ATOM      4  C   UNL     1       2.004   7.643  19.516  0.00  0.00    +0.000 A 
ATOM      5  C   UNL     1       2.053   6.279  19.926  0.00  0.00    +0.000 A 
ATOM      6  C   UNL     1       1.553   5.516  21.029  0.00  0.00    +0.000 A 
ATOM      7  C   UNL     1       1.995   4.228  20.864  0.00  0.00    +0.000 A 
ATOM      8  O   UNL     1       2.693   4.117  19.713  0.00  0.00    +0.000 OA
ATOM      9  C   UNL     1       2.722   5.353  19.124  0.00  0.00    +0.000 A 
ENDROOT
BRANCH   4  10
ATOM     10  C   UNL     1       1.360   8.681  20.354  0.00  0.00    +0.000 A 
ATOM     11  C   UNL     1       0.920   9.903  19.800  0.00  0.00    +0.000 A 
ATOM     12  C   UNL     1       0.309  10.890  20.585  0.00  0.00    +0.000 A 
ATOM     13  C   UNL     1       0.104  10.660  21.937  0.00  0.00    +0.000 A 
ATOM     14  F   UNL     1      -0.503  11.593  22.683  0.00  0.00    +0.000 F 
ATOM     15  C   UNL     1       0.532   9.474  22.509  0.00  0.00    +0.000 A 
ATOM     16  F   UNL     1       0.331   9.240  23.814  0.00  0.00    +0.000 F 
ATOM     17  C   UNL     1       1.177   8.509  21.739  0.00  0.00    +0.000 A 
ENDBRANCH   4  10
BRANCH   1  19
ATOM     18  O   UNL     1       3.998   3.469  17.340  0.00  0.00    +0.000 OA
ATOM     19  C   UNL     1       4.056   4.663  17.070  0.00  0.00    +0.000 C 
ATOM     20  N   UNL     1       4.768   5.164  16.002  0.00  0.00    +0.000 N 
ATOM     21  H   UNL     1       4.792   6.170  15.861  0.00  0.00    +0.000 HD
BRANCH  20  22
ATOM     22  C   UNL     1       5.485   4.312  15.083  0.00  0.00    +0.000 C 
BRANCH  22  23
ATOM     23  C   UNL     1       6.998   4.443  15.257  0.00  0.00    +0.000 C 
BRANCH  23  24
ATOM     24  C   UNL     1       7.338   5.230  16.494  0.00  0.00    +0.000 A 
ATOM     25  C   UNL     1       7.615   4.573  17.700  0.00  0.00    +0.000 A 
ATOM     26  C   UNL     1       7.863   5.308  18.860  0.00  0.00    +0.000 A 
ATOM     27  C   UNL     1       7.835   6.700  18.823  0.00  0.00    +0.000 A 
ATOM     28  C   UNL     1       7.566   7.361  17.627  0.00  0.00    +0.000 A 
ATOM     29  C   UNL     1       7.318   6.631  16.466  0.00  0.00    +0.000 A 
ENDBRANCH  23  24
ENDBRANCH  22  23
ENDBRANCH  20  22
ENDBRANCH   1  19
TORSDOF 5
ENDMDL
MODEL 5
REMARK VINA RESULT:      -8.5      4.466     10.680
REMARK  Name = 
REMARK  5 active torsions:
REMARK  status: ('A' for Active; 'I' for Inactive)
REMARK    1  A    between atoms: C_2  and  C_12
REMARK    2  A    between atoms: N_3  and  C_4
REMARK    3  A    between atoms: C_4  and  C_5
REMARK    4  A    between atoms: C_5  and  C_6
REMARK    5  A    between atoms: C_15  and  C_16
REMARK                            x       y       z     vdW  Elec       q    Type
REMARK                         _______ _______ _______ _____ _____    ______ ____
ROOT
ATOM      1  C   UNL     1       0.824   9.047  21.180  0.00  0.00    +0.000 A 
ATOM      2  C   UNL     1       1.064   7.719  21.540  0.00  0.00    +0.000 A 
ATOM      3  C   UNL     1       1.709   6.839  20.666  0.00  0.00    +0.000 A 
ATOM      4  C   UNL     1       2.135   7.229  19.372  0.00  0.00    +0.000 A 
ATOM      5  C   UNL     1       1.852   8.570  18.984  0.00  0.00    +0.000 A 
ATOM      6  C   UNL     1       2.034   9.363  17.806  0.00  0.00    +0.000 A 
ATOM      7  C   UNL     1       1.586  10.627  18.095  0.00  0.00    +0.000 A 
ATOM      8  O   UNL     1       1.091  10.671  19.351  0.00  0.00    +0.000 OA
ATOM      9  C   UNL     1       1.231   9.424  19.898  0.00  0.00    +0.000 A 
ENDROOT
BRANCH   4  10
ATOM     10  C   UNL     1       2.845   6.294  18.467  0.00  0.00    +0.000 A 
ATOM     11  C   UNL     1       4.070   6.648  17.861  0.00  0.00    +0.000 A 
ATOM     12  C   UNL     1       4.748   5.770  17.005  0.00  0.00    +0.000 A 
ATOM     13  C   UNL     1       4.223   4.510  16.759  0.00  0.00    +0.000 A 
ATOM     14  F   UNL     1       4.883   3.661  15.961  0.00  0.00    +0.000 F 
ATOM     15  C   UNL     1       3.019   4.138  17.335  0.00  0.00    +0.000 A 
ATOM     16  F   UNL     1       2.508   2.920  17.110  0.00  0.00    +0.000 F 
ATOM     17  C   UNL     1       2.323   5.025  18.153  0.00  0.00    +0.000 A 
ENDBRANCH   4  10
BRANCH   1  19
ATOM     18  O   UNL     1       0.368   9.842  23.352  0.00  0.00    +0.000 OA
ATOM     19  C   UNL     1       0.179   9.975  22.148  0.00  0.00    +0.000 C 
ATOM     20  N   UNL     1      -0.613  10.964  21.610  0.00  0.00    +0.000 N 
ATOM     21  H   UNL     1      -0.744  10.991  20.603  0.00  0.00    +0.000 HD
BRANCH  20  22
ATOM     22  C   UNL     1      -1.268  11.959  22.427  0.00  0.00    +0.000 C 
BRANCH  22  23
ATOM     23  C   UNL     1      -2.440  12.608  21.692  0.00  0.00    +0.000 C 
BRANCH  23  24
ATOM     24  C   UNL     1      -3.664  12.673  22.567  0.00  0.00    +0.000 A 
ATOM     25  C   UNL     1      -3.573  12.393  23.936  0.00  0.00    +0.000 A 
ATOM     26  C   UNL     1      -4.720  12.387  24.731  0.00  0.00    +0.000 A 
ATOM     27  C   UNL     1      -5.963  12.658  24.162  0.00  0.00    +0.000 A 
ATOM     28  C   UNL     1      -6.061  12.943  22.802  0.00  0.00    +0.000 A 
ATOM     29  C   UNL     1      -4.917  12.950  22.006  0.00  0.00    +0.000 A 
ENDBRANCH  23  24
ENDBRANCH  22  23
ENDBRANCH  20  22
ENDBRANCH   1  19
TORSDOF 5
ENDMDL
MODEL 6
REMARK VINA RESULT:      -8.5      1.676      3.111
REMARK  Name = 
REMARK  5 active torsions:
REMARK  status: ('A' for Active; 'I' for Inactive)
REMARK    1  A    between atoms: C_2  and  C_12
REMARK    2  A    between atoms: N_3  and  C_4
REMARK    3  A    between atoms: C_4  and  C_5
REMARK    4  A    between atoms: C_5  and  C_6
REMARK    5  A    between atoms: C_15  and  C_16
REMARK                            x       y       z     vdW  Elec       q    Type
REMARK                         _______ _______ _______ _____ _____    ______ ____
ROOT
ATOM      1  C   UNL     1       3.407   5.647  17.949  0.00  0.00    +0.000 A 
ATOM      2  C   UNL     1       3.339   6.994  17.584  0.00  0.00    +0.000 A 
ATOM      3  C   UNL     1       2.657   7.923  18.375  0.00  0.00    +0.000 A 
ATOM      4  C   UNL     1       1.983   7.558  19.566  0.00  0.00    +0.000 A 
ATOM      5  C   UNL     1       2.011   6.178  19.918  0.00  0.00    +0.000 A 
ATOM      6  C   UNL     1       1.451   5.367  20.955  0.00  0.00    +0.000 A 
ATOM      7  C   UNL     1       1.905   4.087  20.760  0.00  0.00    +0.000 A 
ATOM      8  O   UNL     1       2.669   4.027  19.647  0.00  0.00    +0.000 OA
ATOM      9  C   UNL     1       2.728   5.287  19.116  0.00  0.00    +0.000 A 
ENDROOT
BRANCH   4  10
ATOM     10  C   UNL     1       1.289   8.558  20.411  0.00  0.00    +0.000 A 
ATOM     11  C   UNL     1       1.403   8.538  21.818  0.00  0.00    +0.000 A 
ATOM     12  C   UNL     1       0.751   9.480  22.624  0.00  0.00    +0.000 A 
ATOM     13  C   UNL     1      -0.010  10.478  22.033  0.00  0.00    +0.000 A 
ATOM     14  F   UNL     1      -0.613  11.394  22.801  0.00  0.00    +0.000 F 
ATOM     15  C   UNL     1      -0.146  10.519  20.655  0.00  0.00    +0.000 A 
ATOM     16  F   UNL     1      -0.872  11.484  20.074  0.00  0.00    +0.000 F 
ATOM     17  C   UNL     1       0.468   9.558  19.855  0.00  0.00    +0.000 A 
ENDBRANCH   4  10
BRANCH   1  19
ATOM     18  O   UNL     1       4.282   3.515  17.451  0.00  0.00    +0.000 OA
ATOM     19  C   UNL     1       4.181   4.689  17.114  0.00  0.00    +0.000 C 
ATOM     20  N   UNL     1       4.752   5.200  15.969  0.00  0.00    +0.000 N 
ATOM     21  H   UNL     1       4.648   6.192  15.773  0.00  0.00    +0.000 HD
BRANCH  20  22
ATOM     22  C   UNL     1       5.496   4.378  15.044  0.00  0.00    +0.000 C 
BRANCH  22  23
ATOM     23  C   UNL     1       6.997   4.652  15.129  0.00  0.00    +0.000 C 
BRANCH  23  24
ATOM     24  C   UNL     1       7.357   5.317  16.431  0.00  0.00    +0.000 A 
ATOM     25  C   UNL     1       7.677   4.548  17.557  0.00  0.00    +0.000 A 
ATOM     26  C   UNL     1       7.943   5.167  18.779  0.00  0.00    +0.000 A 
ATOM     27  C   UNL     1       7.890   6.555  18.883  0.00  0.00    +0.000 A 
ATOM     28  C   UNL     1       7.578   7.328  17.767  0.00  0.00    +0.000 A 
ATOM     29  C   UNL     1       7.312   6.712  16.545  0.00  0.00    +0.000 A 
ENDBRANCH  23  24
ENDBRANCH  22  23
ENDBRANCH  20  22
ENDBRANCH   1  19
TORSDOF 5
ENDMDL
MODEL 7
REMARK VINA RESULT:      -8.5      2.942      4.644
REMARK  Name = 
REMARK  5 active torsions:
REMARK  status: ('A' for Active; 'I' for Inactive)
REMARK    1  A    between atoms: C_2  and  C_12
REMARK    2  A    between atoms: N_3  and  C_4
REMARK    3  A    between atoms: C_4  and  C_5
REMARK    4  A    between atoms: C_5  and  C_6
REMARK    5  A    between atoms: C_15  and  C_16
REMARK                            x       y       z     vdW  Elec       q    Type
REMARK                         _______ _______ _______ _____ _____    ______ ____
ROOT
ATOM      1  C   UNL     1       2.924   7.525  18.094  0.00  0.00    +0.000 A 
ATOM      2  C   UNL     1       2.679   8.719  17.411  0.00  0.00    +0.000 A 
ATOM      3  C   UNL     1       1.841   9.699  17.950  0.00  0.00    +0.000 A 
ATOM      4  C   UNL     1       1.181   9.536  19.193  0.00  0.00    +0.000 A 
ATOM      5  C   UNL     1       1.393   8.301  19.871  0.00  0.00    +0.000 A 
ATOM      6  C   UNL     1       0.915   7.690  21.074  0.00  0.00    +0.000 A 
ATOM      7  C   UNL     1       1.555   6.483  21.198  0.00  0.00    +0.000 A 
ATOM      8  O   UNL     1       2.362   6.271  20.134  0.00  0.00    +0.000 OA
ATOM      9  C   UNL     1       2.260   7.360  19.312  0.00  0.00    +0.000 A 
ENDROOT
BRANCH   4  10
ATOM     10  C   UNL     1       0.318  10.596  19.767  0.00  0.00    +0.000 A 
ATOM     11  C   UNL     1       0.748  11.382  20.858  0.00  0.00    +0.000 A 
ATOM     12  C   UNL     1      -0.060  12.387  21.406  0.00  0.00    +0.000 A 
ATOM     13  C   UNL     1      -1.307  12.640  20.853  0.00  0.00    +0.000 A 
ATOM     14  F   UNL     1      -2.070  13.617  21.360  0.00  0.00    +0.000 F 
ATOM     15  C   UNL     1      -1.758  11.881  19.787  0.00  0.00    +0.000 A 
ATOM     16  F   UNL     1      -2.957  12.123  19.241  0.00  0.00    +0.000 F 
ATOM     17  C   UNL     1      -0.972  10.854  19.268  0.00  0.00    +0.000 A 
ENDBRANCH   4  10
BRANCH   1  19
ATOM     18  O   UNL     1       4.856   6.882  16.905  0.00  0.00    +0.000 OA
ATOM     19  C   UNL     1       3.859   6.520  17.520  0.00  0.00    +0.000 C 
ATOM     20  N   UNL     1       3.537   5.197  17.729  0.00  0.00    +0.000 N 
ATOM     21  H   UNL     1       2.677   4.977  18.223  0.00  0.00    +0.000 HD
BRANCH  20  22
ATOM     22  C   UNL     1       4.373   4.115  17.265  0.00  0.00    +0.000 C 
BRANCH  22  23
ATOM     23  C   UNL     1       3.788   2.753  17.634  0.00  0.00    +0.000 C 
BRANCH  23  24
ATOM     24  C   UNL     1       2.923   2.846  18.863  0.00  0.00    +0.000 A 
ATOM     25  C   UNL     1       3.494   2.769  20.140  0.00  0.00    +0.000 A 
ATOM     26  C   UNL     1       2.682   2.787  21.275  0.00  0.00    +0.000 A 
ATOM     27  C   UNL     1       1.298   2.880  21.141  0.00  0.00    +0.000 A 
ATOM     28  C   UNL     1       0.723   2.963  19.875  0.00  0.00    +0.000 A 
ATOM     29  C   UNL     1       1.532   2.945  18.739  0.00  0.00    +0.000 A 
ENDBRANCH  23  24
ENDBRANCH  22  23
ENDBRANCH  20  22
ENDBRANCH   1  19
TORSDOF 5
ENDMDL
MODEL 8
REMARK VINA RESULT:      -8.5      1.073      1.373
REMARK  Name = 
REMARK  5 active torsions:
REMARK  status: ('A' for Active; 'I' for Inactive)
REMARK    1  A    between atoms: C_2  and  C_12
REMARK    2  A    between atoms: N_3  and  C_4
REMARK    3  A    between atoms: C_4  and  C_5
REMARK    4  A    between atoms: C_5  and  C_6
REMARK    5  A    between atoms: C_15  and  C_16
REMARK                            x       y       z     vdW  Elec       q    Type
REMARK                         _______ _______ _______ _____ _____    ______ ____
ROOT
ATOM      1  C   UNL     1       3.656   5.784  17.944  0.00  0.00    +0.000 A 
ATOM      2  C   UNL     1       3.499   7.107  17.524  0.00  0.00    +0.000 A 
ATOM      3  C   UNL     1       2.739   8.015  18.266  0.00  0.00    +0.000 A 
ATOM      4  C   UNL     1       2.073   7.650  19.462  0.00  0.00    +0.000 A 
ATOM      5  C   UNL     1       2.193   6.290  19.870  0.00  0.00    +0.000 A 
ATOM      6  C   UNL     1       1.675   5.482  20.932  0.00  0.00    +0.000 A 
ATOM      7  C   UNL     1       2.222   4.232  20.795  0.00  0.00    +0.000 A 
ATOM      8  O   UNL     1       3.007   4.184  19.696  0.00  0.00    +0.000 OA
ATOM      9  C   UNL     1       2.986   5.423  19.115  0.00  0.00    +0.000 A 
ENDROOT
BRANCH   4  10
ATOM     10  C   UNL     1       1.294   8.630  20.256  0.00  0.00    +0.000 A 
ATOM     11  C   UNL     1       0.568   9.668  19.632  0.00  0.00    +0.000 A 
ATOM     12  C   UNL     1      -0.171  10.598  20.374  0.00  0.00    +0.000 A 
ATOM     13  C   UNL     1      -0.217  10.491  21.756  0.00  0.00    +0.000 A 
ATOM     14  F   UNL     1      -0.944  11.365  22.464  0.00  0.00    +0.000 F 
ATOM     15  C   UNL     1       0.491   9.488  22.396  0.00  0.00    +0.000 A 
ATOM     16  F   UNL     1       0.446   9.371  23.730  0.00  0.00    +0.000 F 
ATOM     17  C   UNL     1       1.260   8.587  21.662  0.00  0.00    +0.000 A 
ENDBRANCH   4  10
BRANCH   1  19
ATOM     18  O   UNL     1       4.049   3.802  16.730  0.00  0.00    +0.000 OA
ATOM     19  C   UNL     1       4.511   4.852  17.160  0.00  0.00    +0.000 C 
ATOM     20  N   UNL     1       5.814   5.246  16.954  0.00  0.00    +0.000 N 
ATOM     21  H   UNL     1       6.132   6.118  17.369  0.00  0.00    +0.000 HD
BRANCH  20  22
ATOM     22  C   UNL     1       6.746   4.462  16.178  0.00  0.00    +0.000 C 
BRANCH  22  23
ATOM     23  C   UNL     1       7.042   5.113  14.828  0.00  0.00    +0.000 C 
BRANCH  23  24
ATOM     24  C   UNL     1       6.510   4.281  13.692  0.00  0.00    +0.000 A 
ATOM     25  C   UNL     1       7.371   3.806  12.695  0.00  0.00    +0.000 A 
ATOM     26  C   UNL     1       6.864   3.092  11.608  0.00  0.00    +0.000 A 
ATOM     27  C   UNL     1       5.495   2.851  11.510  0.00  0.00    +0.000 A 
ATOM     28  C   UNL     1       4.632   3.315  12.501  0.00  0.00    +0.000 A 
ATOM     29  C   UNL     1       5.136   4.027  13.588  0.00  0.00    +0.000 A 
ENDBRANCH  23  24
ENDBRANCH  22  23
ENDBRANCH  20  22
ENDBRANCH   1  19
TORSDOF 5
ENDMDL
MODEL 9
REMARK VINA RESULT:      -8.4      4.134      5.886
REMARK  Name = 
REMARK  5 active torsions:
REMARK  status: ('A' for Active; 'I' for Inactive)
REMARK    1  A    between atoms: C_2  and  C_12
REMARK    2  A    between atoms: N_3  and  C_4
REMARK    3  A    between atoms: C_4  and  C_5
REMARK    4  A    between atoms: C_5  and  C_6
REMARK    5  A    between atoms: C_15  and  C_16
REMARK                            x       y       z     vdW  Elec       q    Type
REMARK                         _______ _______ _______ _____ _____    ______ ____
ROOT
ATOM      1  C   UNL     1       0.540  10.241  19.362  0.00  0.00    +0.000 A 
ATOM      2  C   UNL     1      -0.279  11.232  18.816  0.00  0.00    +0.000 A 
ATOM      3  C   UNL     1      -1.148  11.975  19.621  0.00  0.00    +0.000 A 
ATOM      4  C   UNL     1      -1.266  11.756  21.016  0.00  0.00    +0.000 A 
ATOM      5  C   UNL     1      -0.466  10.716  21.569  0.00  0.00    +0.000 A 
ATOM      6  C   UNL     1      -0.296  10.121  22.859  0.00  0.00    +0.000 A 
ATOM      7  C   UNL     1       0.691   9.174  22.743  0.00  0.00    +0.000 A 
ATOM      8  O   UNL     1       1.116   9.098  21.463  0.00  0.00    +0.000 OA
ATOM      9  C   UNL     1       0.410  10.018  20.735  0.00  0.00    +0.000 A 
ENDROOT
BRANCH   4  10
ATOM     10  C   UNL     1      -2.170  12.571  21.862  0.00  0.00    +0.000 A 
ATOM     11  C   UNL     1      -3.546  12.685  21.568  0.00  0.00    +0.000 A 
ATOM     12  C   UNL     1      -4.408  13.452  22.363  0.00  0.00    +0.000 A 
ATOM     13  C   UNL     1      -3.911  14.100  23.484  0.00  0.00    +0.000 A 
ATOM     14  F   UNL     1      -4.739  14.812  24.259  0.00  0.00    +0.000 F 
ATOM     15  C   UNL     1      -2.564  14.011  23.794  0.00  0.00    +0.000 A 
ATOM     16  F   UNL     1      -2.076  14.627  24.879  0.00  0.00    +0.000 F 
ATOM     17  C   UNL     1      -1.698  13.283  22.981  0.00  0.00    +0.000 A 
ENDBRANCH   4  10
BRANCH   1  19
ATOM     18  O   UNL     1       1.955  10.031  17.488  0.00  0.00    +0.000 OA
ATOM     19  C   UNL     1       1.491   9.500  18.490  0.00  0.00    +0.000 C 
ATOM     20  N   UNL     1       1.806   8.218  18.883  0.00  0.00    +0.000 N 
ATOM     21  H   UNL     1       1.357   7.837  19.711  0.00  0.00    +0.000 HD
BRANCH  20  22
ATOM     22  C   UNL     1       2.746   7.396  18.156  0.00  0.00    +0.000 C 
BRANCH  22  23
ATOM     23  C   UNL     1       3.361   6.320  19.049  0.00  0.00    +0.000 C 
BRANCH  23  24
ATOM     24  C   UNL     1       2.422   5.157  19.226  0.00  0.00    +0.000 A 
ATOM     25  C   UNL     1       1.940   4.821  20.498  0.00  0.00    +0.000 A 
ATOM     26  C   UNL     1       1.125   3.702  20.668  0.00  0.00    +0.000 A 
ATOM     27  C   UNL     1       0.788   2.911  19.571  0.00  0.00    +0.000 A 
ATOM     28  C   UNL     1       1.259   3.241  18.302  0.00  0.00    +0.000 A 
ATOM     29  C   UNL     1       2.073   4.359  18.129  0.00  0.00    +0.000 A 
ENDBRANCH  23  24
ENDBRANCH  22  23
ENDBRANCH  20  22
ENDBRANCH   1  19
TORSDOF 5
ENDMDL
