MODEL 1
REMARK VINA RESULT:      -7.2      0.000      0.000
REMARK  Name = 
REMARK  5 active torsions:
REMARK  status: ('A' for Active; 'I' for Inactive)
REMARK    1  A    between atoms: C_1  and  C_2
REMARK    2  A    between atoms: C_7  and  C_8
REMARK    3  A    between atoms: C_8  and  C_9
REMARK    4  A    between atoms: C_9  and  C_10
REMARK    5  A    between atoms: C_13  and  N_14
REMARK                            x       y       z     vdW  Elec       q    Type
REMARK                         _______ _______ _______ _____ _____    ______ ____
ROOT
ATOM      1  C   UNL     1       8.485   7.725  18.403  0.00  0.00    +0.000 C 
ENDROOT
BRANCH   1   8
ATOM      2  C   UNL     1       6.215   3.875  13.224  0.00  0.00    +0.000 C 
ATOM      3  C   UNL     1       6.843   4.688  14.323  0.00  0.00    +0.000 C 
ATOM      4  O   UNL     1       7.832   5.381  14.090  0.00  0.00    +0.000 OA
ATOM      5  N   UNL     1       6.197   4.532  15.526  0.00  0.00    +0.000 N 
ATOM      6  C   UNL     1       6.608   5.201  16.646  0.00  0.00    +0.000 A 
ATOM      7  N   UNL     1       7.425   6.213  16.751  0.00  0.00    +0.000 NA
ATOM      8  C   UNL     1       7.599   6.552  18.085  0.00  0.00    +0.000 A 
ATOM      9  C   UNL     1       6.902   5.744  18.966  0.00  0.00    +0.000 A 
ATOM     10  S   UNL     1       5.948   4.606  18.101  0.00  0.00    +0.000 S 
ATOM     11  H   UNL     1       5.482   3.831  15.646  0.00  0.00    +0.000 HD
ENDBRANCH   1   8
BRANCH   1  12
ATOM     12  C   UNL     1       7.945   9.051  17.862  0.00  0.00    +0.000 C 
BRANCH  12  13
ATOM     13  C   UNL     1       8.674  10.261  18.388  0.00  0.00    +0.000 A 
ATOM     14  C   UNL     1       8.615  11.485  17.712  0.00  0.00    +0.000 A 
ATOM     15  C   UNL     1       9.275  12.608  18.219  0.00  0.00    +0.000 A 
ATOM     16  C   UNL     1       9.973  12.543  19.427  0.00  0.00    +0.000 A 
ATOM     17  C   UNL     1      10.086  11.305  20.065  0.00  0.00    +0.000 A 
ATOM     18  C   UNL     1       9.429  10.177  19.562  0.00  0.00    +0.000 A 
BRANCH  16  19
ATOM     19  N   UNL     1      10.736  13.633  19.864  0.00  0.00    +0.000 N 
ATOM     20  H   UNL     1      10.457  14.518  19.454  0.00  0.00    +0.000 HD
ATOM     21  H   UNL     1      10.829  13.687  20.873  0.00  0.00    +0.000 HD
ENDBRANCH  16  19
ENDBRANCH  12  13
ENDBRANCH   1  12
TORSDOF 4
ENDMDL
MODEL 2
REMARK VINA RESULT:      -7.2      0.237      1.155
REMARK  Name = 
REMARK  5 active torsions:
REMARK  status: ('A' for Active; 'I' for Inactive)
REMARK    1  A    between atoms: C_1  and  C_2
REMARK    2  A    between atoms: C_7  and  C_8
REMARK    3  A    between atoms: C_8  and  C_9
REMARK    4  A    between atoms: C_9  and  C_10
REMARK    5  A    between atoms: C_13  and  N_14
REMARK                            x       y       z     vdW  Elec       q    Type
REMARK                         _______ _______ _______ _____ _____    ______ ____
ROOT
ATOM      1  C   UNL     1       8.264   7.635  18.572  0.00  0.00    +0.000 C 
ENDROOT
BRANCH   1   8
ATOM      2  C   UNL     1       6.299   3.894  13.192  0.00  0.00    +0.000 C 
ATOM      3  C   UNL     1       6.863   4.686  14.341  0.00  0.00    +0.000 C 
ATOM      4  O   UNL     1       7.857   5.390  14.178  0.00  0.00    +0.000 OA
ATOM      5  N   UNL     1       6.155   4.497  15.505  0.00  0.00    +0.000 N 
ATOM      6  C   UNL     1       6.501   5.142  16.661  0.00  0.00    +0.000 A 
ATOM      7  N   UNL     1       7.304   6.156  16.832  0.00  0.00    +0.000 NA
ATOM      8  C   UNL     1       7.405   6.464  18.181  0.00  0.00    +0.000 A 
ATOM      9  C   UNL     1       6.668   5.631  19.005  0.00  0.00    +0.000 A 
ATOM     10  S   UNL     1       5.770   4.508  18.065  0.00  0.00    +0.000 S 
ATOM     11  H   UNL     1       5.440   3.789  15.571  0.00  0.00    +0.000 HD
ENDBRANCH   1   8
BRANCH   1  12
ATOM     12  C   UNL     1       8.034   8.870  17.699  0.00  0.00    +0.000 C 
BRANCH  12  13
ATOM     13  C   UNL     1       8.612  10.137  18.276  0.00  0.00    +0.000 A 
ATOM     14  C   UNL     1       9.398  10.103  19.434  0.00  0.00    +0.000 A 
ATOM     15  C   UNL     1       9.951  11.280  19.950  0.00  0.00    +0.000 A 
ATOM     16  C   UNL     1       9.763  12.502  19.302  0.00  0.00    +0.000 A 
ATOM     17  C   UNL     1       8.925  12.542  18.186  0.00  0.00    +0.000 A 
ATOM     18  C   UNL     1       8.367  11.370  17.665  0.00  0.00    +0.000 A 
BRANCH  16  19
ATOM     19  N   UNL     1      10.210  13.692  19.891  0.00  0.00    +0.000 N 
ATOM     20  H   UNL     1       9.965  14.525  19.366  0.00  0.00    +0.000 HD
ATOM     21  H   UNL     1       9.976  13.773  20.875  0.00  0.00    +0.000 HD
ENDBRANCH  16  19
ENDBRANCH  12  13
ENDBRANCH   1  12
TORSDOF 4
ENDMDL
MODEL 3
REMARK VINA RESULT:      -7.1      0.772      1.413
REMARK  Name = 
REMARK  5 active torsions:
REMARK  status: ('A' for Active; 'I' for Inactive)
REMARK    1  A    between atoms: C_1  and  C_2
REMARK    2  A    between atoms: C_7  and  C_8
REMARK    3  A    between atoms: C_8  and  C_9
REMARK    4  A    between atoms: C_9  and  C_10
REMARK    5  A    between atoms: C_13  and  N_14
REMARK                            x       y       z     vdW  Elec       q    Type
REMARK                         _______ _______ _______ _____ _____    ______ ____
ROOT
ATOM      1  C   UNL     1       8.144   8.685  17.595  0.00  0.00    +0.000 C 
ENDROOT
BRANCH   1   8
ATOM      2  C   UNL     1       6.232   3.518  13.540  0.00  0.00    +0.000 C 
ATOM      3  C   UNL     1       6.769   4.663  14.355  0.00  0.00    +0.000 C 
ATOM      4  O   UNL     1       7.310   5.617  13.800  0.00  0.00    +0.000 OA
ATOM      5  N   UNL     1       6.584   4.479  15.705  0.00  0.00    +0.000 N 
ATOM      6  C   UNL     1       6.990   5.416  16.614  0.00  0.00    +0.000 A 
ATOM      7  N   UNL     1       7.348   6.656  16.418  0.00  0.00    +0.000 NA
ATOM      8  C   UNL     1       7.730   7.239  17.617  0.00  0.00    +0.000 A 
ATOM      9  C   UNL     1       7.665   6.385  18.704  0.00  0.00    +0.000 A 
ATOM     10  S   UNL     1       7.030   4.861  18.226  0.00  0.00    +0.000 S 
ATOM     11  H   UNL     1       6.257   3.597  16.070  0.00  0.00    +0.000 HD
ENDBRANCH   1   8
BRANCH   1  12
ATOM     12  C   UNL     1       8.769   9.153  18.911  0.00  0.00    +0.000 C 
BRANCH  12  13
ATOM     13  C   UNL     1       9.312  10.558  18.857  0.00  0.00    +0.000 A 
ATOM     14  C   UNL     1      10.329  10.968  19.727  0.00  0.00    +0.000 A 
ATOM     15  C   UNL     1      10.844  12.266  19.655  0.00  0.00    +0.000 A 
ATOM     16  C   UNL     1      10.382  13.166  18.692  0.00  0.00    +0.000 A 
ATOM     17  C   UNL     1       9.322  12.776  17.870  0.00  0.00    +0.000 A 
ATOM     18  C   UNL     1       8.801  11.479  17.938  0.00  0.00    +0.000 A 
BRANCH  16  19
ATOM     19  N   UNL     1      10.808  14.500  18.707  0.00  0.00    +0.000 N 
ATOM     20  H   UNL     1      10.667  14.964  19.598  0.00  0.00    +0.000 HD
ATOM     21  H   UNL     1      11.747  14.632  18.346  0.00  0.00    +0.000 HD
ENDBRANCH  16  19
ENDBRANCH  12  13
ENDBRANCH   1  12
TORSDOF 4
ENDMDL
MODEL 4
REMARK VINA RESULT:      -7.0      5.545      6.485
REMARK  Name = 
REMARK  5 active torsions:
REMARK  status: ('A' for Active; 'I' for Inactive)
REMARK    1  A    between atoms: C_1  and  C_2
REMARK    2  A    between atoms: C_7  and  C_8
REMARK    3  A    between atoms: C_8  and  C_9
REMARK    4  A    between atoms: C_9  and  C_10
REMARK    5  A    between atoms: C_13  and  N_14
REMARK                            x       y       z     vdW  Elec       q    Type
REMARK                         _______ _______ _______ _____ _____    ______ ____
ROOT
ATOM      1  C   UNL     1       3.719   3.019  17.832  0.00  0.00    +0.000 C 
ENDROOT
BRANCH   1   8
ATOM      2  C   UNL     1       7.950   5.131  12.889  0.00  0.00    +0.000 C 
ATOM      3  C   UNL     1       6.918   4.735  13.909  0.00  0.00    +0.000 C 
ATOM      4  O   UNL     1       5.797   4.382  13.549  0.00  0.00    +0.000 OA
ATOM      5  N   UNL     1       7.387   4.837  15.198  0.00  0.00    +0.000 N 
ATOM      6  C   UNL     1       6.604   4.507  16.269  0.00  0.00    +0.000 A 
ATOM      7  N   UNL     1       5.478   3.847  16.296  0.00  0.00    +0.000 NA
ATOM      8  C   UNL     1       4.997   3.776  17.596  0.00  0.00    +0.000 A 
ATOM      9  C   UNL     1       5.790   4.425  18.526  0.00  0.00    +0.000 A 
ATOM     10  S   UNL     1       7.201   5.050  17.770  0.00  0.00    +0.000 S 
ATOM     11  H   UNL     1       8.275   5.272  15.395  0.00  0.00    +0.000 HD
ENDBRANCH   1   8
BRANCH   1  12
ATOM     12  C   UNL     1       2.465   3.855  17.567  0.00  0.00    +0.000 C 
BRANCH  12  13
ATOM     13  C   UNL     1       2.266   4.976  18.555  0.00  0.00    +0.000 A 
ATOM     14  C   UNL     1       2.522   6.304  18.194  0.00  0.00    +0.000 A 
ATOM     15  C   UNL     1       2.312   7.341  19.109  0.00  0.00    +0.000 A 
ATOM     16  C   UNL     1       1.808   7.077  20.384  0.00  0.00    +0.000 A 
ATOM     17  C   UNL     1       1.616   5.747  20.763  0.00  0.00    +0.000 A 
ATOM     18  C   UNL     1       1.825   4.705  19.854  0.00  0.00    +0.000 A 
BRANCH  16  19
ATOM     19  N   UNL     1       1.721   8.101  21.336  0.00  0.00    +0.000 N 
ATOM     20  H   UNL     1       0.779   8.261  21.680  0.00  0.00    +0.000 HD
ATOM     21  H   UNL     1       2.397   8.017  22.087  0.00  0.00    +0.000 HD
ENDBRANCH  16  19
ENDBRANCH  12  13
ENDBRANCH   1  12
TORSDOF 4
ENDMDL
MODEL 5
REMARK VINA RESULT:      -7.0      5.605      6.601
REMARK  Name = 
REMARK  5 active torsions:
REMARK  status: ('A' for Active; 'I' for Inactive)
REMARK    1  A    between atoms: C_1  and  C_2
REMARK    2  A    between atoms: C_7  and  C_8
REMARK    3  A    between atoms: C_8  and  C_9
REMARK    4  A    between atoms: C_9  and  C_10
REMARK    5  A    between atoms: C_13  and  N_14
REMARK                            x       y       z     vdW  Elec       q    Type
REMARK                         _______ _______ _______ _____ _____    ______ ____
ROOT
ATOM      1  C   UNL     1       3.620   2.971  17.715  0.00  0.00    +0.000 C 
ENDROOT
BRANCH   1   8
ATOM      2  C   UNL     1       7.967   5.155  12.906  0.00  0.00    +0.000 C 
ATOM      3  C   UNL     1       6.911   4.745  13.896  0.00  0.00    +0.000 C 
ATOM      4  O   UNL     1       5.794   4.411  13.507  0.00  0.00    +0.000 OA
ATOM      5  N   UNL     1       7.356   4.814  15.196  0.00  0.00    +0.000 N 
ATOM      6  C   UNL     1       6.548   4.467  16.244  0.00  0.00    +0.000 A 
ATOM      7  N   UNL     1       5.417   3.817  16.234  0.00  0.00    +0.000 NA
ATOM      8  C   UNL     1       4.909   3.722  17.522  0.00  0.00    +0.000 A 
ATOM      9  C   UNL     1       5.690   4.342  18.482  0.00  0.00    +0.000 A 
ATOM     10  S   UNL     1       7.121   4.970  17.769  0.00  0.00    +0.000 S 
ATOM     11  H   UNL     1       8.243   5.236  15.420  0.00  0.00    +0.000 HD
ENDBRANCH   1   8
BRANCH   1  12
ATOM     12  C   UNL     1       2.379   3.832  17.468  0.00  0.00    +0.000 C 
BRANCH  12  13
ATOM     13  C   UNL     1       2.198   4.937  18.477  0.00  0.00    +0.000 A 
ATOM     14  C   UNL     1       1.775   4.657  19.781  0.00  0.00    +0.000 A 
ATOM     15  C   UNL     1       1.633   5.686  20.718  0.00  0.00    +0.000 A 
ATOM     16  C   UNL     1       1.947   7.005  20.383  0.00  0.00    +0.000 A 
ATOM     17  C   UNL     1       2.305   7.290  19.064  0.00  0.00    +0.000 A 
ATOM     18  C   UNL     1       2.448   6.267  18.122  0.00  0.00    +0.000 A 
BRANCH  16  19
ATOM     19  N   UNL     1       1.682   8.045  21.282  0.00  0.00    +0.000 N 
ATOM     20  H   UNL     1       0.722   8.373  21.257  0.00  0.00    +0.000 HD
ATOM     21  H   UNL     1       2.002   7.859  22.227  0.00  0.00    +0.000 HD
ENDBRANCH  16  19
ENDBRANCH  12  13
ENDBRANCH   1  12
TORSDOF 4
ENDMDL
MODEL 6
REMARK VINA RESULT:      -6.8      3.716      7.992
REMARK  Name = 
REMARK  5 active torsions:
REMARK  status: ('A' for Active; 'I' for Inactive)
REMARK    1  A    between atoms: C_1  and  C_2
REMARK    2  A    between atoms: C_7  and  C_8
REMARK    3  A    between atoms: C_8  and  C_9
REMARK    4  A    between atoms: C_9  and  C_10
REMARK    5  A    between atoms: C_13  and  N_14
REMARK                            x       y       z     vdW  Elec       q    Type
REMARK                         _______ _______ _______ _____ _____    ______ ____
ROOT
ATOM      1  C   UNL     1       5.259   5.443  16.256  0.00  0.00    +0.000 C 
ENDROOT
BRANCH   1   8
ATOM      2  C   UNL     1       9.437  10.181  18.881  0.00  0.00    +0.000 C 
ATOM      3  C   UNL     1       8.414   9.231  18.321  0.00  0.00    +0.000 C 
ATOM      4  O   UNL     1       7.550   9.639  17.547  0.00  0.00    +0.000 OA
ATOM      5  N   UNL     1       8.580   7.948  18.785  0.00  0.00    +0.000 N 
ATOM      6  C   UNL     1       7.758   6.932  18.381  0.00  0.00    +0.000 A 
ATOM      7  N   UNL     1       6.916   6.899  17.385  0.00  0.00    +0.000 NA
ATOM      8  C   UNL     1       6.250   5.681  17.362  0.00  0.00    +0.000 A 
ATOM      9  C   UNL     1       6.611   4.824  18.386  0.00  0.00    +0.000 A 
ATOM     10  S   UNL     1       7.865   5.521  19.332  0.00  0.00    +0.000 S 
ATOM     11  H   UNL     1       9.232   7.743  19.527  0.00  0.00    +0.000 HD
ENDBRANCH   1   8
BRANCH   1  12
ATOM     12  C   UNL     1       4.711   4.015  16.236  0.00  0.00    +0.000 C 
BRANCH  12  13
ATOM     13  C   UNL     1       3.615   3.773  17.242  0.00  0.00    +0.000 A 
ATOM     14  C   UNL     1       3.395   2.495  17.770  0.00  0.00    +0.000 A 
ATOM     15  C   UNL     1       2.392   2.283  18.720  0.00  0.00    +0.000 A 
ATOM     16  C   UNL     1       1.616   3.346  19.190  0.00  0.00    +0.000 A 
ATOM     17  C   UNL     1       1.793   4.605  18.613  0.00  0.00    +0.000 A 
ATOM     18  C   UNL     1       2.794   4.824  17.661  0.00  0.00    +0.000 A 
BRANCH  16  19
ATOM     19  N   UNL     1       0.532   3.107  20.043  0.00  0.00    +0.000 N 
ATOM     20  H   UNL     1       0.797   2.727  20.946  0.00  0.00    +0.000 HD
ATOM     21  H   UNL     1      -0.102   3.895  20.127  0.00  0.00    +0.000 HD
ENDBRANCH  16  19
ENDBRANCH  12  13
ENDBRANCH   1  12
TORSDOF 4
ENDMDL
MODEL 7
REMARK VINA RESULT:      -6.8      4.631      6.997
REMARK  Name = 
REMARK  5 active torsions:
REMARK  status: ('A' for Active; 'I' for Inactive)
REMARK    1  A    between atoms: C_1  and  C_2
REMARK    2  A    between atoms: C_7  and  C_8
REMARK    3  A    between atoms: C_8  and  C_9
REMARK    4  A    between atoms: C_9  and  C_10
REMARK    5  A    between atoms: C_13  and  N_14
REMARK                            x       y       z     vdW  Elec       q    Type
REMARK                         _______ _______ _______ _____ _____    ______ ____
ROOT
ATOM      1  C   UNL     1       2.953   3.704  17.193  0.00  0.00    +0.000 C 
ENDROOT
BRANCH   1   8
ATOM      2  C   UNL     1       1.425   8.735  21.569  0.00  0.00    +0.000 C 
ATOM      3  C   UNL     1       1.671   7.687  20.517  0.00  0.00    +0.000 C 
ATOM      4  O   UNL     1       1.782   8.010  19.337  0.00  0.00    +0.000 OA
ATOM      5  N   UNL     1       1.733   6.419  21.045  0.00  0.00    +0.000 N 
ATOM      6  C   UNL     1       1.964   5.329  20.252  0.00  0.00    +0.000 A 
ATOM      7  N   UNL     1       2.396   5.280  19.022  0.00  0.00    +0.000 NA
ATOM      8  C   UNL     1       2.444   3.964  18.584  0.00  0.00    +0.000 A 
ATOM      9  C   UNL     1       2.012   3.043  19.523  0.00  0.00    +0.000 A 
ATOM     10  S   UNL     1       1.630   3.833  20.999  0.00  0.00    +0.000 S 
ATOM     11  H   UNL     1       1.488   6.243  22.007  0.00  0.00    +0.000 HD
ENDBRANCH   1   8
BRANCH   1  12
ATOM     12  C   UNL     1       4.451   3.397  17.147  0.00  0.00    +0.000 C 
BRANCH  12  13
ATOM     13  C   UNL     1       5.323   4.626  17.201  0.00  0.00    +0.000 A 
ATOM     14  C   UNL     1       4.952   5.798  16.531  0.00  0.00    +0.000 A 
ATOM     15  C   UNL     1       5.755   6.941  16.605  0.00  0.00    +0.000 A 
ATOM     16  C   UNL     1       6.917   6.949  17.378  0.00  0.00    +0.000 A 
ATOM     17  C   UNL     1       7.318   5.760  17.991  0.00  0.00    +0.000 A 
ATOM     18  C   UNL     1       6.522   4.612  17.920  0.00  0.00    +0.000 A 
BRANCH  16  19
ATOM     19  N   UNL     1       7.781   8.051  17.346  0.00  0.00    +0.000 N 
ATOM     20  H   UNL     1       8.030   8.402  18.265  0.00  0.00    +0.000 HD
ATOM     21  H   UNL     1       8.591   7.918  16.751  0.00  0.00    +0.000 HD
ENDBRANCH  16  19
ENDBRANCH  12  13
ENDBRANCH   1  12
TORSDOF 4
ENDMDL
MODEL 8
REMARK VINA RESULT:      -6.7      7.301      9.991
REMARK  Name = 
REMARK  5 active torsions:
REMARK  status: ('A' for Active; 'I' for Inactive)
REMARK    1  A    between atoms: C_1  and  C_2
REMARK    2  A    between atoms: C_7  and  C_8
REMARK    3  A    between atoms: C_8  and  C_9
REMARK    4  A    between atoms: C_9  and  C_10
REMARK    5  A    between atoms: C_13  and  N_14
REMARK                            x       y       z     vdW  Elec       q    Type
REMARK                         _______ _______ _______ _____ _____    ______ ____
ROOT
ATOM      1  C   UNL     1       3.040   7.213  18.385  0.00  0.00    +0.000 C 
ENDROOT
BRANCH   1   8
ATOM      2  C   UNL     1      -0.736  10.319  23.169  0.00  0.00    +0.000 C 
ATOM      3  C   UNL     1       0.206   9.662  22.197  0.00  0.00    +0.000 C 
ATOM      4  O   UNL     1       1.106   8.933  22.606  0.00  0.00    +0.000 OA
ATOM      5  N   UNL     1      -0.073   9.993  20.892  0.00  0.00    +0.000 N 
ATOM      6  C   UNL     1       0.662   9.485  19.856  0.00  0.00    +0.000 A 
ATOM      7  N   UNL     1       1.505   8.489  19.854  0.00  0.00    +0.000 NA
ATOM      8  C   UNL     1       2.065   8.340  18.592  0.00  0.00    +0.000 A 
ATOM      9  C   UNL     1       1.625   9.271  17.668  0.00  0.00    +0.000 A 
ATOM     10  S   UNL     1       0.429  10.286  18.370  0.00  0.00    +0.000 S 
ATOM     11  H   UNL     1      -0.744  10.711  20.669  0.00  0.00    +0.000 HD
ENDBRANCH   1   8
BRANCH   1  12
ATOM     12  C   UNL     1       2.371   5.913  17.936  0.00  0.00    +0.000 C 
BRANCH  12  13
ATOM     13  C   UNL     1       2.105   4.948  19.063  0.00  0.00    +0.000 A 
ATOM     14  C   UNL     1       2.651   5.162  20.334  0.00  0.00    +0.000 A 
ATOM     15  C   UNL     1       2.380   4.276  21.381  0.00  0.00    +0.000 A 
ATOM     16  C   UNL     1       1.530   3.184  21.191  0.00  0.00    +0.000 A 
ATOM     17  C   UNL     1       1.041   2.936  19.907  0.00  0.00    +0.000 A 
ATOM     18  C   UNL     1       1.309   3.818  18.855  0.00  0.00    +0.000 A 
BRANCH  16  19
ATOM     19  N   UNL     1       1.365   2.231  22.204  0.00  0.00    +0.000 N 
ATOM     20  H   UNL     1       2.237   1.913  22.613  0.00  0.00    +0.000 HD
ATOM     21  H   UNL     1       0.683   2.497  22.907  0.00  0.00    +0.000 HD
ENDBRANCH  16  19
ENDBRANCH  12  13
ENDBRANCH   1  12
TORSDOF 4
ENDMDL
MODEL 9
REMARK VINA RESULT:      -6.7      4.666      7.102
REMARK  Name = 
REMARK  5 active torsions:
REMARK  status: ('A' for Active; 'I' for Inactive)
REMARK    1  A    between atoms: C_1  and  C_2
REMARK    2  A    between atoms: C_7  and  C_8
REMARK    3  A    between atoms: C_8  and  C_9
REMARK    4  A    between atoms: C_9  and  C_10
REMARK    5  A    between atoms: C_13  and  N_14
REMARK                            x       y       z     vdW  Elec       q    Type
REMARK                         _______ _______ _______ _____ _____    ______ ____
ROOT
ATOM      1  C   UNL     1       2.921   3.704  17.287  0.00  0.00    +0.000 C 
ENDROOT
BRANCH   1   8
ATOM      2  C   UNL     1       1.421   8.810  21.586  0.00  0.00    +0.000 C 
ATOM      3  C   UNL     1       1.653   7.738  20.556  0.00  0.00    +0.000 C 
ATOM      4  O   UNL     1       1.668   8.022  19.360  0.00  0.00    +0.000 OA
ATOM      5  N   UNL     1       1.814   6.494  21.120  0.00  0.00    +0.000 N 
ATOM      6  C   UNL     1       2.050   5.388  20.351  0.00  0.00    +0.000 A 
ATOM      7  N   UNL     1       2.402   5.316  19.096  0.00  0.00    +0.000 NA
ATOM      8  C   UNL     1       2.490   3.989  18.700  0.00  0.00    +0.000 A 
ATOM      9  C   UNL     1       2.170   3.082  19.696  0.00  0.00    +0.000 A 
ATOM     10  S   UNL     1       1.844   3.907  21.168  0.00  0.00    +0.000 S 
ATOM     11  H   UNL     1       1.643   6.342  22.102  0.00  0.00    +0.000 HD
ENDBRANCH   1   8
BRANCH   1  12
ATOM     12  C   UNL     1       4.413   3.388  17.164  0.00  0.00    +0.000 C 
BRANCH  12  13
ATOM     13  C   UNL     1       5.296   4.608  17.221  0.00  0.00    +0.000 A 
ATOM     14  C   UNL     1       6.474   4.606  17.977  0.00  0.00    +0.000 A 
ATOM     15  C   UNL     1       7.300   5.735  18.006  0.00  0.00    +0.000 A 
ATOM     16  C   UNL     1       6.988   6.869  17.254  0.00  0.00    +0.000 A 
ATOM     17  C   UNL     1       5.779   6.892  16.554  0.00  0.00    +0.000 A 
ATOM     18  C   UNL     1       4.947   5.768  16.522  0.00  0.00    +0.000 A 
BRANCH  16  19
ATOM     19  N   UNL     1       7.748   8.037  17.386  0.00  0.00    +0.000 N 
ATOM     20  H   UNL     1       7.273   8.873  17.062  0.00  0.00    +0.000 HD
ATOM     21  H   UNL     1       8.155   8.157  18.308  0.00  0.00    +0.000 HD
ENDBRANCH  16  19
ENDBRANCH  12  13
ENDBRANCH   1  12
TORSDOF 4
ENDMDL
