MODEL 1
REMARK VINA RESULT:     -10.0      0.000      0.000
REMARK  Name = 
REMARK  1 active torsions:
REMARK  status: ('A' for Active; 'I' for Inactive)
REMARK    1  A    between atoms: C_5  and  C_6
REMARK                            x       y       z     vdW  Elec       q    Type
REMARK                         _______ _______ _______ _____ _____    ______ ____
ROOT
ATOM      1  C   UNL     1       5.271   4.202  17.715  0.00  0.00    +0.000 A 
ATOM      2  N   UNL     1       6.185   4.664  18.583  0.00  0.00    +0.000 NA
ATOM      3  C   UNL     1       7.114   5.497  18.127  0.00  0.00    +0.000 A 
ATOM      4  C   UNL     1       7.878   6.131  19.069  0.00  0.00    +0.000 A 
ATOM      5  C   UNL     1       8.136   7.463  18.922  0.00  0.00    +0.000 A 
ATOM      6  C   UNL     1       8.147   7.930  17.635  0.00  0.00    +0.000 A 
ATOM      7  N   UNL     1       7.874   7.139  16.543  0.00  0.00    +0.000 NA
ATOM      8  C   UNL     1       7.251   5.955  16.789  0.00  0.00    +0.000 A 
ATOM      9  C   UNL     1       6.594   5.111  15.898  0.00  0.00    +0.000 A 
ATOM     10  C   UNL     1       5.543   4.282  16.375  0.00  0.00    +0.000 A 
ATOM     11  C   UNL     1       4.849   3.564  15.255  0.00  0.00    +0.000 C 
ATOM     12  C   UNL     1       5.722   3.916  14.087  0.00  0.00    +0.000 A 
ATOM     13  C   UNL     1       5.607   3.375  12.810  0.00  0.00    +0.000 A 
ATOM     14  C   UNL     1       6.556   3.747  11.870  0.00  0.00    +0.000 A 
ATOM     15  C   UNL     1       7.553   4.672  12.218  0.00  0.00    +0.000 A 
ATOM     16  C   UNL     1       7.641   5.237  13.508  0.00  0.00    +0.000 A 
ATOM     17  C   UNL     1       6.712   4.847  14.460  0.00  0.00    +0.000 A 
ENDROOT
BRANCH   1  22
ATOM     18  F   UNL     1       0.491   2.524  20.140  0.00  0.00    +0.000 F 
ATOM     19  C   UNL     1       1.631   2.914  19.556  0.00  0.00    +0.000 A 
ATOM     20  C   UNL     1       1.589   3.431  18.268  0.00  0.00    +0.000 A 
ATOM     21  C   UNL     1       2.777   3.850  17.666  0.00  0.00    +0.000 A 
ATOM     22  C   UNL     1       4.018   3.713  18.322  0.00  0.00    +0.000 A 
ATOM     23  C   UNL     1       4.020   3.224  19.630  0.00  0.00    +0.000 A 
ATOM     24  C   UNL     1       2.835   2.830  20.234  0.00  0.00    +0.000 A 
ATOM     25  F   UNL     1       2.869   2.378  21.498  0.00  0.00    +0.000 F 
ENDBRANCH   1  22
TORSDOF 1
ENDMDL
MODEL 2
REMARK VINA RESULT:      -9.6      4.472      6.153
REMARK  Name = 
REMARK  1 active torsions:
REMARK  status: ('A' for Active; 'I' for Inactive)
REMARK    1  A    between atoms: C_5  and  C_6
REMARK                            x       y       z     vdW  Elec       q    Type
REMARK                         _______ _______ _______ _____ _____    ______ ____
ROOT
ATOM      1  C   UNL     1       2.001   6.618  19.589  0.00  0.00    +0.000 A 
ATOM      2  N   UNL     1       1.310   5.627  20.176  0.00  0.00    +0.000 NA
ATOM      3  C   UNL     1       1.833   4.406  20.162  0.00  0.00    +0.000 A 
ATOM      4  C   UNL     1       1.230   3.476  20.963  0.00  0.00    +0.000 A 
ATOM      5  C   UNL     1       2.011   2.642  21.710  0.00  0.00    +0.000 A 
ATOM      6  C   UNL     1       3.253   2.374  21.200  0.00  0.00    +0.000 A 
ATOM      7  N   UNL     1       3.727   2.930  20.035  0.00  0.00    +0.000 NA
ATOM      8  C   UNL     1       3.070   4.027  19.572  0.00  0.00    +0.000 A 
ATOM      9  C   UNL     1       3.482   4.959  18.624  0.00  0.00    +0.000 A 
ATOM     10  C   UNL     1       2.983   6.287  18.693  0.00  0.00    +0.000 A 
ATOM     11  C   UNL     1       3.653   7.185  17.696  0.00  0.00    +0.000 C 
ATOM     12  C   UNL     1       4.467   6.203  16.906  0.00  0.00    +0.000 A 
ATOM     13  C   UNL     1       5.174   6.500  15.745  0.00  0.00    +0.000 A 
ATOM     14  C   UNL     1       5.800   5.449  15.093  0.00  0.00    +0.000 A 
ATOM     15  C   UNL     1       5.740   4.157  15.638  0.00  0.00    +0.000 A 
ATOM     16  C   UNL     1       5.047   3.875  16.834  0.00  0.00    +0.000 A 
ATOM     17  C   UNL     1       4.394   4.916  17.475  0.00  0.00    +0.000 A 
ENDROOT
BRANCH   1  22
ATOM     18  F   UNL     1       0.490  11.761  21.263  0.00  0.00    +0.000 F 
ATOM     19  C   UNL     1       0.861  10.537  20.867  0.00  0.00    +0.000 A 
ATOM     20  C   UNL     1       1.057   9.548  21.820  0.00  0.00    +0.000 A 
ATOM     21  C   UNL     1       1.429   8.268  21.405  0.00  0.00    +0.000 A 
ATOM     22  C   UNL     1       1.659   7.979  20.043  0.00  0.00    +0.000 A 
ATOM     23  C   UNL     1       1.417   8.987  19.107  0.00  0.00    +0.000 A 
ATOM     24  C   UNL     1       1.023  10.250  19.523  0.00  0.00    +0.000 A 
ATOM     25  F   UNL     1       0.786  11.194  18.597  0.00  0.00    +0.000 F 
ENDBRANCH   1  22
TORSDOF 1
ENDMDL
MODEL 3
REMARK VINA RESULT:      -9.6      0.571      1.325
REMARK  Name = 
REMARK  1 active torsions:
REMARK  status: ('A' for Active; 'I' for Inactive)
REMARK    1  A    between atoms: C_5  and  C_6
REMARK                            x       y       z     vdW  Elec       q    Type
REMARK                         _______ _______ _______ _____ _____    ______ ____
ROOT
ATOM      1  C   UNL     1       5.402   4.284  17.815  0.00  0.00    +0.000 A 
ATOM      2  N   UNL     1       6.320   4.782  18.658  0.00  0.00    +0.000 NA
ATOM      3  C   UNL     1       7.221   5.629  18.172  0.00  0.00    +0.000 A 
ATOM      4  C   UNL     1       7.986   6.297  19.089  0.00  0.00    +0.000 A 
ATOM      5  C   UNL     1       8.209   7.632  18.916  0.00  0.00    +0.000 A 
ATOM      6  C   UNL     1       8.185   8.078  17.621  0.00  0.00    +0.000 A 
ATOM      7  N   UNL     1       7.911   7.263  16.547  0.00  0.00    +0.000 NA
ATOM      8  C   UNL     1       7.322   6.069  16.824  0.00  0.00    +0.000 A 
ATOM      9  C   UNL     1       6.669   5.194  15.959  0.00  0.00    +0.000 A 
ATOM     10  C   UNL     1       5.647   4.349  16.469  0.00  0.00    +0.000 A 
ATOM     11  C   UNL     1       4.951   3.596  15.373  0.00  0.00    +0.000 C 
ATOM     12  C   UNL     1       5.793   3.950  14.183  0.00  0.00    +0.000 A 
ATOM     13  C   UNL     1       5.668   3.386  12.918  0.00  0.00    +0.000 A 
ATOM     14  C   UNL     1       6.590   3.765  11.955  0.00  0.00    +0.000 A 
ATOM     15  C   UNL     1       7.571   4.719  12.269  0.00  0.00    +0.000 A 
ATOM     16  C   UNL     1       7.669   5.307  13.548  0.00  0.00    +0.000 A 
ATOM     17  C   UNL     1       6.767   4.910  14.523  0.00  0.00    +0.000 A 
ENDROOT
BRANCH   1  22
ATOM     18  F   UNL     1       0.705   2.200  20.081  0.00  0.00    +0.000 F 
ATOM     19  C   UNL     1       1.826   2.704  19.550  0.00  0.00    +0.000 A 
ATOM     20  C   UNL     1       3.053   2.345  20.090  0.00  0.00    +0.000 A 
ATOM     21  C   UNL     1       4.220   2.861  19.525  0.00  0.00    +0.000 A 
ATOM     22  C   UNL     1       4.172   3.775  18.452  0.00  0.00    +0.000 A 
ATOM     23  C   UNL     1       2.924   4.087  17.908  0.00  0.00    +0.000 A 
ATOM     24  C   UNL     1       1.767   3.553  18.458  0.00  0.00    +0.000 A 
ATOM     25  F   UNL     1       0.583   3.861  17.903  0.00  0.00    +0.000 F 
ENDBRANCH   1  22
TORSDOF 1
ENDMDL
MODEL 4
REMARK VINA RESULT:      -9.4      4.383      6.007
REMARK  Name = 
REMARK  1 active torsions:
REMARK  status: ('A' for Active; 'I' for Inactive)
REMARK    1  A    between atoms: C_5  and  C_6
REMARK                            x       y       z     vdW  Elec       q    Type
REMARK                         _______ _______ _______ _____ _____    ______ ____
ROOT
ATOM      1  C   UNL     1       1.900   6.555  19.628  0.00  0.00    +0.000 A 
ATOM      2  N   UNL     1       1.240   5.536  20.202  0.00  0.00    +0.000 NA
ATOM      3  C   UNL     1       1.807   4.336  20.187  0.00  0.00    +0.000 A 
ATOM      4  C   UNL     1       1.230   3.380  20.978  0.00  0.00    +0.000 A 
ATOM      5  C   UNL     1       2.034   2.571  21.728  0.00  0.00    +0.000 A 
ATOM      6  C   UNL     1       3.290   2.350  21.230  0.00  0.00    +0.000 A 
ATOM      7  N   UNL     1       3.756   2.930  20.073  0.00  0.00    +0.000 NA
ATOM      8  C   UNL     1       3.063   4.005  19.608  0.00  0.00    +0.000 A 
ATOM      9  C   UNL     1       3.450   4.956  18.669  0.00  0.00    +0.000 A 
ATOM     10  C   UNL     1       2.903   6.265  18.740  0.00  0.00    +0.000 A 
ATOM     11  C   UNL     1       3.550   7.192  17.754  0.00  0.00    +0.000 C 
ATOM     12  C   UNL     1       4.407   6.245  16.968  0.00  0.00    +0.000 A 
ATOM     13  C   UNL     1       5.114   6.573  15.816  0.00  0.00    +0.000 A 
ATOM     14  C   UNL     1       5.785   5.550  15.164  0.00  0.00    +0.000 A 
ATOM     15  C   UNL     1       5.767   4.253  15.703  0.00  0.00    +0.000 A 
ATOM     16  C   UNL     1       5.072   3.939  16.890  0.00  0.00    +0.000 A 
ATOM     17  C   UNL     1       4.375   4.953  17.529  0.00  0.00    +0.000 A 
ENDROOT
BRANCH   1  22
ATOM     18  F   UNL     1       0.596  11.708  21.437  0.00  0.00    +0.000 F 
ATOM     19  C   UNL     1       0.896  10.479  21.002  0.00  0.00    +0.000 A 
ATOM     20  C   UNL     1       1.122  10.276  19.648  0.00  0.00    +0.000 A 
ATOM     21  C   UNL     1       1.449   8.995  19.198  0.00  0.00    +0.000 A 
ATOM     22  C   UNL     1       1.504   7.900  20.085  0.00  0.00    +0.000 A 
ATOM     23  C   UNL     1       1.308   8.145  21.446  0.00  0.00    +0.000 A 
ATOM     24  C   UNL     1       1.007   9.424  21.892  0.00  0.00    +0.000 A 
ATOM     25  F   UNL     1       0.838   9.629  23.208  0.00  0.00    +0.000 F 
ENDBRANCH   1  22
TORSDOF 1
ENDMDL
MODEL 5
REMARK VINA RESULT:      -9.2      4.119      7.029
REMARK  Name = 
REMARK  1 active torsions:
REMARK  status: ('A' for Active; 'I' for Inactive)
REMARK    1  A    between atoms: C_5  and  C_6
REMARK                            x       y       z     vdW  Elec       q    Type
REMARK                         _______ _______ _______ _____ _____    ______ ____
ROOT
ATOM      1  C   UNL     1       4.419   5.305  18.026  0.00  0.00    +0.000 A 
ATOM      2  N   UNL     1       4.502   4.383  18.998  0.00  0.00    +0.000 NA
ATOM      3  C   UNL     1       3.511   4.313  19.880  0.00  0.00    +0.000 A 
ATOM      4  C   UNL     1       3.507   3.222  20.706  0.00  0.00    +0.000 A 
ATOM      5  C   UNL     1       2.328   2.573  20.937  0.00  0.00    +0.000 A 
ATOM      6  C   UNL     1       1.198   3.341  20.844  0.00  0.00    +0.000 A 
ATOM      7  N   UNL     1       1.215   4.672  20.499  0.00  0.00    +0.000 NA
ATOM      8  C   UNL     1       2.351   5.134  19.910  0.00  0.00    +0.000 A 
ATOM      9  C   UNL     1       2.550   6.313  19.197  0.00  0.00    +0.000 A 
ATOM     10  C   UNL     1       3.557   6.356  18.195  0.00  0.00    +0.000 A 
ATOM     11  C   UNL     1       3.521   7.645  17.427  0.00  0.00    +0.000 C 
ATOM     12  C   UNL     1       2.507   8.430  18.204  0.00  0.00    +0.000 A 
ATOM     13  C   UNL     1       2.205   9.772  17.999  0.00  0.00    +0.000 A 
ATOM     14  C   UNL     1       1.304  10.365  18.870  0.00  0.00    +0.000 A 
ATOM     15  C   UNL     1       0.704   9.596  19.880  0.00  0.00    +0.000 A 
ATOM     16  C   UNL     1       0.995   8.227  20.058  0.00  0.00    +0.000 A 
ATOM     17  C   UNL     1       1.917   7.637  19.209  0.00  0.00    +0.000 A 
ENDROOT
BRANCH   1  22
ATOM     18  F   UNL     1       7.456   4.456  13.380  0.00  0.00    +0.000 F 
ATOM     19  C   UNL     1       6.737   4.649  14.492  0.00  0.00    +0.000 A 
ATOM     20  C   UNL     1       7.362   5.153  15.624  0.00  0.00    +0.000 A 
ATOM     21  C   UNL     1       6.606   5.367  16.778  0.00  0.00    +0.000 A 
ATOM     22  C   UNL     1       5.237   5.034  16.829  0.00  0.00    +0.000 A 
ATOM     23  C   UNL     1       4.631   4.563  15.662  0.00  0.00    +0.000 A 
ATOM     24  C   UNL     1       5.380   4.374  14.510  0.00  0.00    +0.000 A 
ATOM     25  F   UNL     1       4.765   3.934  13.400  0.00  0.00    +0.000 F 
ENDBRANCH   1  22
TORSDOF 1
ENDMDL
MODEL 6
REMARK VINA RESULT:      -8.6      4.032      6.798
REMARK  Name = 
REMARK  1 active torsions:
REMARK  status: ('A' for Active; 'I' for Inactive)
REMARK    1  A    between atoms: C_5  and  C_6
REMARK                            x       y       z     vdW  Elec       q    Type
REMARK                         _______ _______ _______ _____ _____    ______ ____
ROOT
ATOM      1  C   UNL     1       4.869   5.030  17.302  0.00  0.00    +0.000 A 
ATOM      2  N   UNL     1       5.270   4.132  18.216  0.00  0.00    +0.000 NA
ATOM      3  C   UNL     1       4.523   3.967  19.301  0.00  0.00    +0.000 A 
ATOM      4  C   UNL     1       4.824   2.890  20.090  0.00  0.00    +0.000 A 
ATOM      5  C   UNL     1       3.806   2.122  20.576  0.00  0.00    +0.000 A 
ATOM      6  C   UNL     1       2.609   2.765  20.757  0.00  0.00    +0.000 A 
ATOM      7  N   UNL     1       2.406   4.086  20.437  0.00  0.00    +0.000 NA
ATOM      8  C   UNL     1       3.321   4.660  19.609  0.00  0.00    +0.000 A 
ATOM      9  C   UNL     1       3.224   5.846  18.886  0.00  0.00    +0.000 A 
ATOM     10  C   UNL     1       3.962   5.985  17.680  0.00  0.00    +0.000 A 
ATOM     11  C   UNL     1       3.615   7.255  16.960  0.00  0.00    +0.000 C 
ATOM     12  C   UNL     1       2.730   7.936  17.961  0.00  0.00    +0.000 A 
ATOM     13  C   UNL     1       2.249   9.237  17.850  0.00  0.00    +0.000 A 
ATOM     14  C   UNL     1       1.516   9.740  18.913  0.00  0.00    +0.000 A 
ATOM     15  C   UNL     1       1.250   8.922  20.023  0.00  0.00    +0.000 A 
ATOM     16  C   UNL     1       1.717   7.594  20.110  0.00  0.00    +0.000 A 
ATOM     17  C   UNL     1       2.476   7.095  19.063  0.00  0.00    +0.000 A 
ENDROOT
BRANCH   1  22
ATOM     18  F   UNL     1       7.073   4.132  12.216  0.00  0.00    +0.000 F 
ATOM     19  C   UNL     1       6.540   4.354  13.423  0.00  0.00    +0.000 A 
ATOM     20  C   UNL     1       5.311   3.791  13.735  0.00  0.00    +0.000 A 
ATOM     21  C   UNL     1       4.764   4.011  15.000  0.00  0.00    +0.000 A 
ATOM     22  C   UNL     1       5.412   4.834  15.945  0.00  0.00    +0.000 A 
ATOM     23  C   UNL     1       6.665   5.355  15.613  0.00  0.00    +0.000 A 
ATOM     24  C   UNL     1       7.216   5.113  14.363  0.00  0.00    +0.000 A 
ATOM     25  F   UNL     1       8.429   5.617  14.080  0.00  0.00    +0.000 F 
ENDBRANCH   1  22
TORSDOF 1
ENDMDL
MODEL 7
REMARK VINA RESULT:      -8.3      3.051      6.092
REMARK  Name = 
REMARK  1 active torsions:
REMARK  status: ('A' for Active; 'I' for Inactive)
REMARK    1  A    between atoms: C_5  and  C_6
REMARK                            x       y       z     vdW  Elec       q    Type
REMARK                         _______ _______ _______ _____ _____    ______ ____
ROOT
ATOM      1  C   UNL     1       5.482   4.811  15.809  0.00  0.00    +0.000 A 
ATOM      2  N   UNL     1       6.278   5.840  16.139  0.00  0.00    +0.000 NA
ATOM      3  C   UNL     1       6.449   6.110  17.428  0.00  0.00    +0.000 A 
ATOM      4  C   UNL     1       7.441   7.001  17.737  0.00  0.00    +0.000 A 
ATOM      5  C   UNL     1       8.274   6.725  18.782  0.00  0.00    +0.000 A 
ATOM      6  C   UNL     1       7.743   5.950  19.779  0.00  0.00    +0.000 A 
ATOM      7  N   UNL     1       6.470   5.431  19.735  0.00  0.00    +0.000 NA
ATOM      8  C   UNL     1       5.861   5.414  18.519  0.00  0.00    +0.000 A 
ATOM      9  C   UNL     1       4.737   4.700  18.114  0.00  0.00    +0.000 A 
ATOM     10  C   UNL     1       4.599   4.341  16.746  0.00  0.00    +0.000 A 
ATOM     11  C   UNL     1       3.417   3.444  16.523  0.00  0.00    +0.000 C 
ATOM     12  C   UNL     1       2.767   3.463  17.874  0.00  0.00    +0.000 A 
ATOM     13  C   UNL     1       1.530   2.903  18.175  0.00  0.00    +0.000 A 
ATOM     14  C   UNL     1       1.037   3.091  19.457  0.00  0.00    +0.000 A 
ATOM     15  C   UNL     1       1.808   3.786  20.402  0.00  0.00    +0.000 A 
ATOM     16  C   UNL     1       3.075   4.323  20.094  0.00  0.00    +0.000 A 
ATOM     17  C   UNL     1       3.560   4.163  18.805  0.00  0.00    +0.000 A 
ENDROOT
BRANCH   1  22
ATOM     18  F   UNL     1       6.266   2.855  10.603  0.00  0.00    +0.000 F 
ATOM     19  C   UNL     1       6.084   3.311  11.849  0.00  0.00    +0.000 A 
ATOM     20  C   UNL     1       7.181   3.744  12.579  0.00  0.00    +0.000 A 
ATOM     21  C   UNL     1       6.986   4.233  13.872  0.00  0.00    +0.000 A 
ATOM     22  C   UNL     1       5.705   4.247  14.464  0.00  0.00    +0.000 A 
ATOM     23  C   UNL     1       4.618   3.839  13.688  0.00  0.00    +0.000 A 
ATOM     24  C   UNL     1       4.813   3.376  12.395  0.00  0.00    +0.000 A 
ATOM     25  F   UNL     1       3.745   3.004  11.671  0.00  0.00    +0.000 F 
ENDBRANCH   1  22
TORSDOF 1
ENDMDL
MODEL 8
REMARK VINA RESULT:      -8.3      3.906      5.628
REMARK  Name = 
REMARK  1 active torsions:
REMARK  status: ('A' for Active; 'I' for Inactive)
REMARK    1  A    between atoms: C_5  and  C_6
REMARK                            x       y       z     vdW  Elec       q    Type
REMARK                         _______ _______ _______ _____ _____    ______ ____
ROOT
ATOM      1  C   UNL     1       2.356   6.062  18.324  0.00  0.00    +0.000 A 
ATOM      2  N   UNL     1       1.466   5.070  18.486  0.00  0.00    +0.000 NA
ATOM      3  C   UNL     1       1.876   3.823  18.287  0.00  0.00    +0.000 A 
ATOM      4  C   UNL     1       1.023   2.830  18.687  0.00  0.00    +0.000 A 
ATOM      5  C   UNL     1       1.529   1.755  19.357  0.00  0.00    +0.000 A 
ATOM      6  C   UNL     1       2.832   1.438  19.078  0.00  0.00    +0.000 A 
ATOM      7  N   UNL     1       3.618   2.166  18.216  0.00  0.00    +0.000 NA
ATOM      8  C   UNL     1       3.183   3.417  17.904  0.00  0.00    +0.000 A 
ATOM      9  C   UNL     1       3.887   4.469  17.325  0.00  0.00    +0.000 A 
ATOM     10  C   UNL     1       3.496   5.806  17.608  0.00  0.00    +0.000 A 
ATOM     11  C   UNL     1       4.458   6.801  17.030  0.00  0.00    +0.000 C 
ATOM     12  C   UNL     1       5.357   5.914  16.220  0.00  0.00    +0.000 A 
ATOM     13  C   UNL     1       6.345   6.359  15.347  0.00  0.00    +0.000 A 
ATOM     14  C   UNL     1       7.024   5.402  14.609  0.00  0.00    +0.000 A 
ATOM     15  C   UNL     1       6.729   4.042  14.795  0.00  0.00    +0.000 A 
ATOM     16  C   UNL     1       5.746   3.601  15.706  0.00  0.00    +0.000 A 
ATOM     17  C   UNL     1       5.043   4.556  16.426  0.00  0.00    +0.000 A 
ENDROOT
BRANCH   1  22
ATOM     18  F   UNL     1       0.890  10.842  20.881  0.00  0.00    +0.000 F 
ATOM     19  C   UNL     1       1.250   9.704  20.276  0.00  0.00    +0.000 A 
ATOM     20  C   UNL     1       1.428   8.558  21.037  0.00  0.00    +0.000 A 
ATOM     21  C   UNL     1       1.790   7.369  20.402  0.00  0.00    +0.000 A 
ATOM     22  C   UNL     1       2.025   7.324  19.012  0.00  0.00    +0.000 A 
ATOM     23  C   UNL     1       1.802   8.486  18.269  0.00  0.00    +0.000 A 
ATOM     24  C   UNL     1       1.419   9.660  18.902  0.00  0.00    +0.000 A 
ATOM     25  F   UNL     1       1.198  10.756  18.158  0.00  0.00    +0.000 F 
ENDBRANCH   1  22
TORSDOF 1
ENDMDL
MODEL 9
REMARK VINA RESULT:      -8.3      4.312      6.603
REMARK  Name = 
REMARK  1 active torsions:
REMARK  status: ('A' for Active; 'I' for Inactive)
REMARK    1  A    between atoms: C_5  and  C_6
REMARK                            x       y       z     vdW  Elec       q    Type
REMARK                         _______ _______ _______ _____ _____    ______ ____
ROOT
ATOM      1  C   UNL     1       2.687   7.351  18.694  0.00  0.00    +0.000 A 
ATOM      2  N   UNL     1       3.722   7.647  17.892  0.00  0.00    +0.000 NA
ATOM      3  C   UNL     1       4.422   6.642  17.378  0.00  0.00    +0.000 A 
ATOM      4  C   UNL     1       5.311   6.963  16.388  0.00  0.00    +0.000 A 
ATOM      5  C   UNL     1       5.380   6.168  15.280  0.00  0.00    +0.000 A 
ATOM      6  C   UNL     1       5.038   4.855  15.466  0.00  0.00    +0.000 A 
ATOM      7  N   UNL     1       4.606   4.351  16.670  0.00  0.00    +0.000 NA
ATOM      8  C   UNL     1       4.192   5.256  17.597  0.00  0.00    +0.000 A 
ATOM      9  C   UNL     1       3.441   5.047  18.750  0.00  0.00    +0.000 A 
ATOM     10  C   UNL     1       2.628   6.100  19.250  0.00  0.00    +0.000 A 
ATOM     11  C   UNL     1       1.775   5.647  20.398  0.00  0.00    +0.000 C 
ATOM     12  C   UNL     1       2.307   4.265  20.640  0.00  0.00    +0.000 A 
ATOM     13  C   UNL     1       1.956   3.450  21.711  0.00  0.00    +0.000 A 
ATOM     14  C   UNL     1       2.613   2.234  21.830  0.00  0.00    +0.000 A 
ATOM     15  C   UNL     1       3.556   1.856  20.862  0.00  0.00    +0.000 A 
ATOM     16  C   UNL     1       3.881   2.679  19.763  0.00  0.00    +0.000 A 
ATOM     17  C   UNL     1       3.248   3.908  19.655  0.00  0.00    +0.000 A 
ENDROOT
BRANCH   1  22
ATOM     18  F   UNL     1      -1.016  11.535  19.255  0.00  0.00    +0.000 F 
ATOM     19  C   UNL     1      -0.142  10.530  19.118  0.00  0.00    +0.000 A 
ATOM     20  C   UNL     1       0.227  10.123  17.845  0.00  0.00    +0.000 A 
ATOM     21  C   UNL     1       1.150   9.085  17.705  0.00  0.00    +0.000 A 
ATOM     22  C   UNL     1       1.672   8.413  18.830  0.00  0.00    +0.000 A 
ATOM     23  C   UNL     1       1.308   8.872  20.098  0.00  0.00    +0.000 A 
ATOM     24  C   UNL     1       0.409   9.920  20.232  0.00  0.00    +0.000 A 
ATOM     25  F   UNL     1       0.090  10.348  21.465  0.00  0.00    +0.000 F 
ENDBRANCH   1  22
TORSDOF 1
ENDMDL
