MODEL 1
REMARK VINA RESULT:      -7.6      0.000      0.000
REMARK  Name = 
REMARK  6 active torsions:
REMARK  status: ('A' for Active; 'I' for Inactive)
REMARK    1  A    between atoms: C_1  and  C_2
REMARK    2  A    between atoms: C_6  and  C_7
REMARK    3  A    between atoms: C_11  and  C_12
REMARK    4  A    between atoms: C_12  and  N_13
REMARK    5  A    between atoms: C_12  and  C_20
REMARK    6  A    between atoms: N_13  and  C_14
REMARK                            x       y       z     vdW  Elec       q    Type
REMARK                         _______ _______ _______ _____ _____    ______ ____
ROOT
ATOM      1  C   UNL     1       1.995   5.313  20.250  0.00  0.00    +0.000 C 
ATOM      2  C   UNL     1       1.273   3.989  20.021  0.00  0.00    +0.000 C 
ATOM      3  N   UNL     1       1.929   2.789  20.591  0.00  0.00    +0.000 N 
ATOM      4  C   UNL     1       3.204   2.779  21.123  0.00  0.00    +0.000 C 
ATOM      5  O   UNL     1       3.645   3.685  21.830  0.00  0.00    +0.000 OA
ATOM      6  C   UNL     1       4.143   1.730  20.482  0.00  0.00    +0.000 C 
ATOM      7  C   UNL     1       5.228   1.288  21.448  0.00  0.00    +0.000 C 
ATOM      8  N   UNL     1       4.719   2.488  19.358  0.00  0.00    +0.000 N 
ATOM      9  C   UNL     1       4.102   2.393  18.112  0.00  0.00    +0.000 C 
ATOM     10  O   UNL     1       3.575   1.351  17.750  0.00  0.00    +0.000 OA
ATOM     11  C   UNL     1       4.005   3.717  17.351  0.00  0.00    +0.000 C 
ATOM     12  C   UNL     1       2.631   3.776  16.638  0.00  0.00    +0.000 C 
ATOM     13  N   UNL     1       1.649   4.372  17.565  0.00  0.00    +0.000 N 
ATOM     14  C   UNL     1       1.084   3.572  18.535  0.00  0.00    +0.000 C 
ATOM     15  O   UNL     1       0.612   2.466  18.267  0.00  0.00    +0.000 OA
ATOM     16  H   UNL     1       1.658   1.942  20.087  0.00  0.00    +0.000 HD
ATOM     17  H   UNL     1       5.096   3.387  19.627  0.00  0.00    +0.000 HD
ATOM     18  H   UNL     1       1.798   5.352  17.768  0.00  0.00    +0.000 HD
ENDROOT
BRANCH  11  19
ATOM     19  C   UNL     1       5.249   4.130  16.536  0.00  0.00    +0.000 C 
BRANCH  19  20
ATOM     20  C   UNL     1       6.127   5.150  17.294  0.00  0.00    +0.000 A 
ATOM     21  C   UNL     1       7.008   4.724  18.299  0.00  0.00    +0.000 A 
ATOM     22  C   UNL     1       7.874   5.633  18.920  0.00  0.00    +0.000 A 
ATOM     23  C   UNL     1       7.870   6.977  18.550  0.00  0.00    +0.000 A 
ATOM     24  C   UNL     1       6.973   7.426  17.588  0.00  0.00    +0.000 A 
ATOM     25  C   UNL     1       6.098   6.525  16.982  0.00  0.00    +0.000 A 
ENDBRANCH  19  20
BRANCH  19  26
ATOM     26  N   UNL     1       4.953   4.668  15.208  0.00  0.00    +0.000 N 
ATOM     27  H   UNL     1       4.931   5.689  15.214  0.00  0.00    +0.000 HD
BRANCH  26  28
ATOM     28  C   UNL     1       5.647   4.302  14.053  0.00  0.00    +0.000 A 
ATOM     29  C   UNL     1       5.191   3.415  13.076  0.00  0.00    +0.000 A 
ATOM     30  C   UNL     1       5.935   3.172  11.914  0.00  0.00    +0.000 A 
ATOM     31  C   UNL     1       7.155   3.806  11.724  0.00  0.00    +0.000 A 
ATOM     32  C   UNL     1       7.646   4.667  12.702  0.00  0.00    +0.000 A 
ATOM     33  C   UNL     1       6.897   4.906  13.851  0.00  0.00    +0.000 A 
ENDBRANCH  26  28
ENDBRANCH  19  26
ENDBRANCH  11  19
TORSDOF 4
ENDMDL
MODEL 2
REMARK VINA RESULT:      -7.5      2.689      6.570
REMARK  Name = 
REMARK  6 active torsions:
REMARK  status: ('A' for Active; 'I' for Inactive)
REMARK    1  A    between atoms: C_1  and  C_2
REMARK    2  A    between atoms: C_6  and  C_7
REMARK    3  A    between atoms: C_11  and  C_12
REMARK    4  A    between atoms: C_12  and  N_13
REMARK    5  A    between atoms: C_12  and  C_20
REMARK    6  A    between atoms: N_13  and  C_14
REMARK                            x       y       z     vdW  Elec       q    Type
REMARK                         _______ _______ _______ _____ _____    ______ ____
ROOT
ATOM      1  C   UNL     1       7.403   7.226  17.474  0.00  0.00    +0.000 C 
ATOM      2  C   UNL     1       7.723   5.813  17.953  0.00  0.00    +0.000 C 
ATOM      3  N   UNL     1       7.664   4.753  16.919  0.00  0.00    +0.000 N 
ATOM      4  C   UNL     1       7.164   4.936  15.645  0.00  0.00    +0.000 C 
ATOM      5  O   UNL     1       7.378   5.948  14.977  0.00  0.00    +0.000 OA
ATOM      6  C   UNL     1       6.037   3.946  15.264  0.00  0.00    +0.000 C 
ATOM      7  C   UNL     1       5.976   3.720  13.764  0.00  0.00    +0.000 C 
ATOM      8  N   UNL     1       4.837   4.658  15.737  0.00  0.00    +0.000 N 
ATOM      9  C   UNL     1       4.366   4.380  17.018  0.00  0.00    +0.000 C 
ATOM     10  O   UNL     1       4.457   3.256  17.491  0.00  0.00    +0.000 OA
ATOM     11  C   UNL     1       3.901   5.609  17.803  0.00  0.00    +0.000 C 
ATOM     12  C   UNL     1       4.340   5.446  19.279  0.00  0.00    +0.000 C 
ATOM     13  N   UNL     1       5.697   6.009  19.428  0.00  0.00    +0.000 N 
ATOM     14  C   UNL     1       6.778   5.243  19.047  0.00  0.00    +0.000 C 
ATOM     15  O   UNL     1       6.897   4.070  19.407  0.00  0.00    +0.000 OA
ATOM     16  H   UNL     1       7.478   3.838  17.336  0.00  0.00    +0.000 HD
ATOM     17  H   UNL     1       4.781   5.615  15.415  0.00  0.00    +0.000 HD
ATOM     18  H   UNL     1       5.751   7.014  19.325  0.00  0.00    +0.000 HD
ENDROOT
BRANCH  11  19
ATOM     19  C   UNL     1       2.457   6.084  17.538  0.00  0.00    +0.000 C 
BRANCH  19  20
ATOM     20  C   UNL     1       2.123   7.383  18.304  0.00  0.00    +0.000 A 
ATOM     21  C   UNL     1       1.912   8.585  17.611  0.00  0.00    +0.000 A 
ATOM     22  C   UNL     1       1.515   9.741  18.295  0.00  0.00    +0.000 A 
ATOM     23  C   UNL     1       1.327   9.715  19.677  0.00  0.00    +0.000 A 
ATOM     24  C   UNL     1       1.575   8.545  20.385  0.00  0.00    +0.000 A 
ATOM     25  C   UNL     1       1.987   7.398  19.708  0.00  0.00    +0.000 A 
ENDBRANCH  19  20
BRANCH  19  26
ATOM     26  N   UNL     1       1.427   5.090  17.838  0.00  0.00    +0.000 N 
ATOM     27  H   UNL     1       1.202   4.524  17.019  0.00  0.00    +0.000 HD
BRANCH  26  28
ATOM     28  C   UNL     1       1.500   4.202  18.915  0.00  0.00    +0.000 A 
ATOM     29  C   UNL     1       1.430   4.552  20.264  0.00  0.00    +0.000 A 
ATOM     30  C   UNL     1       1.438   3.574  21.267  0.00  0.00    +0.000 A 
ATOM     31  C   UNL     1       1.529   2.231  20.929  0.00  0.00    +0.000 A 
ATOM     32  C   UNL     1       1.635   1.861  19.590  0.00  0.00    +0.000 A 
ATOM     33  C   UNL     1       1.622   2.840  18.600  0.00  0.00    +0.000 A 
ENDBRANCH  26  28
ENDBRANCH  19  26
ENDBRANCH  11  19
TORSDOF 4
ENDMDL
MODEL 3
REMARK VINA RESULT:      -7.0      0.177      1.273
REMARK  Name = 
REMARK  6 active torsions:
REMARK  status: ('A' for Active; 'I' for Inactive)
REMARK    1  A    between atoms: C_1  and  C_2
REMARK    2  A    between atoms: C_6  and  C_7
REMARK    3  A    between atoms: C_11  and  C_12
REMARK    4  A    between atoms: C_12  and  N_13
REMARK    5  A    between atoms: C_12  and  C_20
REMARK    6  A    between atoms: N_13  and  C_14
REMARK                            x       y       z     vdW  Elec       q    Type
REMARK                         _______ _______ _______ _____ _____    ______ ____
ROOT
ATOM      1  C   UNL     1       2.121   5.362  20.224  0.00  0.00    +0.000 C 
ATOM      2  C   UNL     1       1.351   4.057  20.039  0.00  0.00    +0.000 C 
ATOM      3  N   UNL     1       1.994   2.845  20.599  0.00  0.00    +0.000 N 
ATOM      4  C   UNL     1       3.286   2.803  21.083  0.00  0.00    +0.000 C 
ATOM      5  O   UNL     1       3.781   3.704  21.760  0.00  0.00    +0.000 OA
ATOM      6  C   UNL     1       4.169   1.719  20.420  0.00  0.00    +0.000 C 
ATOM      7  C   UNL     1       5.277   1.256  21.349  0.00  0.00    +0.000 C 
ATOM      8  N   UNL     1       4.724   2.447  19.265  0.00  0.00    +0.000 N 
ATOM      9  C   UNL     1       4.058   2.356  18.045  0.00  0.00    +0.000 C 
ATOM     10  O   UNL     1       3.486   1.326  17.716  0.00  0.00    +0.000 OA
ATOM     11  C   UNL     1       3.970   3.674  17.271  0.00  0.00    +0.000 C 
ATOM     12  C   UNL     1       2.573   3.765  16.610  0.00  0.00    +0.000 C 
ATOM     13  N   UNL     1       1.644   4.401  17.566  0.00  0.00    +0.000 N 
ATOM     14  C   UNL     1       1.094   3.629  18.567  0.00  0.00    +0.000 C 
ATOM     15  O   UNL     1       0.580   2.534  18.330  0.00  0.00    +0.000 OA
ATOM     16  H   UNL     1       1.678   2.001  20.116  0.00  0.00    +0.000 HD
ATOM     17  H   UNL     1       5.138   3.337  19.508  0.00  0.00    +0.000 HD
ATOM     18  H   UNL     1       1.830   5.378  17.750  0.00  0.00    +0.000 HD
ENDROOT
BRANCH  11  19
ATOM     19  C   UNL     1       5.194   4.040  16.404  0.00  0.00    +0.000 C 
BRANCH  19  20
ATOM     20  C   UNL     1       6.128   5.044  17.114  0.00  0.00    +0.000 A 
ATOM     21  C   UNL     1       6.039   6.418  16.840  0.00  0.00    +0.000 A 
ATOM     22  C   UNL     1       6.818   7.338  17.553  0.00  0.00    +0.000 A 
ATOM     23  C   UNL     1       7.697   6.902  18.544  0.00  0.00    +0.000 A 
ATOM     24  C   UNL     1       7.831   5.542  18.798  0.00  0.00    +0.000 A 
ATOM     25  C   UNL     1       7.069   4.623  18.077  0.00  0.00    +0.000 A 
ENDBRANCH  19  20
BRANCH  19  26
ATOM     26  N   UNL     1       4.863   4.569  15.081  0.00  0.00    +0.000 N 
ATOM     27  H   UNL     1       4.740   5.583  15.103  0.00  0.00    +0.000 HD
BRANCH  26  28
ATOM     28  C   UNL     1       5.605   4.293  13.930  0.00  0.00    +0.000 A 
ATOM     29  C   UNL     1       6.881   4.783  13.648  0.00  0.00    +0.000 A 
ATOM     30  C   UNL     1       7.571   4.383  12.496  0.00  0.00    +0.000 A 
ATOM     31  C   UNL     1       6.984   3.495  11.605  0.00  0.00    +0.000 A 
ATOM     32  C   UNL     1       5.698   3.021  11.850  0.00  0.00    +0.000 A 
ATOM     33  C   UNL     1       5.021   3.420  13.000  0.00  0.00    +0.000 A 
ENDBRANCH  26  28
ENDBRANCH  19  26
ENDBRANCH  11  19
TORSDOF 4
ENDMDL
MODEL 4
REMARK VINA RESULT:      -7.0      8.267     10.987
REMARK  Name = 
REMARK  6 active torsions:
REMARK  status: ('A' for Active; 'I' for Inactive)
REMARK    1  A    between atoms: C_1  and  C_2
REMARK    2  A    between atoms: C_6  and  C_7
REMARK    3  A    between atoms: C_11  and  C_12
REMARK    4  A    between atoms: C_12  and  N_13
REMARK    5  A    between atoms: C_12  and  C_20
REMARK    6  A    between atoms: N_13  and  C_14
REMARK                            x       y       z     vdW  Elec       q    Type
REMARK                         _______ _______ _______ _____ _____    ______ ____
ROOT
ATOM      1  C   UNL     1      -0.507  16.152  19.087  0.00  0.00    +0.000 C 
ATOM      2  C   UNL     1       0.303  16.280  20.373  0.00  0.00    +0.000 C 
ATOM      3  N   UNL     1       1.776  16.222  20.216  0.00  0.00    +0.000 N 
ATOM      4  C   UNL     1       2.420  15.876  19.044  0.00  0.00    +0.000 C 
ATOM      5  O   UNL     1       2.048  16.257  17.934  0.00  0.00    +0.000 OA
ATOM      6  C   UNL     1       3.416  14.703  19.199  0.00  0.00    +0.000 C 
ATOM      7  C   UNL     1       4.527  14.773  18.166  0.00  0.00    +0.000 C 
ATOM      8  N   UNL     1       2.549  13.537  18.957  0.00  0.00    +0.000 N 
ATOM      9  C   UNL     1       1.961  12.911  20.055  0.00  0.00    +0.000 C 
ATOM     10  O   UNL     1       2.547  12.842  21.126  0.00  0.00    +0.000 OA
ATOM     11  C   UNL     1       0.505  12.492  19.841  0.00  0.00    +0.000 C 
ATOM     12  C   UNL     1      -0.282  12.759  21.148  0.00  0.00    +0.000 C 
ATOM     13  N   UNL     1      -0.797  14.142  21.109  0.00  0.00    +0.000 N 
ATOM     14  C   UNL     1       0.054  15.175  21.438  0.00  0.00    +0.000 C 
ATOM     15  O   UNL     1       0.749  15.141  22.456  0.00  0.00    +0.000 OA
ATOM     16  H   UNL     1       2.229  15.905  21.076  0.00  0.00    +0.000 HD
ATOM     17  H   UNL     1       2.001  13.608  18.110  0.00  0.00    +0.000 HD
ATOM     18  H   UNL     1      -1.517  14.306  20.418  0.00  0.00    +0.000 HD
ENDROOT
BRANCH  11  19
ATOM     19  C   UNL     1       0.279  11.136  19.138  0.00  0.00    +0.000 C 
BRANCH  19  20
ATOM     20  C   UNL     1      -1.162  10.993  18.604  0.00  0.00    +0.000 A 
ATOM     21  C   UNL     1      -2.191  11.809  19.099  0.00  0.00    +0.000 A 
ATOM     22  C   UNL     1      -3.478  11.747  18.548  0.00  0.00    +0.000 A 
ATOM     23  C   UNL     1      -3.755  10.870  17.500  0.00  0.00    +0.000 A 
ATOM     24  C   UNL     1      -2.761  10.022  17.027  0.00  0.00    +0.000 A 
ATOM     25  C   UNL     1      -1.484  10.070  17.587  0.00  0.00    +0.000 A 
ENDBRANCH  19  20
BRANCH  19  26
ATOM     26  N   UNL     1       0.588   9.968  19.962  0.00  0.00    +0.000 N 
ATOM     27  H   UNL     1      -0.260   9.538  20.335  0.00  0.00    +0.000 HD
BRANCH  26  28
ATOM     28  C   UNL     1       1.402   8.915  19.536  0.00  0.00    +0.000 A 
ATOM     29  C   UNL     1       1.672   7.752  20.258  0.00  0.00    +0.000 A 
ATOM     30  C   UNL     1       2.444   6.720  19.708  0.00  0.00    +0.000 A 
ATOM     31  C   UNL     1       2.966   6.849  18.428  0.00  0.00    +0.000 A 
ATOM     32  C   UNL     1       2.739   8.016  17.703  0.00  0.00    +0.000 A 
ATOM     33  C   UNL     1       1.967   9.034  18.257  0.00  0.00    +0.000 A 
ENDBRANCH  26  28
ENDBRANCH  19  26
ENDBRANCH  11  19
TORSDOF 4
ENDMDL
MODEL 5
REMARK VINA RESULT:      -6.9      8.656     11.274
REMARK  Name = 
REMARK  6 active torsions:
REMARK  status: ('A' for Active; 'I' for Inactive)
REMARK    1  A    between atoms: C_1  and  C_2
REMARK    2  A    between atoms: C_6  and  C_7
REMARK    3  A    between atoms: C_11  and  C_12
REMARK    4  A    between atoms: C_12  and  N_13
REMARK    5  A    between atoms: C_12  and  C_20
REMARK    6  A    between atoms: N_13  and  C_14
REMARK                            x       y       z     vdW  Elec       q    Type
REMARK                         _______ _______ _______ _____ _____    ______ ____
ROOT
ATOM      1  C   UNL     1       3.362  13.857  21.445  0.00  0.00    +0.000 C 
ATOM      2  C   UNL     1       3.160  15.030  20.490  0.00  0.00    +0.000 C 
ATOM      3  N   UNL     1       1.945  15.848  20.722  0.00  0.00    +0.000 N 
ATOM      4  C   UNL     1       0.930  15.503  21.591  0.00  0.00    +0.000 C 
ATOM      5  O   UNL     1       1.132  15.007  22.700  0.00  0.00    +0.000 OA
ATOM      6  C   UNL     1      -0.470  15.457  20.934  0.00  0.00    +0.000 C 
ATOM      7  C   UNL     1      -1.570  15.731  21.944  0.00  0.00    +0.000 C 
ATOM      8  N   UNL     1      -0.533  14.065  20.456  0.00  0.00    +0.000 N 
ATOM      9  C   UNL     1      -0.138  13.797  19.147  0.00  0.00    +0.000 C 
ATOM     10  O   UNL     1      -0.337  14.607  18.253  0.00  0.00    +0.000 OA
ATOM     11  C   UNL     1       0.690  12.521  18.984  0.00  0.00    +0.000 C 
ATOM     12  C   UNL     1       1.808  12.787  17.946  0.00  0.00    +0.000 C 
ATOM     13  N   UNL     1       2.987  13.321  18.655  0.00  0.00    +0.000 N 
ATOM     14  C   UNL     1       3.011  14.658  18.989  0.00  0.00    +0.000 C 
ATOM     15  O   UNL     1       2.732  15.534  18.167  0.00  0.00    +0.000 OA
ATOM     16  H   UNL     1       1.649  16.321  19.866  0.00  0.00    +0.000 HD
ATOM     17  H   UNL     1      -0.300  13.382  21.165  0.00  0.00    +0.000 HD
ATOM     18  H   UNL     1       3.450  12.658  19.265  0.00  0.00    +0.000 HD
ENDROOT
BRANCH  11  19
ATOM     19  C   UNL     1      -0.104  11.203  18.853  0.00  0.00    +0.000 C 
BRANCH  19  20
ATOM     20  C   UNL     1       0.796   9.962  19.045  0.00  0.00    +0.000 A 
ATOM     21  C   UNL     1       0.928   9.367  20.310  0.00  0.00    +0.000 A 
ATOM     22  C   UNL     1       1.666   8.186  20.467  0.00  0.00    +0.000 A 
ATOM     23  C   UNL     1       2.282   7.586  19.369  0.00  0.00    +0.000 A 
ATOM     24  C   UNL     1       2.199   8.186  18.118  0.00  0.00    +0.000 A 
ATOM     25  C   UNL     1       1.480   9.371  17.963  0.00  0.00    +0.000 A 
ENDBRANCH  19  20
BRANCH  19  26
ATOM     26  N   UNL     1      -0.834  11.057  17.594  0.00  0.00    +0.000 N 
ATOM     27  H   UNL     1      -0.586  10.190  17.115  0.00  0.00    +0.000 HD
BRANCH  26  28
ATOM     28  C   UNL     1      -2.222  11.176  17.487  0.00  0.00    +0.000 A 
ATOM     29  C   UNL     1      -3.090  11.527  18.522  0.00  0.00    +0.000 A 
ATOM     30  C   UNL     1      -4.463  11.691  18.291  0.00  0.00    +0.000 A 
ATOM     31  C   UNL     1      -4.983  11.493  17.020  0.00  0.00    +0.000 A 
ATOM     32  C   UNL     1      -4.140  11.109  15.981  0.00  0.00    +0.000 A 
ATOM     33  C   UNL     1      -2.777  10.951  16.219  0.00  0.00    +0.000 A 
ENDBRANCH  26  28
ENDBRANCH  19  26
ENDBRANCH  11  19
TORSDOF 4
ENDMDL
MODEL 6
REMARK VINA RESULT:      -6.8      8.830     11.542
REMARK  Name = 
REMARK  6 active torsions:
REMARK  status: ('A' for Active; 'I' for Inactive)
REMARK    1  A    between atoms: C_1  and  C_2
REMARK    2  A    between atoms: C_6  and  C_7
REMARK    3  A    between atoms: C_11  and  C_12
REMARK    4  A    between atoms: C_12  and  N_13
REMARK    5  A    between atoms: C_12  and  C_20
REMARK    6  A    between atoms: N_13  and  C_14
REMARK                            x       y       z     vdW  Elec       q    Type
REMARK                         _______ _______ _______ _____ _____    ______ ____
ROOT
ATOM      1  C   UNL     1      -3.152  15.231  21.316  0.00  0.00    +0.000 C 
ATOM      2  C   UNL     1      -2.078  15.529  22.357  0.00  0.00    +0.000 C 
ATOM      3  N   UNL     1      -0.880  16.247  21.861  0.00  0.00    +0.000 N 
ATOM      4  C   UNL     1      -0.608  16.476  20.526  0.00  0.00    +0.000 C 
ATOM      5  O   UNL     1      -1.470  16.799  19.710  0.00  0.00    +0.000 OA
ATOM      6  C   UNL     1       0.776  15.955  20.070  0.00  0.00    +0.000 C 
ATOM      7  C   UNL     1       1.309  16.748  18.890  0.00  0.00    +0.000 C 
ATOM      8  N   UNL     1       0.462  14.572  19.673  0.00  0.00    +0.000 N 
ATOM      9  C   UNL     1       0.623  13.560  20.617  0.00  0.00    +0.000 C 
ATOM     10  O   UNL     1       1.518  13.615  21.449  0.00  0.00    +0.000 OA
ATOM     11  C   UNL     1      -0.489  12.509  20.617  0.00  0.00    +0.000 C 
ATOM     12  C   UNL     1      -0.799  12.119  22.083  0.00  0.00    +0.000 C 
ATOM     13  N   UNL     1      -1.829  13.040  22.604  0.00  0.00    +0.000 N 
ATOM     14  C   UNL     1      -1.442  14.287  23.043  0.00  0.00    +0.000 C 
ATOM     15  O   UNL     1      -0.490  14.435  23.812  0.00  0.00    +0.000 OA
ATOM     16  H   UNL     1      -0.065  16.060  22.449  0.00  0.00    +0.000 HD
ATOM     17  H   UNL     1      -0.324  14.500  19.040  0.00  0.00    +0.000 HD
ATOM     18  H   UNL     1      -2.744  12.933  22.183  0.00  0.00    +0.000 HD
ENDROOT
BRANCH  11  19
ATOM     19  C   UNL     1      -0.349  11.366  19.590  0.00  0.00    +0.000 C 
BRANCH  19  20
ATOM     20  C   UNL     1      -1.648  11.149  18.782  0.00  0.00    +0.000 A 
ATOM     21  C   UNL     1      -1.705  10.177  17.771  0.00  0.00    +0.000 A 
ATOM     22  C   UNL     1      -2.908   9.913  17.104  0.00  0.00    +0.000 A 
ATOM     23  C   UNL     1      -4.067  10.615  17.433  0.00  0.00    +0.000 A 
ATOM     24  C   UNL     1      -4.019  11.613  18.400  0.00  0.00    +0.000 A 
ATOM     25  C   UNL     1      -2.818  11.889  19.052  0.00  0.00    +0.000 A 
ENDBRANCH  19  20
BRANCH  19  26
ATOM     26  N   UNL     1       0.061  10.084  20.162  0.00  0.00    +0.000 N 
ATOM     27  H   UNL     1      -0.745   9.520  20.436  0.00  0.00    +0.000 HD
BRANCH  26  28
ATOM     28  C   UNL     1       0.952   9.208  19.536  0.00  0.00    +0.000 A 
ATOM     29  C   UNL     1       1.465   9.354  18.246  0.00  0.00    +0.000 A 
ATOM     30  C   UNL     1       2.413   8.456  17.738  0.00  0.00    +0.000 A 
ATOM     31  C   UNL     1       2.850   7.391  18.515  0.00  0.00    +0.000 A 
ATOM     32  C   UNL     1       2.325   7.207  19.791  0.00  0.00    +0.000 A 
ATOM     33  C   UNL     1       1.386   8.107  20.289  0.00  0.00    +0.000 A 
ENDBRANCH  26  28
ENDBRANCH  19  26
ENDBRANCH  11  19
TORSDOF 4
ENDMDL
MODEL 7
REMARK VINA RESULT:      -6.8      9.513     11.794
REMARK  Name = 
REMARK  6 active torsions:
REMARK  status: ('A' for Active; 'I' for Inactive)
REMARK    1  A    between atoms: C_1  and  C_2
REMARK    2  A    between atoms: C_6  and  C_7
REMARK    3  A    between atoms: C_11  and  C_12
REMARK    4  A    between atoms: C_12  and  N_13
REMARK    5  A    between atoms: C_12  and  C_20
REMARK    6  A    between atoms: N_13  and  C_14
REMARK                            x       y       z     vdW  Elec       q    Type
REMARK                         _______ _______ _______ _____ _____    ______ ____
ROOT
ATOM      1  C   UNL     1      -1.614  12.479  18.409  0.00  0.00    +0.000 C 
ATOM      2  C   UNL     1      -0.944  11.443  19.306  0.00  0.00    +0.000 C 
ATOM      3  N   UNL     1      -0.945  11.749  20.756  0.00  0.00    +0.000 N 
ATOM      4  C   UNL     1      -1.327  12.962  21.295  0.00  0.00    +0.000 C 
ATOM      5  O   UNL     1      -2.294  13.604  20.887  0.00  0.00    +0.000 OA
ATOM      6  C   UNL     1      -0.254  13.613  22.200  0.00  0.00    +0.000 C 
ATOM      7  C   UNL     1      -0.881  14.518  23.245  0.00  0.00    +0.000 C 
ATOM      8  N   UNL     1       0.526  14.397  21.227  0.00  0.00    +0.000 N 
ATOM      9  C   UNL     1       1.656  13.811  20.660  0.00  0.00    +0.000 C 
ATOM     10  O   UNL     1       2.353  13.041  21.304  0.00  0.00    +0.000 OA
ATOM     11  C   UNL     1       1.828  14.083  19.164  0.00  0.00    +0.000 C 
ATOM     12  C   UNL     1       2.349  12.792  18.485  0.00  0.00    +0.000 C 
ATOM     13  N   UNL     1       1.188  11.974  18.084  0.00  0.00    +0.000 N 
ATOM     14  C   UNL     1       0.566  11.194  19.035  0.00  0.00    +0.000 C 
ATOM     15  O   UNL     1       1.208  10.458  19.787  0.00  0.00    +0.000 OA
ATOM     16  H   UNL     1      -0.173  11.280  21.235  0.00  0.00    +0.000 HD
ATOM     17  H   UNL     1      -0.043  14.988  20.634  0.00  0.00    +0.000 HD
ATOM     18  H   UNL     1       0.631  12.368  17.337  0.00  0.00    +0.000 HD
ENDROOT
BRANCH  11  19
ATOM     19  C   UNL     1       2.512  15.413  18.785  0.00  0.00    +0.000 C 
BRANCH  19  20
ATOM     20  C   UNL     1       1.502  16.456  18.257  0.00  0.00    +0.000 A 
ATOM     21  C   UNL     1       1.918  17.475  17.386  0.00  0.00    +0.000 A 
ATOM     22  C   UNL     1       0.987  18.362  16.831  0.00  0.00    +0.000 A 
ATOM     23  C   UNL     1      -0.368  18.247  17.139  0.00  0.00    +0.000 A 
ATOM     24  C   UNL     1      -0.793  17.273  18.036  0.00  0.00    +0.000 A 
ATOM     25  C   UNL     1       0.136  16.400  18.603  0.00  0.00    +0.000 A 
ENDBRANCH  19  20
BRANCH  19  26
ATOM     26  N   UNL     1       3.595  15.282  17.810  0.00  0.00    +0.000 N 
ATOM     27  H   UNL     1       3.408  15.825  16.966  0.00  0.00    +0.000 HD
BRANCH  26  28
ATOM     28  C   UNL     1       4.942  15.495  18.118  0.00  0.00    +0.000 A 
ATOM     29  C   UNL     1       5.996  14.642  17.790  0.00  0.00    +0.000 A 
ATOM     30  C   UNL     1       7.323  14.986  18.080  0.00  0.00    +0.000 A 
ATOM     31  C   UNL     1       7.608  16.187  18.715  0.00  0.00    +0.000 A 
ATOM     32  C   UNL     1       6.568  17.038  19.082  0.00  0.00    +0.000 A 
ATOM     33  C   UNL     1       5.253  16.689  18.786  0.00  0.00    +0.000 A 
ENDBRANCH  26  28
ENDBRANCH  19  26
ENDBRANCH  11  19
TORSDOF 4
ENDMDL
MODEL 8
REMARK VINA RESULT:      -6.8      8.510     11.148
REMARK  Name = 
REMARK  6 active torsions:
REMARK  status: ('A' for Active; 'I' for Inactive)
REMARK    1  A    between atoms: C_1  and  C_2
REMARK    2  A    between atoms: C_6  and  C_7
REMARK    3  A    between atoms: C_11  and  C_12
REMARK    4  A    between atoms: C_12  and  N_13
REMARK    5  A    between atoms: C_12  and  C_20
REMARK    6  A    between atoms: N_13  and  C_14
REMARK                            x       y       z     vdW  Elec       q    Type
REMARK                         _______ _______ _______ _____ _____    ______ ____
ROOT
ATOM      1  C   UNL     1      -0.718  16.171  19.584  0.00  0.00    +0.000 C 
ATOM      2  C   UNL     1       0.188  16.099  20.809  0.00  0.00    +0.000 C 
ATOM      3  N   UNL     1       1.617  15.812  20.539  0.00  0.00    +0.000 N 
ATOM      4  C   UNL     1       2.113  15.428  19.309  0.00  0.00    +0.000 C 
ATOM      5  O   UNL     1       1.735  15.920  18.247  0.00  0.00    +0.000 OA
ATOM      6  C   UNL     1       2.910  14.101  19.341  0.00  0.00    +0.000 C 
ATOM      7  C   UNL     1       3.944  14.045  18.231  0.00  0.00    +0.000 C 
ATOM      8  N   UNL     1       1.848  13.106  19.118  0.00  0.00    +0.000 N 
ATOM      9  C   UNL     1       1.241  12.527  20.231  0.00  0.00    +0.000 C 
ATOM     10  O   UNL     1       1.878  12.309  21.252  0.00  0.00    +0.000 OA
ATOM     11  C   UNL     1      -0.276  12.362  20.112  0.00  0.00    +0.000 C 
ATOM     12  C   UNL     1      -0.917  12.684  21.484  0.00  0.00    +0.000 C 
ATOM     13  N   UNL     1      -1.198  14.133  21.540  0.00  0.00    +0.000 N 
ATOM     14  C   UNL     1      -0.167  14.995  21.845  0.00  0.00    +0.000 C 
ATOM     15  O   UNL     1       0.580  14.796  22.805  0.00  0.00    +0.000 OA
ATOM     16  H   UNL     1       2.068  15.381  21.348  0.00  0.00    +0.000 HD
ATOM     17  H   UNL     1       1.263  13.309  18.319  0.00  0.00    +0.000 HD
ATOM     18  H   UNL     1      -1.927  14.447  20.912  0.00  0.00    +0.000 HD
ENDROOT
BRANCH  11  19
ATOM     19  C   UNL     1      -0.770  11.099  19.374  0.00  0.00    +0.000 C 
BRANCH  19  20
ATOM     20  C   UNL     1       0.200   9.909  19.547  0.00  0.00    +0.000 A 
ATOM     21  C   UNL     1       1.006   9.485  18.479  0.00  0.00    +0.000 A 
ATOM     22  C   UNL     1       1.954   8.471  18.661  0.00  0.00    +0.000 A 
ATOM     23  C   UNL     1       2.109   7.864  19.907  0.00  0.00    +0.000 A 
ATOM     24  C   UNL     1       1.289   8.240  20.965  0.00  0.00    +0.000 A 
ATOM     25  C   UNL     1       0.332   9.237  20.780  0.00  0.00    +0.000 A 
ENDBRANCH  19  20
BRANCH  19  26
ATOM     26  N   UNL     1      -1.021  11.290  17.946  0.00  0.00    +0.000 N 
ATOM     27  H   UNL     1      -0.392  10.723  17.376  0.00  0.00    +0.000 HD
BRANCH  26  28
ATOM     28  C   UNL     1      -2.284  11.175  17.361  0.00  0.00    +0.000 A 
ATOM     29  C   UNL     1      -3.491  11.556  17.950  0.00  0.00    +0.000 A 
ATOM     30  C   UNL     1      -4.700  11.468  17.246  0.00  0.00    +0.000 A 
ATOM     31  C   UNL     1      -4.714  10.984  15.945  0.00  0.00    +0.000 A 
ATOM     32  C   UNL     1      -3.526  10.566  15.350  0.00  0.00    +0.000 A 
ATOM     33  C   UNL     1      -2.329  10.661  16.056  0.00  0.00    +0.000 A 
ENDBRANCH  26  28
ENDBRANCH  19  26
ENDBRANCH  11  19
TORSDOF 4
ENDMDL
MODEL 9
REMARK VINA RESULT:      -6.7      2.935      7.095
REMARK  Name = 
REMARK  6 active torsions:
REMARK  status: ('A' for Active; 'I' for Inactive)
REMARK    1  A    between atoms: C_1  and  C_2
REMARK    2  A    between atoms: C_6  and  C_7
REMARK    3  A    between atoms: C_11  and  C_12
REMARK    4  A    between atoms: C_12  and  N_13
REMARK    5  A    between atoms: C_12  and  C_20
REMARK    6  A    between atoms: N_13  and  C_14
REMARK                            x       y       z     vdW  Elec       q    Type
REMARK                         _______ _______ _______ _____ _____    ______ ____
ROOT
ATOM      1  C   UNL     1       7.349   7.501  16.920  0.00  0.00    +0.000 C 
ATOM      2  C   UNL     1       7.972   6.117  17.071  0.00  0.00    +0.000 C 
ATOM      3  N   UNL     1       7.521   5.096  16.097  0.00  0.00    +0.000 N 
ATOM      4  C   UNL     1       6.466   5.268  15.223  0.00  0.00    +0.000 C 
ATOM      5  O   UNL     1       6.255   6.321  14.622  0.00  0.00    +0.000 OA
ATOM      6  C   UNL     1       5.380   4.171  15.326  0.00  0.00    +0.000 C 
ATOM      7  C   UNL     1       4.637   3.995  14.014  0.00  0.00    +0.000 C 
ATOM      8  N   UNL     1       4.490   4.724  16.362  0.00  0.00    +0.000 N 
ATOM      9  C   UNL     1       4.704   4.347  17.686  0.00  0.00    +0.000 C 
ATOM     10  O   UNL     1       5.100   3.224  17.964  0.00  0.00    +0.000 OA
ATOM     11  C   UNL     1       4.564   5.485  18.700  0.00  0.00    +0.000 C 
ATOM     12  C   UNL     1       5.659   5.319  19.782  0.00  0.00    +0.000 C 
ATOM     13  N   UNL     1       6.874   6.027  19.331  0.00  0.00    +0.000 N 
ATOM     14  C   UNL     1       7.706   5.403  18.426  0.00  0.00    +0.000 C 
ATOM     15  O   UNL     1       8.078   4.239  18.586  0.00  0.00    +0.000 OA
ATOM     16  H   UNL     1       7.630   4.151  16.472  0.00  0.00    +0.000 HD
ATOM     17  H   UNL     1       4.209   5.679  16.187  0.00  0.00    +0.000 HD
ATOM     18  H   UNL     1       6.789   7.035  19.301  0.00  0.00    +0.000 HD
ENDROOT
BRANCH  11  19
ATOM     19  C   UNL     1       3.131   5.802  19.179  0.00  0.00    +0.000 C 
BRANCH  19  20
ATOM     20  C   UNL     1       2.294   4.522  19.392  0.00  0.00    +0.000 A 
ATOM     21  C   UNL     1       1.520   3.994  18.348  0.00  0.00    +0.000 A 
ATOM     22  C   UNL     1       0.837   2.782  18.509  0.00  0.00    +0.000 A 
ATOM     23  C   UNL     1       0.915   2.082  19.713  0.00  0.00    +0.000 A 
ATOM     24  C   UNL     1       1.640   2.612  20.774  0.00  0.00    +0.000 A 
ATOM     25  C   UNL     1       2.305   3.828  20.621  0.00  0.00    +0.000 A 
ENDBRANCH  19  20
BRANCH  19  26
ATOM     26  N   UNL     1       2.385   6.705  18.303  0.00  0.00    +0.000 N 
ATOM     27  H   UNL     1       1.605   6.227  17.849  0.00  0.00    +0.000 HD
BRANCH  26  28
ATOM     28  C   UNL     1       1.893   7.947  18.712  0.00  0.00    +0.000 A 
ATOM     29  C   UNL     1       1.666   9.046  17.881  0.00  0.00    +0.000 A 
ATOM     30  C   UNL     1       1.098  10.225  18.380  0.00  0.00    +0.000 A 
ATOM     31  C   UNL     1       0.761  10.322  19.723  0.00  0.00    +0.000 A 
ATOM     32  C   UNL     1       1.010   9.250  20.577  0.00  0.00    +0.000 A 
ATOM     33  C   UNL     1       1.572   8.080  20.071  0.00  0.00    +0.000 A 
ENDBRANCH  26  28
ENDBRANCH  19  26
ENDBRANCH  11  19
TORSDOF 4
ENDMDL
