MODEL 1
REMARK VINA RESULT:      -8.5      0.000      0.000
REMARK  Name = 
REMARK  7 active torsions:
REMARK  status: ('A' for Active; 'I' for Inactive)
REMARK    1  A    between atoms: C_1  and  O_2
REMARK    2  A    between atoms: O_2  and  C_3
REMARK    3  A    between atoms: C_5  and  N_6
REMARK    4  A    between atoms: C_7  and  C_9
REMARK    5  A    between atoms: C_12  and  C_13
REMARK    6  A    between atoms: C_22  and  N_23
REMARK    7  A    between atoms: C_24  and  C_26
REMARK                            x       y       z     vdW  Elec       q    Type
REMARK                         _______ _______ _______ _____ _____    ______ ____
ROOT
ATOM      1  C   UNL     1       1.070   8.649  20.211  0.00  0.00    +0.000 A 
ATOM      2  C   UNL     1       2.149   7.886  19.743  0.00  0.00    +0.000 A 
ATOM      3  C   UNL     1       2.565   7.938  18.414  0.00  0.00    +0.000 A 
ATOM      4  C   UNL     1       1.915   8.811  17.549  0.00  0.00    +0.000 A 
ATOM      5  C   UNL     1       0.868   9.617  18.013  0.00  0.00    +0.000 A 
ATOM      6  C   UNL     1       0.433   9.557  19.345  0.00  0.00    +0.000 A 
ENDROOT
BRANCH   3   7
ATOM      7  N   UNL     1       3.623   7.156  17.913  0.00  0.00    +0.000 N 
ATOM      8  C   UNL     1       4.043   5.926  18.396  0.00  0.00    +0.000 C 
ATOM      9  O   UNL     1       3.496   5.291  19.292  0.00  0.00    +0.000 OA
ATOM     10  H   UNL     1       4.114   7.490  17.091  0.00  0.00    +0.000 HD
BRANCH   8  11
ATOM     11  C   UNL     1       5.213   5.403  17.728  0.00  0.00    +0.000 A 
ATOM     12  C   UNL     1       6.404   4.937  18.243  0.00  0.00    +0.000 A 
ATOM     13  C   UNL     1       7.196   4.541  17.145  0.00  0.00    +0.000 A 
ATOM     14  C   UNL     1       6.447   4.782  16.010  0.00  0.00    +0.000 A 
ATOM     15  O   UNL     1       5.239   5.316  16.364  0.00  0.00    +0.000 OA
BRANCH  14  16
ATOM     16  C   UNL     1       6.662   4.564  14.582  0.00  0.00    +0.000 A 
ATOM     17  C   UNL     1       5.899   3.614  13.886  0.00  0.00    +0.000 A 
ATOM     18  C   UNL     1       6.064   3.434  12.511  0.00  0.00    +0.000 A 
ATOM     19  C   UNL     1       6.999   4.194  11.813  0.00  0.00    +0.000 A 
ATOM     20  C   UNL     1       7.778   5.128  12.491  0.00  0.00    +0.000 A 
ATOM     21  C   UNL     1       7.611   5.309  13.866  0.00  0.00    +0.000 A 
ENDBRANCH  14  16
ENDBRANCH   8  11
ENDBRANCH   3   7
BRANCH   6  22
ATOM     22  N   UNL     1      -0.588  10.408  19.849  0.00  0.00    +0.000 N 
ATOM     23  C   UNL     1      -0.399  11.660  20.406  0.00  0.00    +0.000 C 
ATOM     24  O   UNL     1       0.664  12.282  20.369  0.00  0.00    +0.000 OA
ATOM     25  H   UNL     1      -1.534  10.050  19.737  0.00  0.00    +0.000 HD
BRANCH  23  26
ATOM     26  C   UNL     1      -1.531  12.327  21.121  0.00  0.00    +0.000 A 
ATOM     27  C   UNL     1      -2.160  13.373  20.405  0.00  0.00    +0.000 A 
ATOM     28  C   UNL     1      -3.257  14.063  20.925  0.00  0.00    +0.000 A 
ATOM     29  C   UNL     1      -3.753  13.718  22.173  0.00  0.00    +0.000 A 
ATOM     30  C   UNL     1      -3.142  12.693  22.901  0.00  0.00    +0.000 A 
ATOM     31  C   UNL     1      -2.033  11.998  22.385  0.00  0.00    +0.000 A 
ATOM     32 CL   UNL     1      -1.396  10.731  23.372  0.00  0.00    +0.000 Cl
ENDBRANCH  23  26
ENDBRANCH   6  22
BRANCH   1  34
ATOM     33  C   UNL     1       1.443   9.135  22.493  0.00  0.00    +0.000 C 
ATOM     34  O   UNL     1       0.598   8.537  21.500  0.00  0.00    +0.000 OA
ENDBRANCH   1  34
TORSDOF 6
ENDMDL
MODEL 2
REMARK VINA RESULT:      -8.4      3.157      4.845
REMARK  Name = 
REMARK  7 active torsions:
REMARK  status: ('A' for Active; 'I' for Inactive)
REMARK    1  A    between atoms: C_1  and  O_2
REMARK    2  A    between atoms: O_2  and  C_3
REMARK    3  A    between atoms: C_5  and  N_6
REMARK    4  A    between atoms: C_7  and  C_9
REMARK    5  A    between atoms: C_12  and  C_13
REMARK    6  A    between atoms: C_22  and  N_23
REMARK    7  A    between atoms: C_24  and  C_26
REMARK                            x       y       z     vdW  Elec       q    Type
REMARK                         _______ _______ _______ _____ _____    ______ ____
ROOT
ATOM      1  C   UNL     1      -1.602  11.354  19.686  0.00  0.00    +0.000 A 
ATOM      2  C   UNL     1      -0.785  10.320  19.210  0.00  0.00    +0.000 A 
ATOM      3  C   UNL     1       0.407   9.973  19.843  0.00  0.00    +0.000 A 
ATOM      4  C   UNL     1       0.760  10.647  21.008  0.00  0.00    +0.000 A 
ATOM      5  C   UNL     1      -0.072  11.648  21.524  0.00  0.00    +0.000 A 
ATOM      6  C   UNL     1      -1.264  12.013  20.881  0.00  0.00    +0.000 A 
ENDROOT
BRANCH   3   7
ATOM      7  N   UNL     1       1.262   8.963  19.365  0.00  0.00    +0.000 N 
ATOM      8  C   UNL     1       2.054   9.019  18.228  0.00  0.00    +0.000 C 
ATOM      9  O   UNL     1       2.191  10.002  17.506  0.00  0.00    +0.000 OA
ATOM     10  H   UNL     1       1.352   8.115  19.914  0.00  0.00    +0.000 HD
BRANCH   8  11
ATOM     11  C   UNL     1       2.761   7.791  17.945  0.00  0.00    +0.000 A 
ATOM     12  C   UNL     1       4.003   7.582  17.384  0.00  0.00    +0.000 A 
ATOM     13  C   UNL     1       4.203   6.186  17.345  0.00  0.00    +0.000 A 
ATOM     14  C   UNL     1       3.072   5.609  17.887  0.00  0.00    +0.000 A 
ATOM     15  O   UNL     1       2.186   6.588  18.246  0.00  0.00    +0.000 OA
BRANCH  14  16
ATOM     16  C   UNL     1       2.663   4.235  18.169  0.00  0.00    +0.000 A 
ATOM     17  C   UNL     1       3.592   3.188  18.088  0.00  0.00    +0.000 A 
ATOM     18  C   UNL     1       3.222   1.878  18.403  0.00  0.00    +0.000 A 
ATOM     19  C   UNL     1       1.917   1.596  18.796  0.00  0.00    +0.000 A 
ATOM     20  C   UNL     1       0.977   2.621  18.866  0.00  0.00    +0.000 A 
ATOM     21  C   UNL     1       1.348   3.930  18.552  0.00  0.00    +0.000 A 
ENDBRANCH  14  16
ENDBRANCH   8  11
ENDBRANCH   3   7
BRANCH   6  22
ATOM     22  N   UNL     1      -2.149  12.986  21.421  0.00  0.00    +0.000 N 
ATOM     23  C   UNL     1      -3.029  12.789  22.471  0.00  0.00    +0.000 C 
ATOM     24  O   UNL     1      -3.027  11.795  23.199  0.00  0.00    +0.000 OA
ATOM     25  H   UNL     1      -2.074  13.910  21.001  0.00  0.00    +0.000 HD
BRANCH  23  26
ATOM     26  C   UNL     1      -4.073  13.820  22.760  0.00  0.00    +0.000 A 
ATOM     27  C   UNL     1      -5.110  13.908  21.802  0.00  0.00    +0.000 A 
ATOM     28  C   UNL     1      -6.178  14.794  21.953  0.00  0.00    +0.000 A 
ATOM     29  C   UNL     1      -6.234  15.611  23.073  0.00  0.00    +0.000 A 
ATOM     30  C   UNL     1      -5.217  15.547  24.028  0.00  0.00    +0.000 A 
ATOM     31  C   UNL     1      -4.135  14.660  23.878  0.00  0.00    +0.000 A 
ATOM     32 CL   UNL     1      -2.965  14.656  25.148  0.00  0.00    +0.000 Cl
ENDBRANCH  23  26
ENDBRANCH   6  22
BRANCH   1  34
ATOM     33  C   UNL     1      -2.709  11.507  17.603  0.00  0.00    +0.000 C 
ATOM     34  O   UNL     1      -2.735  11.761  19.015  0.00  0.00    +0.000 OA
ENDBRANCH   1  34
TORSDOF 6
ENDMDL
MODEL 3
REMARK VINA RESULT:      -8.2      2.920      4.560
REMARK  Name = 
REMARK  7 active torsions:
REMARK  status: ('A' for Active; 'I' for Inactive)
REMARK    1  A    between atoms: C_1  and  O_2
REMARK    2  A    between atoms: O_2  and  C_3
REMARK    3  A    between atoms: C_5  and  N_6
REMARK    4  A    between atoms: C_7  and  C_9
REMARK    5  A    between atoms: C_12  and  C_13
REMARK    6  A    between atoms: C_22  and  N_23
REMARK    7  A    between atoms: C_24  and  C_26
REMARK                            x       y       z     vdW  Elec       q    Type
REMARK                         _______ _______ _______ _____ _____    ______ ____
ROOT
ATOM      1  C   UNL     1      -2.244  11.223  18.504  0.00  0.00    +0.000 A 
ATOM      2  C   UNL     1      -1.295  10.191  18.475  0.00  0.00    +0.000 A 
ATOM      3  C   UNL     1      -0.301  10.078  19.445  0.00  0.00    +0.000 A 
ATOM      4  C   UNL     1      -0.290  10.992  20.494  0.00  0.00    +0.000 A 
ATOM      5  C   UNL     1      -1.262  11.998  20.564  0.00  0.00    +0.000 A 
ATOM      6  C   UNL     1      -2.254  12.127  19.582  0.00  0.00    +0.000 A 
ENDROOT
BRANCH   3   7
ATOM      7  N   UNL     1       0.684   9.073  19.418  0.00  0.00    +0.000 N 
ATOM      8  C   UNL     1       1.671   8.908  18.458  0.00  0.00    +0.000 C 
ATOM      9  O   UNL     1       1.885   9.672  17.521  0.00  0.00    +0.000 OA
ATOM     10  H   UNL     1       0.717   8.417  20.190  0.00  0.00    +0.000 HD
BRANCH   8  11
ATOM     11  C   UNL     1       2.486   7.731  18.652  0.00  0.00    +0.000 A 
ATOM     12  C   UNL     1       2.484   6.798  19.669  0.00  0.00    +0.000 A 
ATOM     13  C   UNL     1       3.481   5.852  19.356  0.00  0.00    +0.000 A 
ATOM     14  C   UNL     1       4.044   6.251  18.160  0.00  0.00    +0.000 A 
ATOM     15  O   UNL     1       3.443   7.403  17.733  0.00  0.00    +0.000 OA
BRANCH  14  16
ATOM     16  C   UNL     1       5.078   5.702  17.287  0.00  0.00    +0.000 A 
ATOM     17  C   UNL     1       4.984   5.849  15.895  0.00  0.00    +0.000 A 
ATOM     18  C   UNL     1       5.993   5.369  15.056  0.00  0.00    +0.000 A 
ATOM     19  C   UNL     1       7.105   4.730  15.595  0.00  0.00    +0.000 A 
ATOM     20  C   UNL     1       7.207   4.559  16.973  0.00  0.00    +0.000 A 
ATOM     21  C   UNL     1       6.199   5.040  17.811  0.00  0.00    +0.000 A 
ENDBRANCH  14  16
ENDBRANCH   8  11
ENDBRANCH   3   7
BRANCH   6  22
ATOM     22  N   UNL     1      -3.284  13.104  19.667  0.00  0.00    +0.000 N 
ATOM     23  C   UNL     1      -4.366  13.070  20.528  0.00  0.00    +0.000 C 
ATOM     24  O   UNL     1      -4.481  12.279  21.466  0.00  0.00    +0.000 OA
ATOM     25  H   UNL     1      -3.160  13.907  19.054  0.00  0.00    +0.000 HD
BRANCH  23  26
ATOM     26  C   UNL     1      -5.496  14.029  20.330  0.00  0.00    +0.000 A 
ATOM     27  C   UNL     1      -5.183  15.385  20.584  0.00  0.00    +0.000 A 
ATOM     28  C   UNL     1      -6.122  16.403  20.403  0.00  0.00    +0.000 A 
ATOM     29  C   UNL     1      -7.397  16.085  19.959  0.00  0.00    +0.000 A 
ATOM     30  C   UNL     1      -7.730  14.752  19.710  0.00  0.00    +0.000 A 
ATOM     31  C   UNL     1      -6.790  13.721  19.895  0.00  0.00    +0.000 A 
ATOM     32 CL   UNL     1      -7.321  12.122  19.517  0.00  0.00    +0.000 Cl
ENDBRANCH  23  26
ENDBRANCH   6  22
BRANCH   1  34
ATOM     33  C   UNL     1      -2.692  11.069  16.189  0.00  0.00    +0.000 C 
ATOM     34  O   UNL     1      -3.174  11.391  17.502  0.00  0.00    +0.000 OA
ENDBRANCH   1  34
TORSDOF 6
ENDMDL
MODEL 4
REMARK VINA RESULT:      -8.2      2.318      4.248
REMARK  Name = 
REMARK  7 active torsions:
REMARK  status: ('A' for Active; 'I' for Inactive)
REMARK    1  A    between atoms: C_1  and  O_2
REMARK    2  A    between atoms: O_2  and  C_3
REMARK    3  A    between atoms: C_5  and  N_6
REMARK    4  A    between atoms: C_7  and  C_9
REMARK    5  A    between atoms: C_12  and  C_13
REMARK    6  A    between atoms: C_22  and  N_23
REMARK    7  A    between atoms: C_24  and  C_26
REMARK                            x       y       z     vdW  Elec       q    Type
REMARK                         _______ _______ _______ _____ _____    ______ ____
ROOT
ATOM      1  C   UNL     1      -0.060  11.721  21.374  0.00  0.00    +0.000 A 
ATOM      2  C   UNL     1       0.621  10.596  20.887  0.00  0.00    +0.000 A 
ATOM      3  C   UNL     1       0.677   9.403  21.603  0.00  0.00    +0.000 A 
ATOM      4  C   UNL     1      -0.006   9.322  22.812  0.00  0.00    +0.000 A 
ATOM      5  C   UNL     1      -0.733  10.420  23.288  0.00  0.00    +0.000 A 
ATOM      6  C   UNL     1      -0.779  11.629  22.579  0.00  0.00    +0.000 A 
ENDROOT
BRANCH   3   7
ATOM      7  N   UNL     1       1.384   8.272  21.152  0.00  0.00    +0.000 N 
ATOM      8  C   UNL     1       1.806   8.024  19.854  0.00  0.00    +0.000 C 
ATOM      9  O   UNL     1       1.695   8.800  18.911  0.00  0.00    +0.000 OA
ATOM     10  H   UNL     1       1.657   7.576  21.837  0.00  0.00    +0.000 HD
BRANCH   8  11
ATOM     11  C   UNL     1       2.435   6.734  19.680  0.00  0.00    +0.000 A 
ATOM     12  C   UNL     1       2.176   5.523  20.286  0.00  0.00    +0.000 A 
ATOM     13  C   UNL     1       3.084   4.592  19.741  0.00  0.00    +0.000 A 
ATOM     14  C   UNL     1       3.853   5.280  18.823  0.00  0.00    +0.000 A 
ATOM     15  O   UNL     1       3.463   6.591  18.791  0.00  0.00    +0.000 OA
BRANCH  14  16
ATOM     16  C   UNL     1       4.923   4.904  17.904  0.00  0.00    +0.000 A 
ATOM     17  C   UNL     1       4.622   4.445  16.613  0.00  0.00    +0.000 A 
ATOM     18  C   UNL     1       5.642   4.129  15.711  0.00  0.00    +0.000 A 
ATOM     19  C   UNL     1       6.975   4.260  16.088  0.00  0.00    +0.000 A 
ATOM     20  C   UNL     1       7.292   4.697  17.372  0.00  0.00    +0.000 A 
ATOM     21  C   UNL     1       6.273   5.014  18.273  0.00  0.00    +0.000 A 
ENDBRANCH  14  16
ENDBRANCH   8  11
ENDBRANCH   3   7
BRANCH   6  22
ATOM     22  N   UNL     1      -1.558  12.735  23.016  0.00  0.00    +0.000 N 
ATOM     23  C   UNL     1      -2.860  12.677  23.483  0.00  0.00    +0.000 C 
ATOM     24  O   UNL     1      -3.453  11.632  23.755  0.00  0.00    +0.000 OA
ATOM     25  H   UNL     1      -1.070  13.628  23.012  0.00  0.00    +0.000 HD
BRANCH  23  26
ATOM     26  C   UNL     1      -3.634  13.944  23.664  0.00  0.00    +0.000 A 
ATOM     27  C   UNL     1      -3.171  14.786  24.703  0.00  0.00    +0.000 A 
ATOM     28  C   UNL     1      -3.765  16.021  24.968  0.00  0.00    +0.000 A 
ATOM     29  C   UNL     1      -4.837  16.444  24.195  0.00  0.00    +0.000 A 
ATOM     30  C   UNL     1      -5.316  15.625  23.170  0.00  0.00    +0.000 A 
ATOM     31  C   UNL     1      -4.724  14.377  22.901  0.00  0.00    +0.000 A 
ATOM     32 CL   UNL     1      -5.391  13.480  21.585  0.00  0.00    +0.000 Cl
ENDBRANCH  23  26
ENDBRANCH   6  22
BRANCH   1  34
ATOM     33  C   UNL     1      -0.779  12.937  19.479  0.00  0.00    +0.000 C 
ATOM     34  O   UNL     1      -0.045  12.930  20.713  0.00  0.00    +0.000 OA
ENDBRANCH   1  34
TORSDOF 6
ENDMDL
MODEL 5
REMARK VINA RESULT:      -8.2      1.235      1.710
REMARK  Name = 
REMARK  7 active torsions:
REMARK  status: ('A' for Active; 'I' for Inactive)
REMARK    1  A    between atoms: C_1  and  O_2
REMARK    2  A    between atoms: O_2  and  C_3
REMARK    3  A    between atoms: C_5  and  N_6
REMARK    4  A    between atoms: C_7  and  C_9
REMARK    5  A    between atoms: C_12  and  C_13
REMARK    6  A    between atoms: C_22  and  N_23
REMARK    7  A    between atoms: C_24  and  C_26
REMARK                            x       y       z     vdW  Elec       q    Type
REMARK                         _______ _______ _______ _____ _____    ______ ____
ROOT
ATOM      1  C   UNL     1       0.996   9.029  20.448  0.00  0.00    +0.000 A 
ATOM      2  C   UNL     1       1.996   8.189  19.937  0.00  0.00    +0.000 A 
ATOM      3  C   UNL     1       2.337   8.189  18.586  0.00  0.00    +0.000 A 
ATOM      4  C   UNL     1       1.694   9.087  17.739  0.00  0.00    +0.000 A 
ATOM      5  C   UNL     1       0.729   9.967  18.245  0.00  0.00    +0.000 A 
ATOM      6  C   UNL     1       0.370   9.960  19.600  0.00  0.00    +0.000 A 
ENDROOT
BRANCH   3   7
ATOM      7  N   UNL     1       3.311   7.331  18.043  0.00  0.00    +0.000 N 
ATOM      8  C   UNL     1       3.228   5.951  17.932  0.00  0.00    +0.000 C 
ATOM      9  O   UNL     1       2.247   5.273  18.220  0.00  0.00    +0.000 OA
ATOM     10  H   UNL     1       4.149   7.748  17.652  0.00  0.00    +0.000 HD
BRANCH   8  11
ATOM     11  C   UNL     1       4.426   5.333  17.409  0.00  0.00    +0.000 A 
ATOM     12  C   UNL     1       5.470   4.711  18.061  0.00  0.00    +0.000 A 
ATOM     13  C   UNL     1       6.373   4.282  17.067  0.00  0.00    +0.000 A 
ATOM     14  C   UNL     1       5.835   4.660  15.853  0.00  0.00    +0.000 A 
ATOM     15  O   UNL     1       4.649   5.309  16.061  0.00  0.00    +0.000 OA
BRANCH  14  16
ATOM     16  C   UNL     1       6.240   4.488  14.460  0.00  0.00    +0.000 A 
ATOM     17  C   UNL     1       7.374   5.148  13.964  0.00  0.00    +0.000 A 
ATOM     18  C   UNL     1       7.796   4.951  12.646  0.00  0.00    +0.000 A 
ATOM     19  C   UNL     1       7.087   4.097  11.806  0.00  0.00    +0.000 A 
ATOM     20  C   UNL     1       5.949   3.448  12.276  0.00  0.00    +0.000 A 
ATOM     21  C   UNL     1       5.528   3.644  13.593  0.00  0.00    +0.000 A 
ENDBRANCH  14  16
ENDBRANCH   8  11
ENDBRANCH   3   7
BRANCH   6  22
ATOM     22  N   UNL     1      -0.564  10.885  20.142  0.00  0.00    +0.000 N 
ATOM     23  C   UNL     1      -0.268  11.923  21.009  0.00  0.00    +0.000 C 
ATOM     24  O   UNL     1       0.874  12.295  21.280  0.00  0.00    +0.000 OA
ATOM     25  H   UNL     1      -1.518  10.770  19.810  0.00  0.00    +0.000 HD
BRANCH  23  26
ATOM     26  C   UNL     1      -1.382  12.650  21.693  0.00  0.00    +0.000 A 
ATOM     27  C   UNL     1      -2.027  11.926  22.722  0.00  0.00    +0.000 A 
ATOM     28  C   UNL     1      -3.058  12.486  23.480  0.00  0.00    +0.000 A 
ATOM     29  C   UNL     1      -3.464  13.788  23.225  0.00  0.00    +0.000 A 
ATOM     30  C   UNL     1      -2.845  14.519  22.208  0.00  0.00    +0.000 A 
ATOM     31  C   UNL     1      -1.810  13.958  21.438  0.00  0.00    +0.000 A 
ATOM     32 CL   UNL     1      -1.108  14.981  20.236  0.00  0.00    +0.000 Cl
ENDBRANCH  23  26
ENDBRANCH   6  22
BRANCH   1  34
ATOM     33  C   UNL     1      -0.601   8.209  21.984  0.00  0.00    +0.000 C 
ATOM     34  O   UNL     1       0.594   8.972  21.765  0.00  0.00    +0.000 OA
ENDBRANCH   1  34
TORSDOF 6
ENDMDL
MODEL 6
REMARK VINA RESULT:      -8.2      1.420      2.115
REMARK  Name = 
REMARK  7 active torsions:
REMARK  status: ('A' for Active; 'I' for Inactive)
REMARK    1  A    between atoms: C_1  and  O_2
REMARK    2  A    between atoms: O_2  and  C_3
REMARK    3  A    between atoms: C_5  and  N_6
REMARK    4  A    between atoms: C_7  and  C_9
REMARK    5  A    between atoms: C_12  and  C_13
REMARK    6  A    between atoms: C_22  and  N_23
REMARK    7  A    between atoms: C_24  and  C_26
REMARK                            x       y       z     vdW  Elec       q    Type
REMARK                         _______ _______ _______ _____ _____    ______ ____
ROOT
ATOM      1  C   UNL     1       0.282   9.789  18.595  0.00  0.00    +0.000 A 
ATOM      2  C   UNL     1       1.293   8.994  18.038  0.00  0.00    +0.000 A 
ATOM      3  C   UNL     1       2.122   8.198  18.826  0.00  0.00    +0.000 A 
ATOM      4  C   UNL     1       1.898   8.162  20.198  0.00  0.00    +0.000 A 
ATOM      5  C   UNL     1       0.859   8.912  20.764  0.00  0.00    +0.000 A 
ATOM      6  C   UNL     1       0.033   9.728  19.978  0.00  0.00    +0.000 A 
ENDROOT
BRANCH   3   7
ATOM      7  N   UNL     1       3.166   7.419  18.294  0.00  0.00    +0.000 N 
ATOM      8  C   UNL     1       3.176   6.041  18.141  0.00  0.00    +0.000 C 
ATOM      9  O   UNL     1       2.231   5.294  18.376  0.00  0.00    +0.000 OA
ATOM     10  H   UNL     1       3.988   7.900  17.943  0.00  0.00    +0.000 HD
BRANCH   8  11
ATOM     11  C   UNL     1       4.426   5.515  17.643  0.00  0.00    +0.000 A 
ATOM     12  C   UNL     1       5.547   5.081  18.320  0.00  0.00    +0.000 A 
ATOM     13  C   UNL     1       6.476   4.665  17.344  0.00  0.00    +0.000 A 
ATOM     14  C   UNL     1       5.875   4.861  16.116  0.00  0.00    +0.000 A 
ATOM     15  O   UNL     1       4.626   5.388  16.297  0.00  0.00    +0.000 OA
BRANCH  14  16
ATOM     16  C   UNL     1       6.271   4.603  14.734  0.00  0.00    +0.000 A 
ATOM     17  C   UNL     1       5.531   3.719  13.936  0.00  0.00    +0.000 A 
ATOM     18  C   UNL     1       5.875   3.504  12.599  0.00  0.00    +0.000 A 
ATOM     19  C   UNL     1       6.967   4.164  12.043  0.00  0.00    +0.000 A 
ATOM     20  C   UNL     1       7.724   5.032  12.825  0.00  0.00    +0.000 A 
ATOM     21  C   UNL     1       7.379   5.248  14.162  0.00  0.00    +0.000 A 
ENDBRANCH  14  16
ENDBRANCH   8  11
ENDBRANCH   3   7
BRANCH   6  22
ATOM     22  N   UNL     1      -1.062  10.451  20.526  0.00  0.00    +0.000 N 
ATOM     23  C   UNL     1      -1.033  11.765  20.958  0.00  0.00    +0.000 C 
ATOM     24  O   UNL     1      -0.098  12.541  20.753  0.00  0.00    +0.000 OA
ATOM     25  H   UNL     1      -1.941   9.938  20.549  0.00  0.00    +0.000 HD
BRANCH  23  26
ATOM     26  C   UNL     1      -2.185  12.308  21.742  0.00  0.00    +0.000 A 
ATOM     27  C   UNL     1      -1.918  12.547  23.111  0.00  0.00    +0.000 A 
ATOM     28  C   UNL     1      -2.881  13.091  23.963  0.00  0.00    +0.000 A 
ATOM     29  C   UNL     1      -4.134  13.413  23.462  0.00  0.00    +0.000 A 
ATOM     30  C   UNL     1      -4.421  13.178  22.115  0.00  0.00    +0.000 A 
ATOM     31  C   UNL     1      -3.457  12.625  21.253  0.00  0.00    +0.000 A 
ATOM     32 CL   UNL     1      -3.930  12.419  19.605  0.00  0.00    +0.000 Cl
ENDBRANCH  23  26
ENDBRANCH   6  22
BRANCH   1  34
ATOM     33  C   UNL     1      -1.611  10.024  17.201  0.00  0.00    +0.000 C 
ATOM     34  O   UNL     1      -0.482  10.645  17.832  0.00  0.00    +0.000 OA
ENDBRANCH   1  34
TORSDOF 6
ENDMDL
MODEL 7
REMARK VINA RESULT:      -8.2      3.542      5.445
REMARK  Name = 
REMARK  7 active torsions:
REMARK  status: ('A' for Active; 'I' for Inactive)
REMARK    1  A    between atoms: C_1  and  O_2
REMARK    2  A    between atoms: O_2  and  C_3
REMARK    3  A    between atoms: C_5  and  N_6
REMARK    4  A    between atoms: C_7  and  C_9
REMARK    5  A    between atoms: C_12  and  C_13
REMARK    6  A    between atoms: C_22  and  N_23
REMARK    7  A    between atoms: C_24  and  C_26
REMARK                            x       y       z     vdW  Elec       q    Type
REMARK                         _______ _______ _______ _____ _____    ______ ____
ROOT
ATOM      1  C   UNL     1      -2.328  11.502  18.635  0.00  0.00    +0.000 A 
ATOM      2  C   UNL     1      -1.429  10.457  18.381  0.00  0.00    +0.000 A 
ATOM      3  C   UNL     1      -0.281  10.271  19.149  0.00  0.00    +0.000 A 
ATOM      4  C   UNL     1      -0.058  11.124  20.226  0.00  0.00    +0.000 A 
ATOM      5  C   UNL     1      -0.973  12.141  20.523  0.00  0.00    +0.000 A 
ATOM      6  C   UNL     1      -2.121  12.344  19.743  0.00  0.00    +0.000 A 
ENDROOT
BRANCH   3   7
ATOM      7  N   UNL     1       0.655   9.252  18.892  0.00  0.00    +0.000 N 
ATOM      8  C   UNL     1       1.781   9.346  18.088  0.00  0.00    +0.000 C 
ATOM      9  O   UNL     1       2.178  10.370  17.539  0.00  0.00    +0.000 OA
ATOM     10  H   UNL     1       0.533   8.363  19.365  0.00  0.00    +0.000 HD
BRANCH   8  11
ATOM     11  C   UNL     1       2.505   8.104  17.947  0.00  0.00    +0.000 A 
ATOM     12  C   UNL     1       3.774   7.857  17.466  0.00  0.00    +0.000 A 
ATOM     13  C   UNL     1       3.982   6.465  17.558  0.00  0.00    +0.000 A 
ATOM     14  C   UNL     1       2.828   5.928  18.096  0.00  0.00    +0.000 A 
ATOM     15  O   UNL     1       1.923   6.927  18.326  0.00  0.00    +0.000 OA
BRANCH  14  16
ATOM     16  C   UNL     1       2.413   4.581  18.478  0.00  0.00    +0.000 A 
ATOM     17  C   UNL     1       1.702   4.368  19.668  0.00  0.00    +0.000 A 
ATOM     18  C   UNL     1       1.259   3.089  20.016  0.00  0.00    +0.000 A 
ATOM     19  C   UNL     1       1.527   2.006  19.184  0.00  0.00    +0.000 A 
ATOM     20  C   UNL     1       2.247   2.196  18.008  0.00  0.00    +0.000 A 
ATOM     21  C   UNL     1       2.689   3.474  17.660  0.00  0.00    +0.000 A 
ENDBRANCH  14  16
ENDBRANCH   8  11
ENDBRANCH   3   7
BRANCH   6  22
ATOM     22  N   UNL     1      -3.091  13.333  20.063  0.00  0.00    +0.000 N 
ATOM     23  C   UNL     1      -4.138  13.184  20.956  0.00  0.00    +0.000 C 
ATOM     24  O   UNL     1      -4.259  12.233  21.730  0.00  0.00    +0.000 OA
ATOM     25  H   UNL     1      -2.948  14.232  19.609  0.00  0.00    +0.000 HD
BRANCH  23  26
ATOM     26  C   UNL     1      -5.221  14.214  20.999  0.00  0.00    +0.000 A 
ATOM     27  C   UNL     1      -5.228  15.027  22.157  0.00  0.00    +0.000 A 
ATOM     28  C   UNL     1      -6.153  16.060  22.324  0.00  0.00    +0.000 A 
ATOM     29  C   UNL     1      -7.091  16.305  21.332  0.00  0.00    +0.000 A 
ATOM     30  C   UNL     1      -7.107  15.509  20.184  0.00  0.00    +0.000 A 
ATOM     31  C   UNL     1      -6.181  14.464  20.012  0.00  0.00    +0.000 A 
ATOM     32 CL   UNL     1      -6.288  13.580  18.532  0.00  0.00    +0.000 Cl
ENDBRANCH  23  26
ENDBRANCH   6  22
BRANCH   1  34
ATOM     33  C   UNL     1      -4.302  10.625  17.676  0.00  0.00    +0.000 C 
ATOM     34  O   UNL     1      -3.417  11.745  17.826  0.00  0.00    +0.000 OA
ENDBRANCH   1  34
TORSDOF 6
ENDMDL
MODEL 8
REMARK VINA RESULT:      -8.1      1.460      2.340
REMARK  Name = 
REMARK  7 active torsions:
REMARK  status: ('A' for Active; 'I' for Inactive)
REMARK    1  A    between atoms: C_1  and  O_2
REMARK    2  A    between atoms: O_2  and  C_3
REMARK    3  A    between atoms: C_5  and  N_6
REMARK    4  A    between atoms: C_7  and  C_9
REMARK    5  A    between atoms: C_12  and  C_13
REMARK    6  A    between atoms: C_22  and  N_23
REMARK    7  A    between atoms: C_24  and  C_26
REMARK                            x       y       z     vdW  Elec       q    Type
REMARK                         _______ _______ _______ _____ _____    ______ ____
ROOT
ATOM      1  C   UNL     1       0.427   9.898  18.742  0.00  0.00    +0.000 A 
ATOM      2  C   UNL     1       1.364   9.026  18.171  0.00  0.00    +0.000 A 
ATOM      3  C   UNL     1       2.134   8.162  18.947  0.00  0.00    +0.000 A 
ATOM      4  C   UNL     1       1.923   8.139  20.322  0.00  0.00    +0.000 A 
ATOM      5  C   UNL     1       0.954   8.968  20.902  0.00  0.00    +0.000 A 
ATOM      6  C   UNL     1       0.188   9.851  20.127  0.00  0.00    +0.000 A 
ENDROOT
BRANCH   3   7
ATOM      7  N   UNL     1       3.106   7.304  18.401  0.00  0.00    +0.000 N 
ATOM      8  C   UNL     1       2.989   5.935  18.211  0.00  0.00    +0.000 C 
ATOM      9  O   UNL     1       1.977   5.274  18.420  0.00  0.00    +0.000 OA
ATOM     10  H   UNL     1       3.972   7.715  18.069  0.00  0.00    +0.000 HD
BRANCH   8  11
ATOM     11  C   UNL     1       4.190   5.309  17.708  0.00  0.00    +0.000 A 
ATOM     12  C   UNL     1       5.205   4.653  18.374  0.00  0.00    +0.000 A 
ATOM     13  C   UNL     1       6.129   4.233  17.395  0.00  0.00    +0.000 A 
ATOM     14  C   UNL     1       5.632   4.649  16.176  0.00  0.00    +0.000 A 
ATOM     15  O   UNL     1       4.452   5.314  16.366  0.00  0.00    +0.000 OA
BRANCH  14  16
ATOM     16  C   UNL     1       6.074   4.504  14.792  0.00  0.00    +0.000 A 
ATOM     17  C   UNL     1       7.248   5.132  14.351  0.00  0.00    +0.000 A 
ATOM     18  C   UNL     1       7.704   4.958  13.041  0.00  0.00    +0.000 A 
ATOM     19  C   UNL     1       6.989   4.160  12.153  0.00  0.00    +0.000 A 
ATOM     20  C   UNL     1       5.812   3.543  12.567  0.00  0.00    +0.000 A 
ATOM     21  C   UNL     1       5.358   3.716  13.877  0.00  0.00    +0.000 A 
ENDBRANCH  14  16
ENDBRANCH   8  11
ENDBRANCH   3   7
BRANCH   6  22
ATOM     22  N   UNL     1      -0.839  10.658  20.689  0.00  0.00    +0.000 N 
ATOM     23  C   UNL     1      -0.665  11.894  21.286  0.00  0.00    +0.000 C 
ATOM     24  O   UNL     1       0.381  12.543  21.244  0.00  0.00    +0.000 OA
ATOM     25  H   UNL     1      -1.779  10.281  20.589  0.00  0.00    +0.000 HD
BRANCH  23  26
ATOM     26  C   UNL     1      -1.793  12.505  22.056  0.00  0.00    +0.000 A 
ATOM     27  C   UNL     1      -2.265  11.731  23.142  0.00  0.00    +0.000 A 
ATOM     28  C   UNL     1      -3.286  12.186  23.979  0.00  0.00    +0.000 A 
ATOM     29  C   UNL     1      -3.856  13.430  23.749  0.00  0.00    +0.000 A 
ATOM     30  C   UNL     1      -3.410  14.207  22.677  0.00  0.00    +0.000 A 
ATOM     31  C   UNL     1      -2.385  13.752  21.827  0.00  0.00    +0.000 A 
ATOM     32 CL   UNL     1      -1.906  14.825  20.562  0.00  0.00    +0.000 Cl
ENDBRANCH  23  26
ENDBRANCH   6  22
BRANCH   1  34
ATOM     33  C   UNL     1      -1.459  10.292  17.373  0.00  0.00    +0.000 C 
ATOM     34  O   UNL     1      -0.274  10.815  17.989  0.00  0.00    +0.000 OA
ENDBRANCH   1  34
TORSDOF 6
ENDMDL
MODEL 9
REMARK VINA RESULT:      -8.1      1.752      2.285
REMARK  Name = 
REMARK  7 active torsions:
REMARK  status: ('A' for Active; 'I' for Inactive)
REMARK    1  A    between atoms: C_1  and  O_2
REMARK    2  A    between atoms: O_2  and  C_3
REMARK    3  A    between atoms: C_5  and  N_6
REMARK    4  A    between atoms: C_7  and  C_9
REMARK    5  A    between atoms: C_12  and  C_13
REMARK    6  A    between atoms: C_22  and  N_23
REMARK    7  A    between atoms: C_24  and  C_26
REMARK                            x       y       z     vdW  Elec       q    Type
REMARK                         _______ _______ _______ _____ _____    ______ ____
ROOT
ATOM      1  C   UNL     1       0.532   9.755  18.992  0.00  0.00    +0.000 A 
ATOM      2  C   UNL     1       1.278   8.758  18.347  0.00  0.00    +0.000 A 
ATOM      3  C   UNL     1       1.908   7.737  19.055  0.00  0.00    +0.000 A 
ATOM      4  C   UNL     1       1.745   7.688  20.435  0.00  0.00    +0.000 A 
ATOM      5  C   UNL     1       0.961   8.647  21.089  0.00  0.00    +0.000 A 
ATOM      6  C   UNL     1       0.338   9.687  20.383  0.00  0.00    +0.000 A 
ENDROOT
BRANCH   3   7
ATOM      7  N   UNL     1       2.691   6.746  18.434  0.00  0.00    +0.000 N 
ATOM      8  C   UNL     1       3.890   6.939  17.763  0.00  0.00    +0.000 C 
ATOM      9  O   UNL     1       4.494   8.004  17.680  0.00  0.00    +0.000 OA
ATOM     10  H   UNL     1       2.386   5.782  18.507  0.00  0.00    +0.000 HD
BRANCH   8  11
ATOM     11  C   UNL     1       4.419   5.740  17.154  0.00  0.00    +0.000 A 
ATOM     12  C   UNL     1       4.420   4.435  17.600  0.00  0.00    +0.000 A 
ATOM     13  C   UNL     1       5.064   3.666  16.609  0.00  0.00    +0.000 A 
ATOM     14  C   UNL     1       5.422   4.539  15.601  0.00  0.00    +0.000 A 
ATOM     15  O   UNL     1       5.036   5.808  15.936  0.00  0.00    +0.000 OA
BRANCH  14  16
ATOM     16  C   UNL     1       6.070   4.385  14.301  0.00  0.00    +0.000 A 
ATOM     17  C   UNL     1       5.544   3.502  13.346  0.00  0.00    +0.000 A 
ATOM     18  C   UNL     1       6.129   3.385  12.082  0.00  0.00    +0.000 A 
ATOM     19  C   UNL     1       7.251   4.142  11.758  0.00  0.00    +0.000 A 
ATOM     20  C   UNL     1       7.797   5.011  12.700  0.00  0.00    +0.000 A 
ATOM     21  C   UNL     1       7.211   5.129  13.962  0.00  0.00    +0.000 A 
ENDBRANCH  14  16
ENDBRANCH   8  11
ENDBRANCH   3   7
BRANCH   6  22
ATOM     22  N   UNL     1      -0.508  10.635  21.020  0.00  0.00    +0.000 N 
ATOM     23  C   UNL     1      -0.103  11.826  21.597  0.00  0.00    +0.000 C 
ATOM     24  O   UNL     1       1.023  12.310  21.470  0.00  0.00    +0.000 OA
ATOM     25  H   UNL     1      -1.499  10.406  20.995  0.00  0.00    +0.000 HD
BRANCH  23  26
ATOM     26  C   UNL     1      -1.061  12.596  22.449  0.00  0.00    +0.000 A 
ATOM     27  C   UNL     1      -2.183  11.861  22.902  0.00  0.00    +0.000 A 
ATOM     28  C   UNL     1      -3.144  12.430  23.740  0.00  0.00    +0.000 A 
ATOM     29  C   UNL     1      -3.002  13.748  24.146  0.00  0.00    +0.000 A 
ATOM     30  C   UNL     1      -1.907  14.495  23.705  0.00  0.00    +0.000 A 
ATOM     31  C   UNL     1      -0.938  13.929  22.856  0.00  0.00    +0.000 A 
ATOM     32 CL   UNL     1       0.383  14.949  22.412  0.00  0.00    +0.000 Cl
ENDBRANCH  23  26
ENDBRANCH   6  22
BRANCH   1  34
ATOM     33  C   UNL     1      -1.300  10.539  17.721  0.00  0.00    +0.000 C 
ATOM     34  O   UNL     1      -0.020  10.816  18.307  0.00  0.00    +0.000 OA
ENDBRANCH   1  34
TORSDOF 6
ENDMDL
