MODEL 1
REMARK VINA RESULT:      -7.9      0.000      0.000
REMARK  Name = 
REMARK  12 active torsions:
REMARK  status: ('A' for Active; 'I' for Inactive)
REMARK    1  A    between atoms: C_1  and  C_2
REMARK    2  A    between atoms: C_2  and  C_3
REMARK    3  A    between atoms: C_2  and  C_4
REMARK    4  A    between atoms: C_4  and  N_5
REMARK    5  A    between atoms: N_5  and  S_6
REMARK    6  A    between atoms: S_6  and  C_9
REMARK    7  A    between atoms: C_12  and  C_13
REMARK    8  A    between atoms: C_13  and  C_14
REMARK    9  A    between atoms: C_14  and  C_15
REMARK   10  A    between atoms: N_17  and  C_18
REMARK   11  A    between atoms: C_18  and  C_19
REMARK   12  A    between atoms: C_19  and  C_20
REMARK                            x       y       z     vdW  Elec       q    Type
REMARK                         _______ _______ _______ _____ _____    ______ ____
ROOT
ATOM      1  C   UNL     1       5.575   5.358  16.660  0.00  0.00    +0.000 A 
ATOM      2  C   UNL     1       5.448   6.714  16.971  0.00  0.00    +0.000 A 
ATOM      3  C   UNL     1       4.291   7.163  17.616  0.00  0.00    +0.000 A 
ATOM      4  C   UNL     1       3.257   6.272  17.944  0.00  0.00    +0.000 A 
ATOM      5  C   UNL     1       3.407   4.913  17.629  0.00  0.00    +0.000 A 
ATOM      6  C   UNL     1       4.556   4.458  16.979  0.00  0.00    +0.000 A 
ENDROOT
BRANCH   1   7
ATOM      7  S   UNL     1       7.011   4.743  15.809  0.00  0.00    +0.000 S 
ATOM      8  O   UNL     1       7.876   4.108  16.787  0.00  0.00    +0.000 OA
ATOM      9  O   UNL     1       7.467   5.803  14.950  0.00  0.00    +0.000 OA
BRANCH   7  10
ATOM     10  N   UNL     1       6.342   3.515  14.817  0.00  0.00    +0.000 NA
ATOM     11  H   UNL     1       7.064   2.838  14.570  0.00  0.00    +0.000 HD
BRANCH  10  12
ATOM     12  C   UNL     1       5.617   4.026  13.640  0.00  0.00    +0.000 C 
BRANCH  12  14
ATOM     13  C   UNL     1       4.527   3.260  11.542  0.00  0.00    +0.000 C 
ATOM     14  C   UNL     1       5.781   3.123  12.413  0.00  0.00    +0.000 C 
ATOM     15  C   UNL     1       7.018   3.471  11.586  0.00  0.00    +0.000 C 
ENDBRANCH  12  14
ENDBRANCH  10  12
ENDBRANCH   7  10
ENDBRANCH   1   7
BRANCH   4  16
ATOM     16  C   UNL     1       2.016   6.762  18.658  0.00  0.00    +0.000 C 
BRANCH  16  17
ATOM     17  C   UNL     1       2.219   6.990  20.161  0.00  0.00    +0.000 C 
BRANCH  17  18
ATOM     18  C   UNL     1       1.528   8.257  20.623  0.00  0.00    +0.000 C 
ATOM     19  O   UNL     1       1.352   8.534  21.806  0.00  0.00    +0.000 OA
ATOM     20  N   UNL     1       1.126   9.084  19.591  0.00  0.00    +0.000 N 
ATOM     21  H   UNL     1       1.144   8.737  18.641  0.00  0.00    +0.000 HD
BRANCH  20  22
ATOM     22  C   UNL     1       0.431  10.325  19.901  0.00  0.00    +0.000 C 
BRANCH  22  23
ATOM     23  C   UNL     1       0.074  11.160  18.668  0.00  0.00    +0.000 C 
BRANCH  23  24
ATOM     24  C   UNL     1      -1.378  11.004  18.274  0.00  0.00    +0.000 A 
ATOM     25  C   UNL     1      -2.376  11.824  18.820  0.00  0.00    +0.000 A 
ATOM     26  C   UNL     1      -3.719  11.640  18.469  0.00  0.00    +0.000 A 
ATOM     27  C   UNL     1      -4.077  10.639  17.569  0.00  0.00    +0.000 A 
ATOM     28  C   UNL     1      -3.094   9.824  17.013  0.00  0.00    +0.000 A 
ATOM     29  C   UNL     1      -1.754  10.004  17.365  0.00  0.00    +0.000 A 
ENDBRANCH  23  24
ENDBRANCH  22  23
ENDBRANCH  20  22
ENDBRANCH  17  18
ENDBRANCH  16  17
ENDBRANCH   4  16
TORSDOF 10
ENDMDL
MODEL 2
REMARK VINA RESULT:      -7.7      4.097      8.944
REMARK  Name = 
REMARK  12 active torsions:
REMARK  status: ('A' for Active; 'I' for Inactive)
REMARK    1  A    between atoms: C_1  and  C_2
REMARK    2  A    between atoms: C_2  and  C_3
REMARK    3  A    between atoms: C_2  and  C_4
REMARK    4  A    between atoms: C_4  and  N_5
REMARK    5  A    between atoms: N_5  and  S_6
REMARK    6  A    between atoms: S_6  and  C_9
REMARK    7  A    between atoms: C_12  and  C_13
REMARK    8  A    between atoms: C_13  and  C_14
REMARK    9  A    between atoms: C_14  and  C_15
REMARK   10  A    between atoms: N_17  and  C_18
REMARK   11  A    between atoms: C_18  and  C_19
REMARK   12  A    between atoms: C_19  and  C_20
REMARK                            x       y       z     vdW  Elec       q    Type
REMARK                         _______ _______ _______ _____ _____    ______ ____
ROOT
ATOM      1  C   UNL     1       0.996  10.507  19.244  0.00  0.00    +0.000 A 
ATOM      2  C   UNL     1       1.615   9.838  18.185  0.00  0.00    +0.000 A 
ATOM      3  C   UNL     1       2.045   8.519  18.367  0.00  0.00    +0.000 A 
ATOM      4  C   UNL     1       1.872   7.868  19.598  0.00  0.00    +0.000 A 
ATOM      5  C   UNL     1       1.243   8.555  20.647  0.00  0.00    +0.000 A 
ATOM      6  C   UNL     1       0.816   9.873  20.476  0.00  0.00    +0.000 A 
ENDROOT
BRANCH   1   7
ATOM      7  S   UNL     1       0.463  12.196  19.076  0.00  0.00    +0.000 S 
ATOM      8  O   UNL     1       1.604  12.988  18.656  0.00  0.00    +0.000 OA
ATOM      9  O   UNL     1      -0.300  12.507  20.255  0.00  0.00    +0.000 OA
BRANCH   7  10
ATOM     10  N   UNL     1      -0.628  12.098  17.757  0.00  0.00    +0.000 NA
ATOM     11  H   UNL     1      -0.480  12.887  17.127  0.00  0.00    +0.000 HD
BRANCH  10  12
ATOM     12  C   UNL     1      -2.038  11.948  18.158  0.00  0.00    +0.000 C 
BRANCH  12  14
ATOM     13  C   UNL     1      -1.991   9.800  16.908  0.00  0.00    +0.000 C 
ATOM     14  C   UNL     1      -2.828  11.051  17.198  0.00  0.00    +0.000 C 
ATOM     15  C   UNL     1      -4.187  10.638  17.762  0.00  0.00    +0.000 C 
ENDBRANCH  12  14
ENDBRANCH  10  12
ENDBRANCH   7  10
ENDBRANCH   1   7
BRANCH   4  16
ATOM     16  C   UNL     1       2.324   6.435  19.780  0.00  0.00    +0.000 C 
BRANCH  16  17
ATOM     17  C   UNL     1       1.463   5.638  20.768  0.00  0.00    +0.000 C 
BRANCH  17  18
ATOM     18  C   UNL     1       1.470   4.160  20.435  0.00  0.00    +0.000 C 
ATOM     19  O   UNL     1       1.483   3.278  21.289  0.00  0.00    +0.000 OA
ATOM     20  N   UNL     1       1.444   3.891  19.080  0.00  0.00    +0.000 N 
ATOM     21  H   UNL     1       1.601   4.642  18.421  0.00  0.00    +0.000 HD
BRANCH  20  22
ATOM     22  C   UNL     1       1.468   2.508  18.626  0.00  0.00    +0.000 C 
BRANCH  22  23
ATOM     23  C   UNL     1       2.864   2.003  18.248  0.00  0.00    +0.000 C 
BRANCH  23  24
ATOM     24  C   UNL     1       3.852   3.135  18.072  0.00  0.00    +0.000 A 
ATOM     25  C   UNL     1       4.733   3.503  19.099  0.00  0.00    +0.000 A 
ATOM     26  C   UNL     1       5.616   4.576  18.929  0.00  0.00    +0.000 A 
ATOM     27  C   UNL     1       5.628   5.289  17.733  0.00  0.00    +0.000 A 
ATOM     28  C   UNL     1       4.763   4.929  16.702  0.00  0.00    +0.000 A 
ATOM     29  C   UNL     1       3.880   3.860  16.872  0.00  0.00    +0.000 A 
ENDBRANCH  23  24
ENDBRANCH  22  23
ENDBRANCH  20  22
ENDBRANCH  17  18
ENDBRANCH  16  17
ENDBRANCH   4  16
TORSDOF 10
ENDMDL
MODEL 3
REMARK VINA RESULT:      -7.7      0.824      1.241
REMARK  Name = 
REMARK  12 active torsions:
REMARK  status: ('A' for Active; 'I' for Inactive)
REMARK    1  A    between atoms: C_1  and  C_2
REMARK    2  A    between atoms: C_2  and  C_3
REMARK    3  A    between atoms: C_2  and  C_4
REMARK    4  A    between atoms: C_4  and  N_5
REMARK    5  A    between atoms: N_5  and  S_6
REMARK    6  A    between atoms: S_6  and  C_9
REMARK    7  A    between atoms: C_12  and  C_13
REMARK    8  A    between atoms: C_13  and  C_14
REMARK    9  A    between atoms: C_14  and  C_15
REMARK   10  A    between atoms: N_17  and  C_18
REMARK   11  A    between atoms: C_18  and  C_19
REMARK   12  A    between atoms: C_19  and  C_20
REMARK                            x       y       z     vdW  Elec       q    Type
REMARK                         _______ _______ _______ _____ _____    ______ ____
ROOT
ATOM      1  C   UNL     1       5.437   5.293  16.277  0.00  0.00    +0.000 A 
ATOM      2  C   UNL     1       5.229   6.627  16.632  0.00  0.00    +0.000 A 
ATOM      3  C   UNL     1       4.103   6.966  17.389  0.00  0.00    +0.000 A 
ATOM      4  C   UNL     1       3.179   5.986  17.784  0.00  0.00    +0.000 A 
ATOM      5  C   UNL     1       3.409   4.651  17.423  0.00  0.00    +0.000 A 
ATOM      6  C   UNL     1       4.528   4.305  16.662  0.00  0.00    +0.000 A 
ENDROOT
BRANCH   1   7
ATOM      7  S   UNL     1       6.835   4.814  15.286  0.00  0.00    +0.000 S 
ATOM      8  O   UNL     1       7.872   4.326  16.176  0.00  0.00    +0.000 OA
ATOM      9  O   UNL     1       7.064   5.884  14.351  0.00  0.00    +0.000 OA
BRANCH   7  10
ATOM     10  N   UNL     1       6.215   3.477  14.410  0.00  0.00    +0.000 NA
ATOM     11  H   UNL     1       6.609   2.611  14.778  0.00  0.00    +0.000 HD
BRANCH  10  12
ATOM     12  C   UNL     1       6.369   3.596  12.950  0.00  0.00    +0.000 C 
BRANCH  12  14
ATOM     13  C   UNL     1       4.354   3.265  11.532  0.00  0.00    +0.000 C 
ATOM     14  C   UNL     1       5.543   2.553  12.187  0.00  0.00    +0.000 C 
ATOM     15  C   UNL     1       6.357   1.827  11.117  0.00  0.00    +0.000 C 
ENDBRANCH  12  14
ENDBRANCH  10  12
ENDBRANCH   7  10
ENDBRANCH   1   7
BRANCH   4  16
ATOM     16  C   UNL     1       1.972   6.358  18.618  0.00  0.00    +0.000 C 
BRANCH  16  17
ATOM     17  C   UNL     1       2.326   7.047  19.942  0.00  0.00    +0.000 C 
BRANCH  17  18
ATOM     18  C   UNL     1       1.611   8.376  20.079  0.00  0.00    +0.000 C 
ATOM     19  O   UNL     1       1.362   8.899  21.162  0.00  0.00    +0.000 OA
ATOM     20  N   UNL     1       1.278   8.959  18.870  0.00  0.00    +0.000 N 
ATOM     21  H   UNL     1       1.354   8.418  18.019  0.00  0.00    +0.000 HD
BRANCH  20  22
ATOM     22  C   UNL     1       0.569  10.231  18.863  0.00  0.00    +0.000 C 
BRANCH  22  23
ATOM     23  C   UNL     1      -0.889  10.130  19.320  0.00  0.00    +0.000 C 
BRANCH  23  24
ATOM     24  C   UNL     1      -1.861  10.391  18.191  0.00  0.00    +0.000 A 
ATOM     25  C   UNL     1      -1.664   9.843  16.915  0.00  0.00    +0.000 A 
ATOM     26  C   UNL     1      -2.555  10.125  15.873  0.00  0.00    +0.000 A 
ATOM     27  C   UNL     1      -3.652  10.954  16.096  0.00  0.00    +0.000 A 
ATOM     28  C   UNL     1      -3.864  11.499  17.361  0.00  0.00    +0.000 A 
ATOM     29  C   UNL     1      -2.973  11.221  18.400  0.00  0.00    +0.000 A 
ENDBRANCH  23  24
ENDBRANCH  22  23
ENDBRANCH  20  22
ENDBRANCH  17  18
ENDBRANCH  16  17
ENDBRANCH   4  16
TORSDOF 10
ENDMDL
MODEL 4
REMARK VINA RESULT:      -7.7      3.375      8.971
REMARK  Name = 
REMARK  12 active torsions:
REMARK  status: ('A' for Active; 'I' for Inactive)
REMARK    1  A    between atoms: C_1  and  C_2
REMARK    2  A    between atoms: C_2  and  C_3
REMARK    3  A    between atoms: C_2  and  C_4
REMARK    4  A    between atoms: C_4  and  N_5
REMARK    5  A    between atoms: N_5  and  S_6
REMARK    6  A    between atoms: S_6  and  C_9
REMARK    7  A    between atoms: C_12  and  C_13
REMARK    8  A    between atoms: C_13  and  C_14
REMARK    9  A    between atoms: C_14  and  C_15
REMARK   10  A    between atoms: N_17  and  C_18
REMARK   11  A    between atoms: C_18  and  C_19
REMARK   12  A    between atoms: C_19  and  C_20
REMARK                            x       y       z     vdW  Elec       q    Type
REMARK                         _______ _______ _______ _____ _____    ______ ____
ROOT
ATOM      1  C   UNL     1       0.658  10.070  19.193  0.00  0.00    +0.000 A 
ATOM      2  C   UNL     1       1.192   9.776  17.937  0.00  0.00    +0.000 A 
ATOM      3  C   UNL     1       1.988   8.636  17.781  0.00  0.00    +0.000 A 
ATOM      4  C   UNL     1       2.262   7.795  18.870  0.00  0.00    +0.000 A 
ATOM      5  C   UNL     1       1.710   8.103  20.122  0.00  0.00    +0.000 A 
ATOM      6  C   UNL     1       0.920   9.243  20.288  0.00  0.00    +0.000 A 
ENDROOT
BRANCH   1   7
ATOM      7  S   UNL     1      -0.331  11.526  19.452  0.00  0.00    +0.000 S 
ATOM      8  O   UNL     1       0.566  12.644  19.680  0.00  0.00    +0.000 OA
ATOM      9  O   UNL     1      -1.364  11.163  20.385  0.00  0.00    +0.000 OA
BRANCH   7  10
ATOM     10  N   UNL     1      -1.064  11.740  17.917  0.00  0.00    +0.000 NA
ATOM     11  H   UNL     1      -0.585  12.482  17.406  0.00  0.00    +0.000 HD
BRANCH  10  12
ATOM     12  C   UNL     1      -2.523  11.940  17.974  0.00  0.00    +0.000 C 
BRANCH  12  14
ATOM     13  C   UNL     1      -2.760  10.954  15.704  0.00  0.00    +0.000 C 
ATOM     14  C   UNL     1      -3.289  10.905  17.142  0.00  0.00    +0.000 C 
ATOM     15  C   UNL     1      -3.146   9.487  17.692  0.00  0.00    +0.000 C 
ENDBRANCH  12  14
ENDBRANCH  10  12
ENDBRANCH   7  10
ENDBRANCH   1   7
BRANCH   4  16
ATOM     16  C   UNL     1       3.109   6.553  18.689  0.00  0.00    +0.000 C 
BRANCH  16  17
ATOM     17  C   UNL     1       4.176   6.688  17.596  0.00  0.00    +0.000 C 
BRANCH  17  18
ATOM     18  C   UNL     1       4.509   5.343  16.984  0.00  0.00    +0.000 C 
ATOM     19  O   UNL     1       5.076   5.217  15.902  0.00  0.00    +0.000 OA
ATOM     20  N   UNL     1       4.133   4.265  17.763  0.00  0.00    +0.000 N 
ATOM     21  H   UNL     1       3.527   4.414  18.559  0.00  0.00    +0.000 HD
BRANCH  20  22
ATOM     22  C   UNL     1       4.379   2.914  17.279  0.00  0.00    +0.000 C 
BRANCH  22  23
ATOM     23  C   UNL     1       3.420   1.866  17.850  0.00  0.00    +0.000 C 
BRANCH  23  24
ATOM     24  C   UNL     1       2.670   2.378  19.060  0.00  0.00    +0.000 A 
ATOM     25  C   UNL     1       1.356   2.855  18.958  0.00  0.00    +0.000 A 
ATOM     26  C   UNL     1       0.691   3.357  20.083  0.00  0.00    +0.000 A 
ATOM     27  C   UNL     1       1.332   3.385  21.320  0.00  0.00    +0.000 A 
ATOM     28  C   UNL     1       2.635   2.906  21.436  0.00  0.00    +0.000 A 
ATOM     29  C   UNL     1       3.300   2.408  20.313  0.00  0.00    +0.000 A 
ENDBRANCH  23  24
ENDBRANCH  22  23
ENDBRANCH  20  22
ENDBRANCH  17  18
ENDBRANCH  16  17
ENDBRANCH   4  16
TORSDOF 10
ENDMDL
MODEL 5
REMARK VINA RESULT:      -7.6      3.438      8.824
REMARK  Name = 
REMARK  12 active torsions:
REMARK  status: ('A' for Active; 'I' for Inactive)
REMARK    1  A    between atoms: C_1  and  C_2
REMARK    2  A    between atoms: C_2  and  C_3
REMARK    3  A    between atoms: C_2  and  C_4
REMARK    4  A    between atoms: C_4  and  N_5
REMARK    5  A    between atoms: N_5  and  S_6
REMARK    6  A    between atoms: S_6  and  C_9
REMARK    7  A    between atoms: C_12  and  C_13
REMARK    8  A    between atoms: C_13  and  C_14
REMARK    9  A    between atoms: C_14  and  C_15
REMARK   10  A    between atoms: N_17  and  C_18
REMARK   11  A    between atoms: C_18  and  C_19
REMARK   12  A    between atoms: C_19  and  C_20
REMARK                            x       y       z     vdW  Elec       q    Type
REMARK                         _______ _______ _______ _____ _____    ______ ____
ROOT
ATOM      1  C   UNL     1       1.109   9.853  19.462  0.00  0.00    +0.000 A 
ATOM      2  C   UNL     1       1.320   8.778  20.328  0.00  0.00    +0.000 A 
ATOM      3  C   UNL     1       1.933   7.618  19.842  0.00  0.00    +0.000 A 
ATOM      4  C   UNL     1       2.328   7.520  18.499  0.00  0.00    +0.000 A 
ATOM      5  C   UNL     1       2.114   8.614  17.647  0.00  0.00    +0.000 A 
ATOM      6  C   UNL     1       1.497   9.773  18.123  0.00  0.00    +0.000 A 
ENDROOT
BRANCH   1   7
ATOM      7  S   UNL     1       0.302  11.337  20.022  0.00  0.00    +0.000 S 
ATOM      8  O   UNL     1       0.798  12.446  19.227  0.00  0.00    +0.000 OA
ATOM      9  O   UNL     1       0.371  11.327  21.459  0.00  0.00    +0.000 OA
BRANCH   7  10
ATOM     10  N   UNL     1      -1.327  11.050  19.574  0.00  0.00    +0.000 NA
ATOM     11  H   UNL     1      -1.539  10.056  19.659  0.00  0.00    +0.000 HD
BRANCH  10  12
ATOM     12  C   UNL     1      -1.689  11.597  18.254  0.00  0.00    +0.000 C 
BRANCH  12  14
ATOM     13  C   UNL     1      -3.099   9.580  17.903  0.00  0.00    +0.000 C 
ATOM     14  C   UNL     1      -2.063  10.502  17.248  0.00  0.00    +0.000 C 
ATOM     15  C   UNL     1      -2.631  11.067  15.947  0.00  0.00    +0.000 C 
ENDBRANCH  12  14
ENDBRANCH  10  12
ENDBRANCH   7  10
ENDBRANCH   1   7
BRANCH   4  16
ATOM     16  C   UNL     1       3.007   6.269  17.986  0.00  0.00    +0.000 C 
BRANCH  16  17
ATOM     17  C   UNL     1       4.480   6.155  18.395  0.00  0.00    +0.000 C 
BRANCH  17  18
ATOM     18  C   UNL     1       4.946   4.713  18.380  0.00  0.00    +0.000 C 
ATOM     19  O   UNL     1       5.912   4.311  19.021  0.00  0.00    +0.000 OA
ATOM     20  N   UNL     1       4.172   3.883  17.591  0.00  0.00    +0.000 N 
ATOM     21  H   UNL     1       3.494   4.289  16.958  0.00  0.00    +0.000 HD
BRANCH  20  22
ATOM     22  C   UNL     1       4.525   2.476  17.474  0.00  0.00    +0.000 C 
BRANCH  22  23
ATOM     23  C   UNL     1       3.508   1.526  18.115  0.00  0.00    +0.000 C 
BRANCH  23  24
ATOM     24  C   UNL     1       2.695   2.205  19.195  0.00  0.00    +0.000 A 
ATOM     25  C   UNL     1       1.414   2.714  18.935  0.00  0.00    +0.000 A 
ATOM     26  C   UNL     1       0.692   3.370  19.939  0.00  0.00    +0.000 A 
ATOM     27  C   UNL     1       1.240   3.522  21.210  0.00  0.00    +0.000 A 
ATOM     28  C   UNL     1       2.508   3.014  21.483  0.00  0.00    +0.000 A 
ATOM     29  C   UNL     1       3.231   2.362  20.482  0.00  0.00    +0.000 A 
ENDBRANCH  23  24
ENDBRANCH  22  23
ENDBRANCH  20  22
ENDBRANCH  17  18
ENDBRANCH  16  17
ENDBRANCH   4  16
TORSDOF 10
ENDMDL
MODEL 6
REMARK VINA RESULT:      -7.6      2.771      3.712
REMARK  Name = 
REMARK  12 active torsions:
REMARK  status: ('A' for Active; 'I' for Inactive)
REMARK    1  A    between atoms: C_1  and  C_2
REMARK    2  A    between atoms: C_2  and  C_3
REMARK    3  A    between atoms: C_2  and  C_4
REMARK    4  A    between atoms: C_4  and  N_5
REMARK    5  A    between atoms: N_5  and  S_6
REMARK    6  A    between atoms: S_6  and  C_9
REMARK    7  A    between atoms: C_12  and  C_13
REMARK    8  A    between atoms: C_13  and  C_14
REMARK    9  A    between atoms: C_14  and  C_15
REMARK   10  A    between atoms: N_17  and  C_18
REMARK   11  A    between atoms: C_18  and  C_19
REMARK   12  A    between atoms: C_19  and  C_20
REMARK                            x       y       z     vdW  Elec       q    Type
REMARK                         _______ _______ _______ _____ _____    ______ ____
ROOT
ATOM      1  C   UNL     1       5.745   5.600  16.839  0.00  0.00    +0.000 A 
ATOM      2  C   UNL     1       5.243   6.806  16.344  0.00  0.00    +0.000 A 
ATOM      3  C   UNL     1       4.142   7.398  16.971  0.00  0.00    +0.000 A 
ATOM      4  C   UNL     1       3.533   6.792  18.081  0.00  0.00    +0.000 A 
ATOM      5  C   UNL     1       4.056   5.585  18.567  0.00  0.00    +0.000 A 
ATOM      6  C   UNL     1       5.151   4.984  17.943  0.00  0.00    +0.000 A 
ENDROOT
BRANCH   1   7
ATOM      7  S   UNL     1       7.121   4.789  16.057  0.00  0.00    +0.000 S 
ATOM      8  O   UNL     1       7.920   4.159  17.092  0.00  0.00    +0.000 OA
ATOM      9  O   UNL     1       7.676   5.728  15.119  0.00  0.00    +0.000 OA
BRANCH   7  10
ATOM     10  N   UNL     1       6.345   3.550  15.160  0.00  0.00    +0.000 NA
ATOM     11  H   UNL     1       7.016   2.815  14.934  0.00  0.00    +0.000 HD
BRANCH  10  12
ATOM     12  C   UNL     1       5.616   4.037  13.976  0.00  0.00    +0.000 C 
BRANCH  12  14
ATOM     13  C   UNL     1       4.900   3.154  11.765  0.00  0.00    +0.000 C 
ATOM     14  C   UNL     1       6.110   3.390  12.676  0.00  0.00    +0.000 C 
ATOM     15  C   UNL     1       7.141   4.250  11.946  0.00  0.00    +0.000 C 
ENDBRANCH  12  14
ENDBRANCH  10  12
ENDBRANCH   7  10
ENDBRANCH   1   7
BRANCH   4  16
ATOM     16  C   UNL     1       2.353   7.449  18.765  0.00  0.00    +0.000 C 
BRANCH  16  17
ATOM     17  C   UNL     1       1.677   8.536  17.920  0.00  0.00    +0.000 C 
BRANCH  17  18
ATOM     18  C   UNL     1       1.378   9.769  18.747  0.00  0.00    +0.000 C 
ATOM     19  O   UNL     1       1.053   9.724  19.930  0.00  0.00    +0.000 OA
ATOM     20  N   UNL     1       1.520  10.957  18.053  0.00  0.00    +0.000 N 
ATOM     21  H   UNL     1       1.626  10.935  17.047  0.00  0.00    +0.000 HD
BRANCH  20  22
ATOM     22  C   UNL     1       1.242  12.216  18.729  0.00  0.00    +0.000 C 
BRANCH  22  23
ATOM     23  C   UNL     1       2.491  13.055  19.016  0.00  0.00    +0.000 C 
BRANCH  23  24
ATOM     24  C   UNL     1       2.328  14.492  18.573  0.00  0.00    +0.000 A 
ATOM     25  C   UNL     1       3.309  15.138  17.808  0.00  0.00    +0.000 A 
ATOM     26  C   UNL     1       3.155  16.479  17.438  0.00  0.00    +0.000 A 
ATOM     27  C   UNL     1       2.020  17.186  17.828  0.00  0.00    +0.000 A 
ATOM     28  C   UNL     1       1.034  16.554  18.582  0.00  0.00    +0.000 A 
ATOM     29  C   UNL     1       1.188  15.216  18.954  0.00  0.00    +0.000 A 
ENDBRANCH  23  24
ENDBRANCH  22  23
ENDBRANCH  20  22
ENDBRANCH  17  18
ENDBRANCH  16  17
ENDBRANCH   4  16
TORSDOF 10
ENDMDL
MODEL 7
REMARK VINA RESULT:      -7.5      3.553      9.319
REMARK  Name = 
REMARK  12 active torsions:
REMARK  status: ('A' for Active; 'I' for Inactive)
REMARK    1  A    between atoms: C_1  and  C_2
REMARK    2  A    between atoms: C_2  and  C_3
REMARK    3  A    between atoms: C_2  and  C_4
REMARK    4  A    between atoms: C_4  and  N_5
REMARK    5  A    between atoms: N_5  and  S_6
REMARK    6  A    between atoms: S_6  and  C_9
REMARK    7  A    between atoms: C_12  and  C_13
REMARK    8  A    between atoms: C_13  and  C_14
REMARK    9  A    between atoms: C_14  and  C_15
REMARK   10  A    between atoms: N_17  and  C_18
REMARK   11  A    between atoms: C_18  and  C_19
REMARK   12  A    between atoms: C_19  and  C_20
REMARK                            x       y       z     vdW  Elec       q    Type
REMARK                         _______ _______ _______ _____ _____    ______ ____
ROOT
ATOM      1  C   UNL     1       0.983   9.022  20.956  0.00  0.00    +0.000 A 
ATOM      2  C   UNL     1       0.973   9.768  19.775  0.00  0.00    +0.000 A 
ATOM      3  C   UNL     1       1.562   9.235  18.624  0.00  0.00    +0.000 A 
ATOM      4  C   UNL     1       2.170   7.971  18.645  0.00  0.00    +0.000 A 
ATOM      5  C   UNL     1       2.164   7.234  19.839  0.00  0.00    +0.000 A 
ATOM      6  C   UNL     1       1.583   7.761  20.994  0.00  0.00    +0.000 A 
ENDROOT
BRANCH   1   7
ATOM      7  S   UNL     1       0.279   9.668  22.456  0.00  0.00    +0.000 S 
ATOM      8  O   UNL     1       1.287   9.589  23.497  0.00  0.00    +0.000 OA
ATOM      9  O   UNL     1      -1.021   9.066  22.594  0.00  0.00    +0.000 OA
BRANCH   7  10
ATOM     10  N   UNL     1       0.051  11.321  22.063  0.00  0.00    +0.000 NA
ATOM     11  H   UNL     1       0.558  11.907  22.726  0.00  0.00    +0.000 HD
BRANCH  10  12
ATOM     12  C   UNL     1      -1.363  11.713  21.925  0.00  0.00    +0.000 C 
BRANCH  12  14
ATOM     13  C   UNL     1      -2.044  11.938  19.545  0.00  0.00    +0.000 C 
ATOM     14  C   UNL     1      -1.586  12.714  20.786  0.00  0.00    +0.000 C 
ATOM     15  C   UNL     1      -2.622  13.781  21.133  0.00  0.00    +0.000 C 
ENDBRANCH  12  14
ENDBRANCH  10  12
ENDBRANCH   7  10
ENDBRANCH   1   7
BRANCH   4  16
ATOM     16  C   UNL     1       2.790   7.394  17.390  0.00  0.00    +0.000 C 
BRANCH  16  17
ATOM     17  C   UNL     1       4.299   7.144  17.506  0.00  0.00    +0.000 C 
BRANCH  17  18
ATOM     18  C   UNL     1       4.590   5.710  17.897  0.00  0.00    +0.000 C 
ATOM     19  O   UNL     1       5.140   5.397  18.949  0.00  0.00    +0.000 OA
ATOM     20  N   UNL     1       4.166   4.779  16.966  0.00  0.00    +0.000 N 
ATOM     21  H   UNL     1       3.872   5.091  16.050  0.00  0.00    +0.000 HD
BRANCH  20  22
ATOM     22  C   UNL     1       4.405   3.364  17.212  0.00  0.00    +0.000 C 
BRANCH  22  23
ATOM     23  C   UNL     1       3.131   2.560  17.490  0.00  0.00    +0.000 C 
BRANCH  23  24
ATOM     24  C   UNL     1       2.550   2.863  18.852  0.00  0.00    +0.000 A 
ATOM     25  C   UNL     1       1.364   3.598  18.994  0.00  0.00    +0.000 A 
ATOM     26  C   UNL     1       0.860   3.899  20.266  0.00  0.00    +0.000 A 
ATOM     27  C   UNL     1       1.535   3.467  21.405  0.00  0.00    +0.000 A 
ATOM     28  C   UNL     1       2.709   2.728  21.278  0.00  0.00    +0.000 A 
ATOM     29  C   UNL     1       3.214   2.431  20.010  0.00  0.00    +0.000 A 
ENDBRANCH  23  24
ENDBRANCH  22  23
ENDBRANCH  20  22
ENDBRANCH  17  18
ENDBRANCH  16  17
ENDBRANCH   4  16
TORSDOF 10
ENDMDL
MODEL 8
REMARK VINA RESULT:      -7.3      2.613      3.770
REMARK  Name = 
REMARK  12 active torsions:
REMARK  status: ('A' for Active; 'I' for Inactive)
REMARK    1  A    between atoms: C_1  and  C_2
REMARK    2  A    between atoms: C_2  and  C_3
REMARK    3  A    between atoms: C_2  and  C_4
REMARK    4  A    between atoms: C_4  and  N_5
REMARK    5  A    between atoms: N_5  and  S_6
REMARK    6  A    between atoms: S_6  and  C_9
REMARK    7  A    between atoms: C_12  and  C_13
REMARK    8  A    between atoms: C_13  and  C_14
REMARK    9  A    between atoms: C_14  and  C_15
REMARK   10  A    between atoms: N_17  and  C_18
REMARK   11  A    between atoms: C_18  and  C_19
REMARK   12  A    between atoms: C_19  and  C_20
REMARK                            x       y       z     vdW  Elec       q    Type
REMARK                         _______ _______ _______ _____ _____    ______ ____
ROOT
ATOM      1  C   UNL     1       5.083   4.681  17.500  0.00  0.00    +0.000 A 
ATOM      2  C   UNL     1       5.260   3.625  18.397  0.00  0.00    +0.000 A 
ATOM      3  C   UNL     1       4.152   2.864  18.785  0.00  0.00    +0.000 A 
ATOM      4  C   UNL     1       2.870   3.154  18.293  0.00  0.00    +0.000 A 
ATOM      5  C   UNL     1       2.715   4.214  17.388  0.00  0.00    +0.000 A 
ATOM      6  C   UNL     1       3.814   4.983  17.000  0.00  0.00    +0.000 A 
ENDROOT
BRANCH   1   7
ATOM      7  S   UNL     1       6.452   5.701  17.002  0.00  0.00    +0.000 S 
ATOM      8  O   UNL     1       7.293   5.924  18.163  0.00  0.00    +0.000 OA
ATOM      9  O   UNL     1       5.902   6.783  16.230  0.00  0.00    +0.000 OA
BRANCH   7  10
ATOM     10  N   UNL     1       7.298   4.668  15.926  0.00  0.00    +0.000 NA
ATOM     11  H   UNL     1       8.266   4.567  16.233  0.00  0.00    +0.000 HD
BRANCH  10  12
ATOM     12  C   UNL     1       7.189   5.061  14.510  0.00  0.00    +0.000 C 
BRANCH  12  14
ATOM     13  C   UNL     1       5.097   3.933  13.781  0.00  0.00    +0.000 C 
ATOM     14  C   UNL     1       6.623   3.939  13.632  0.00  0.00    +0.000 C 
ATOM     15  C   UNL     1       6.993   4.102  12.158  0.00  0.00    +0.000 C 
ENDBRANCH  12  14
ENDBRANCH  10  12
ENDBRANCH   7  10
ENDBRANCH   1   7
BRANCH   4  16
ATOM     16  C   UNL     1       1.680   2.314  18.704  0.00  0.00    +0.000 C 
BRANCH  16  17
ATOM     17  C   UNL     1       1.471   2.242  20.222  0.00  0.00    +0.000 C 
BRANCH  17  18
ATOM     18  C   UNL     1       1.765   3.574  20.882  0.00  0.00    +0.000 C 
ATOM     19  O   UNL     1       2.534   3.701  21.830  0.00  0.00    +0.000 OA
ATOM     20  N   UNL     1       1.100   4.641  20.308  0.00  0.00    +0.000 N 
ATOM     21  H   UNL     1       0.357   4.465  19.643  0.00  0.00    +0.000 HD
BRANCH  20  22
ATOM     22  C   UNL     1       1.280   5.976  20.862  0.00  0.00    +0.000 C 
BRANCH  22  23
ATOM     23  C   UNL     1       2.369   6.795  20.163  0.00  0.00    +0.000 C 
BRANCH  23  24
ATOM     24  C   UNL     1       1.836   8.096  19.606  0.00  0.00    +0.000 A 
ATOM     25  C   UNL     1       2.102   8.489  18.286  0.00  0.00    +0.000 A 
ATOM     26  C   UNL     1       1.630   9.714  17.799  0.00  0.00    +0.000 A 
ATOM     27  C   UNL     1       0.885  10.554  18.624  0.00  0.00    +0.000 A 
ATOM     28  C   UNL     1       0.607  10.171  19.934  0.00  0.00    +0.000 A 
ATOM     29  C   UNL     1       1.081   8.951  20.422  0.00  0.00    +0.000 A 
ENDBRANCH  23  24
ENDBRANCH  22  23
ENDBRANCH  20  22
ENDBRANCH  17  18
ENDBRANCH  16  17
ENDBRANCH   4  16
TORSDOF 10
ENDMDL
MODEL 9
REMARK VINA RESULT:      -7.3      4.014     10.072
REMARK  Name = 
REMARK  12 active torsions:
REMARK  status: ('A' for Active; 'I' for Inactive)
REMARK    1  A    between atoms: C_1  and  C_2
REMARK    2  A    between atoms: C_2  and  C_3
REMARK    3  A    between atoms: C_2  and  C_4
REMARK    4  A    between atoms: C_4  and  N_5
REMARK    5  A    between atoms: N_5  and  S_6
REMARK    6  A    between atoms: S_6  and  C_9
REMARK    7  A    between atoms: C_12  and  C_13
REMARK    8  A    between atoms: C_13  and  C_14
REMARK    9  A    between atoms: C_14  and  C_15
REMARK   10  A    between atoms: N_17  and  C_18
REMARK   11  A    between atoms: C_18  and  C_19
REMARK   12  A    between atoms: C_19  and  C_20
REMARK                            x       y       z     vdW  Elec       q    Type
REMARK                         _______ _______ _______ _____ _____    ______ ____
ROOT
ATOM      1  C   UNL     1       1.040  10.830  19.516  0.00  0.00    +0.000 A 
ATOM      2  C   UNL     1       0.937   9.729  20.369  0.00  0.00    +0.000 A 
ATOM      3  C   UNL     1       1.422   8.487  19.944  0.00  0.00    +0.000 A 
ATOM      4  C   UNL     1       1.998   8.335  18.673  0.00  0.00    +0.000 A 
ATOM      5  C   UNL     1       2.099   9.456  17.835  0.00  0.00    +0.000 A 
ATOM      6  C   UNL     1       1.611  10.697  18.248  0.00  0.00    +0.000 A 
ENDROOT
BRANCH   1   7
ATOM      7  S   UNL     1       0.407  12.423  19.995  0.00  0.00    +0.000 S 
ATOM      8  O   UNL     1      -0.967  12.516  19.538  0.00  0.00    +0.000 OA
ATOM      9  O   UNL     1       1.408  13.391  19.632  0.00  0.00    +0.000 OA
BRANCH   7  10
ATOM     10  N   UNL     1       0.390  12.303  21.705  0.00  0.00    +0.000 NA
ATOM     11  H   UNL     1       0.485  11.327  21.984  0.00  0.00    +0.000 HD
BRANCH  10  12
ATOM     12  C   UNL     1      -0.763  12.966  22.339  0.00  0.00    +0.000 C 
BRANCH  12  14
ATOM     13  C   UNL     1      -3.005  12.239  23.131  0.00  0.00    +0.000 C 
ATOM     14  C   UNL     1      -1.496  12.049  23.326  0.00  0.00    +0.000 C 
ATOM     15  C   UNL     1      -1.138  10.576  23.138  0.00  0.00    +0.000 C 
ENDBRANCH  12  14
ENDBRANCH  10  12
ENDBRANCH   7  10
ENDBRANCH   1   7
BRANCH   4  16
ATOM     16  C   UNL     1       2.537   6.993  18.228  0.00  0.00    +0.000 C 
BRANCH  16  17
ATOM     17  C   UNL     1       2.848   6.038  19.387  0.00  0.00    +0.000 C 
BRANCH  17  18
ATOM     18  C   UNL     1       3.612   4.821  18.908  0.00  0.00    +0.000 C 
ATOM     19  O   UNL     1       3.993   3.926  19.657  0.00  0.00    +0.000 OA
ATOM     20  N   UNL     1       3.827   4.797  17.542  0.00  0.00    +0.000 N 
ATOM     21  H   UNL     1       3.642   5.628  16.995  0.00  0.00    +0.000 HD
BRANCH  20  22
ATOM     22  C   UNL     1       4.568   3.690  16.955  0.00  0.00    +0.000 C 
BRANCH  22  23
ATOM     23  C   UNL     1       5.862   4.112  16.253  0.00  0.00    +0.000 C 
BRANCH  23  24
ATOM     24  C   UNL     1       6.651   5.115  17.065  0.00  0.00    +0.000 A 
ATOM     25  C   UNL     1       7.281   4.753  18.264  0.00  0.00    +0.000 A 
ATOM     26  C   UNL     1       7.977   5.704  19.019  0.00  0.00    +0.000 A 
ATOM     27  C   UNL     1       8.051   7.025  18.582  0.00  0.00    +0.000 A 
ATOM     28  C   UNL     1       7.436   7.397  17.389  0.00  0.00    +0.000 A 
ATOM     29  C   UNL     1       6.739   6.448  16.637  0.00  0.00    +0.000 A 
ENDBRANCH  23  24
ENDBRANCH  22  23
ENDBRANCH  20  22
ENDBRANCH  17  18
ENDBRANCH  16  17
ENDBRANCH   4  16
TORSDOF 10
ENDMDL
