MODEL 1
REMARK VINA RESULT:      -4.7      0.000      0.000
REMARK  Name = 
REMARK  4 active torsions:
REMARK  status: ('A' for Active; 'I' for Inactive)
REMARK    1  A    between atoms: N_1  and  C_2
REMARK    2  A    between atoms: C_2  and  C_3
REMARK    3  A    between atoms: C_7  and  C_8
REMARK    4  A    between atoms: C_8  and  O_10
REMARK                            x       y       z     vdW  Elec       q    Type
REMARK                         _______ _______ _______ _____ _____    ______ ____
ROOT
ATOM      1  C   UNL     1       6.202   4.597  17.504  0.00  0.00    +0.000 A 
ATOM      2  C   UNL     1       4.918   4.111  17.324  0.00  0.00    +0.000 A 
ATOM      3  S   UNL     1       3.888   4.438  18.641  0.00  0.00    +0.000 S 
ATOM      4  C   UNL     1       5.135   5.250  19.477  0.00  0.00    +0.000 A 
ATOM      5  C   UNL     1       6.341   5.253  18.794  0.00  0.00    +0.000 A 
ENDROOT
BRANCH   5   6
ATOM      6  C   UNL     1       7.563   5.886  19.298  0.00  0.00    +0.000 C 
ATOM      7  O   UNL     1       8.130   6.810  18.731  0.00  0.00    +0.000 OA
BRANCH   6   8
ATOM      8  O   UNL     1       8.057   5.352  20.446  0.00  0.00    +0.000 OA
ATOM      9  H   UNL     1       7.725   4.455  20.628  0.00  0.00    +0.000 HD
ENDBRANCH   6   8
ENDBRANCH   5   6
BRANCH   1  10
ATOM     10  C   UNL     1       7.286   4.448  16.478  0.00  0.00    +0.000 C 
BRANCH  10  11
ATOM     11  N   UNL     1       7.310   5.662  15.677  0.00  0.00    +0.000 NA
ATOM     12  H   UNL     1       6.655   6.330  16.078  0.00  0.00    +0.000 HD
ATOM     13  H   UNL     1       6.930   5.442  14.755  0.00  0.00    +0.000 HD
ENDBRANCH  10  11
ENDBRANCH   1  10
TORSDOF 4
ENDMDL
MODEL 2
REMARK VINA RESULT:      -4.6      4.406      5.193
REMARK  Name = 
REMARK  4 active torsions:
REMARK  status: ('A' for Active; 'I' for Inactive)
REMARK    1  A    between atoms: N_1  and  C_2
REMARK    2  A    between atoms: C_2  and  C_3
REMARK    3  A    between atoms: C_7  and  C_8
REMARK    4  A    between atoms: C_8  and  O_10
REMARK                            x       y       z     vdW  Elec       q    Type
REMARK                         _______ _______ _______ _____ _____    ______ ____
ROOT
ATOM      1  C   UNL     1       3.393   3.673  19.218  0.00  0.00    +0.000 A 
ATOM      2  C   UNL     1       3.820   4.691  18.383  0.00  0.00    +0.000 A 
ATOM      3  S   UNL     1       3.159   6.209  18.785  0.00  0.00    +0.000 S 
ATOM      4  C   UNL     1       2.296   5.540  20.096  0.00  0.00    +0.000 A 
ATOM      5  C   UNL     1       2.466   4.171  20.224  0.00  0.00    +0.000 A 
ENDROOT
BRANCH   5   6
ATOM      6  C   UNL     1       1.834   3.363  21.270  0.00  0.00    +0.000 C 
ATOM      7  O   UNL     1       2.370   3.100  22.338  0.00  0.00    +0.000 OA
BRANCH   6   8
ATOM      8  O   UNL     1       0.599   2.887  20.963  0.00  0.00    +0.000 OA
ATOM      9  H   UNL     1       0.134   2.500  21.725  0.00  0.00    +0.000 HD
ENDBRANCH   6   8
ENDBRANCH   5   6
BRANCH   1  10
ATOM     10  C   UNL     1       3.848   2.251  19.077  0.00  0.00    +0.000 C 
BRANCH  10  11
ATOM     11  N   UNL     1       4.999   2.064  19.948  0.00  0.00    +0.000 NA
ATOM     12  H   UNL     1       4.919   1.155  20.401  0.00  0.00    +0.000 HD
ATOM     13  H   UNL     1       4.936   2.744  20.708  0.00  0.00    +0.000 HD
ENDBRANCH  10  11
ENDBRANCH   1  10
TORSDOF 4
ENDMDL
MODEL 3
REMARK VINA RESULT:      -4.6      4.798      5.526
REMARK  Name = 
REMARK  4 active torsions:
REMARK  status: ('A' for Active; 'I' for Inactive)
REMARK    1  A    between atoms: N_1  and  C_2
REMARK    2  A    between atoms: C_2  and  C_3
REMARK    3  A    between atoms: C_7  and  C_8
REMARK    4  A    between atoms: C_8  and  O_10
REMARK                            x       y       z     vdW  Elec       q    Type
REMARK                         _______ _______ _______ _____ _____    ______ ____
ROOT
ATOM      1  C   UNL     1       3.446   3.101  18.541  0.00  0.00    +0.000 A 
ATOM      2  C   UNL     1       4.363   4.009  18.038  0.00  0.00    +0.000 A 
ATOM      3  S   UNL     1       3.672   5.523  17.671  0.00  0.00    +0.000 S 
ATOM      4  C   UNL     1       2.133   5.001  18.190  0.00  0.00    +0.000 A 
ATOM      5  C   UNL     1       2.114   3.680  18.609  0.00  0.00    +0.000 A 
ENDROOT
BRANCH   5   6
ATOM      6  C   UNL     1       0.915   2.997  19.102  0.00  0.00    +0.000 C 
ATOM      7  O   UNL     1       0.296   2.163  18.454  0.00  0.00    +0.000 OA
BRANCH   6   8
ATOM      8  O   UNL     1       0.505   3.376  20.340  0.00  0.00    +0.000 OA
ATOM      9  H   UNL     1       1.108   4.008  20.770  0.00  0.00    +0.000 HD
ENDBRANCH   6   8
ENDBRANCH   5   6
BRANCH   1  10
ATOM     10  C   UNL     1       3.815   1.707  18.953  0.00  0.00    +0.000 C 
BRANCH  10  11
ATOM     11  N   UNL     1       4.939   1.797  19.873  0.00  0.00    +0.000 NA
ATOM     12  H   UNL     1       5.152   2.780  20.030  0.00  0.00    +0.000 HD
ATOM     13  H   UNL     1       5.764   1.419  19.404  0.00  0.00    +0.000 HD
ENDBRANCH  10  11
ENDBRANCH   1  10
TORSDOF 4
ENDMDL
MODEL 4
REMARK VINA RESULT:      -4.5      4.494      5.402
REMARK  Name = 
REMARK  4 active torsions:
REMARK  status: ('A' for Active; 'I' for Inactive)
REMARK    1  A    between atoms: N_1  and  C_2
REMARK    2  A    between atoms: C_2  and  C_3
REMARK    3  A    between atoms: C_7  and  C_8
REMARK    4  A    between atoms: C_8  and  O_10
REMARK                            x       y       z     vdW  Elec       q    Type
REMARK                         _______ _______ _______ _____ _____    ______ ____
ROOT
ATOM      1  C   UNL     1       2.235   3.424  19.857  0.00  0.00    +0.000 A 
ATOM      2  C   UNL     1       1.711   4.597  19.341  0.00  0.00    +0.000 A 
ATOM      3  S   UNL     1       2.652   5.253  18.081  0.00  0.00    +0.000 S 
ATOM      4  C   UNL     1       3.775   3.974  18.189  0.00  0.00    +0.000 A 
ATOM      5  C   UNL     1       3.477   3.064  19.190  0.00  0.00    +0.000 A 
ENDROOT
BRANCH   5   6
ATOM      6  C   UNL     1       4.285   1.877  19.483  0.00  0.00    +0.000 C 
ATOM      7  O   UNL     1       4.993   1.769  20.476  0.00  0.00    +0.000 OA
BRANCH   6   8
ATOM      8  O   UNL     1       4.223   0.893  18.549  0.00  0.00    +0.000 OA
ATOM      9  H   UNL     1       3.723   1.147  17.753  0.00  0.00    +0.000 HD
ENDBRANCH   6   8
ENDBRANCH   5   6
BRANCH   1  10
ATOM     10  C   UNL     1       1.580   2.649  20.961  0.00  0.00    +0.000 C 
BRANCH  10  11
ATOM     11  N   UNL     1       2.361   2.851  22.172  0.00  0.00    +0.000 NA
ATOM     12  H   UNL     1       1.989   3.659  22.667  0.00  0.00    +0.000 HD
ATOM     13  H   UNL     1       3.307   3.122  21.898  0.00  0.00    +0.000 HD
ENDBRANCH  10  11
ENDBRANCH   1  10
TORSDOF 4
ENDMDL
MODEL 5
REMARK VINA RESULT:      -4.5      4.449      5.377
REMARK  Name = 
REMARK  4 active torsions:
REMARK  status: ('A' for Active; 'I' for Inactive)
REMARK    1  A    between atoms: N_1  and  C_2
REMARK    2  A    between atoms: C_2  and  C_3
REMARK    3  A    between atoms: C_7  and  C_8
REMARK    4  A    between atoms: C_8  and  O_10
REMARK                            x       y       z     vdW  Elec       q    Type
REMARK                         _______ _______ _______ _____ _____    ______ ____
ROOT
ATOM      1  C   UNL     1       2.246   3.999  20.298  0.00  0.00    +0.000 A 
ATOM      2  C   UNL     1       1.921   5.345  20.317  0.00  0.00    +0.000 A 
ATOM      3  S   UNL     1       2.845   6.273  19.227  0.00  0.00    +0.000 S 
ATOM      4  C   UNL     1       3.693   4.891  18.695  0.00  0.00    +0.000 A 
ATOM      5  C   UNL     1       3.318   3.730  19.352  0.00  0.00    +0.000 A 
ENDROOT
BRANCH   5   6
ATOM      6  C   UNL     1       3.896   2.412  19.076  0.00  0.00    +0.000 C 
ATOM      7  O   UNL     1       3.486   1.664  18.198  0.00  0.00    +0.000 OA
BRANCH   6   8
ATOM      8  O   UNL     1       4.919   2.050  19.892  0.00  0.00    +0.000 OA
ATOM      9  H   UNL     1       5.008   2.620  20.677  0.00  0.00    +0.000 HD
ENDBRANCH   6   8
ENDBRANCH   5   6
BRANCH   1  10
ATOM     10  C   UNL     1       1.561   2.978  21.156  0.00  0.00    +0.000 C 
BRANCH  10  11
ATOM     11  N   UNL     1       2.521   2.509  22.143  0.00  0.00    +0.000 NA
ATOM     12  H   UNL     1       3.249   3.213  22.249  0.00  0.00    +0.000 HD
ATOM     13  H   UNL     1       2.999   1.692  21.759  0.00  0.00    +0.000 HD
ENDBRANCH  10  11
ENDBRANCH   1  10
TORSDOF 4
ENDMDL
MODEL 6
REMARK VINA RESULT:      -4.5      2.563      3.292
REMARK  Name = 
REMARK  4 active torsions:
REMARK  status: ('A' for Active; 'I' for Inactive)
REMARK    1  A    between atoms: N_1  and  C_2
REMARK    2  A    between atoms: C_2  and  C_3
REMARK    3  A    between atoms: C_7  and  C_8
REMARK    4  A    between atoms: C_8  and  O_10
REMARK                            x       y       z     vdW  Elec       q    Type
REMARK                         _______ _______ _______ _____ _____    ______ ____
ROOT
ATOM      1  C   UNL     1       6.234   5.008  18.362  0.00  0.00    +0.000 A 
ATOM      2  C   UNL     1       5.378   4.403  19.267  0.00  0.00    +0.000 A 
ATOM      3  S   UNL     1       4.129   3.518  18.518  0.00  0.00    +0.000 S 
ATOM      4  C   UNL     1       4.715   3.913  16.965  0.00  0.00    +0.000 A 
ATOM      5  C   UNL     1       5.827   4.739  16.991  0.00  0.00    +0.000 A 
ENDROOT
BRANCH   5   6
ATOM      6  C   UNL     1       6.517   5.218  15.791  0.00  0.00    +0.000 C 
ATOM      7  O   UNL     1       7.609   4.802  15.426  0.00  0.00    +0.000 OA
BRANCH   6   8
ATOM      8  O   UNL     1       5.871   6.198  15.107  0.00  0.00    +0.000 OA
ATOM      9  H   UNL     1       6.465   6.747  14.566  0.00  0.00    +0.000 HD
ENDBRANCH   6   8
ENDBRANCH   5   6
BRANCH   1  10
ATOM     10  C   UNL     1       7.419   5.828  18.776  0.00  0.00    +0.000 C 
BRANCH  10  11
ATOM     11  N   UNL     1       7.758   5.462  20.143  0.00  0.00    +0.000 NA
ATOM     12  H   UNL     1       7.923   4.458  20.179  0.00  0.00    +0.000 HD
ATOM     13  H   UNL     1       6.934   5.615  20.727  0.00  0.00    +0.000 HD
ENDBRANCH  10  11
ENDBRANCH   1  10
TORSDOF 4
ENDMDL
MODEL 7
REMARK VINA RESULT:      -4.4      4.482      5.411
REMARK  Name = 
REMARK  4 active torsions:
REMARK  status: ('A' for Active; 'I' for Inactive)
REMARK    1  A    between atoms: N_1  and  C_2
REMARK    2  A    between atoms: C_2  and  C_3
REMARK    3  A    between atoms: C_7  and  C_8
REMARK    4  A    between atoms: C_8  and  O_10
REMARK                            x       y       z     vdW  Elec       q    Type
REMARK                         _______ _______ _______ _____ _____    ______ ____
ROOT
ATOM      1  C   UNL     1       2.122   3.961  20.315  0.00  0.00    +0.000 A 
ATOM      2  C   UNL     1       1.678   5.272  20.281  0.00  0.00    +0.000 A 
ATOM      3  S   UNL     1       2.768   6.328  19.504  0.00  0.00    +0.000 S 
ATOM      4  C   UNL     1       3.852   5.050  19.184  0.00  0.00    +0.000 A 
ATOM      5  C   UNL     1       3.426   3.830  19.685  0.00  0.00    +0.000 A 
ENDROOT
BRANCH   5   6
ATOM      6  C   UNL     1       4.178   2.580  19.540  0.00  0.00    +0.000 C 
ATOM      7  O   UNL     1       4.796   2.052  20.455  0.00  0.00    +0.000 OA
BRANCH   6   8
ATOM      8  O   UNL     1       4.171   2.046  18.291  0.00  0.00    +0.000 OA
ATOM      9  H   UNL     1       3.652   2.565  17.652  0.00  0.00    +0.000 HD
ENDBRANCH   6   8
ENDBRANCH   5   6
BRANCH   1  10
ATOM     10  C   UNL     1       1.332   2.844  20.930  0.00  0.00    +0.000 C 
BRANCH  10  11
ATOM     11  N   UNL     1       1.972   2.486  22.187  0.00  0.00    +0.000 NA
ATOM     12  H   UNL     1       2.898   2.909  22.212  0.00  0.00    +0.000 HD
ATOM     13  H   UNL     1       2.141   1.479  22.181  0.00  0.00    +0.000 HD
ENDBRANCH  10  11
ENDBRANCH   1  10
TORSDOF 4
ENDMDL
MODEL 8
REMARK VINA RESULT:      -4.4      1.603      1.744
REMARK  Name = 
REMARK  4 active torsions:
REMARK  status: ('A' for Active; 'I' for Inactive)
REMARK    1  A    between atoms: N_1  and  C_2
REMARK    2  A    between atoms: C_2  and  C_3
REMARK    3  A    between atoms: C_7  and  C_8
REMARK    4  A    between atoms: C_8  and  O_10
REMARK                            x       y       z     vdW  Elec       q    Type
REMARK                         _______ _______ _______ _____ _____    ______ ____
ROOT
ATOM      1  C   UNL     1       5.042   4.580  16.706  0.00  0.00    +0.000 A 
ATOM      2  C   UNL     1       3.799   4.073  17.046  0.00  0.00    +0.000 A 
ATOM      3  S   UNL     1       3.694   3.598  18.679  0.00  0.00    +0.000 S 
ATOM      4  C   UNL     1       5.307   4.072  18.971  0.00  0.00    +0.000 A 
ATOM      5  C   UNL     1       5.949   4.557  17.843  0.00  0.00    +0.000 A 
ENDROOT
BRANCH   5   6
ATOM      6  C   UNL     1       7.336   5.030  17.833  0.00  0.00    +0.000 C 
ATOM      7  O   UNL     1       7.648   6.213  17.869  0.00  0.00    +0.000 OA
BRANCH   6   8
ATOM      8  O   UNL     1       8.276   4.053  17.748  0.00  0.00    +0.000 OA
ATOM      9  H   UNL     1       9.000   4.157  18.391  0.00  0.00    +0.000 HD
ENDBRANCH   6   8
ENDBRANCH   5   6
BRANCH   1  10
ATOM     10  C   UNL     1       5.376   5.080  15.332  0.00  0.00    +0.000 C 
BRANCH  10  11
ATOM     11  N   UNL     1       5.394   6.534  15.380  0.00  0.00    +0.000 NA
ATOM     12  H   UNL     1       4.767   6.891  14.661  0.00  0.00    +0.000 HD
ATOM     13  H   UNL     1       6.324   6.849  15.099  0.00  0.00    +0.000 HD
ENDBRANCH  10  11
ENDBRANCH   1  10
TORSDOF 4
ENDMDL
MODEL 9
REMARK VINA RESULT:      -4.4      3.473      3.996
REMARK  Name = 
REMARK  4 active torsions:
REMARK  status: ('A' for Active; 'I' for Inactive)
REMARK    1  A    between atoms: N_1  and  C_2
REMARK    2  A    between atoms: C_2  and  C_3
REMARK    3  A    between atoms: C_7  and  C_8
REMARK    4  A    between atoms: C_8  and  O_10
REMARK                            x       y       z     vdW  Elec       q    Type
REMARK                         _______ _______ _______ _____ _____    ______ ____
ROOT
ATOM      1  C   UNL     1       2.809   2.779  18.908  0.00  0.00    +0.000 A 
ATOM      2  C   UNL     1       1.602   2.620  19.567  0.00  0.00    +0.000 A 
ATOM      3  S   UNL     1       1.272   3.874  20.673  0.00  0.00    +0.000 S 
ATOM      4  C   UNL     1       2.733   4.666  20.284  0.00  0.00    +0.000 A 
ATOM      5  C   UNL     1       3.496   3.983  19.350  0.00  0.00    +0.000 A 
ENDROOT
BRANCH   5   6
ATOM      6  C   UNL     1       4.790   4.455  18.850  0.00  0.00    +0.000 C 
ATOM      7  O   UNL     1       4.936   5.504  18.236  0.00  0.00    +0.000 OA
BRANCH   6   8
ATOM      8  O   UNL     1       5.837   3.625  19.089  0.00  0.00    +0.000 OA
ATOM      9  H   UNL     1       6.469   3.977  19.740  0.00  0.00    +0.000 HD
ENDBRANCH   6   8
ENDBRANCH   5   6
BRANCH   1  10
ATOM     10  C   UNL     1       3.313   1.816  17.875  0.00  0.00    +0.000 C 
BRANCH  10  11
ATOM     11  N   UNL     1       4.249   0.912  18.529  0.00  0.00    +0.000 NA
ATOM     12  H   UNL     1       5.006   0.705  17.881  0.00  0.00    +0.000 HD
ATOM     13  H   UNL     1       3.776   0.019  18.678  0.00  0.00    +0.000 HD
ENDBRANCH  10  11
ENDBRANCH   1  10
TORSDOF 4
ENDMDL
