MODEL 1
REMARK VINA RESULT:      -5.6      0.000      0.000
REMARK  Name = 
REMARK  3 active torsions:
REMARK  status: ('A' for Active; 'I' for Inactive)
REMARK    1  A    between atoms: N_1  and  O_2
REMARK    2  A    between atoms: O_2  and  C_3
REMARK    3  A    between atoms: C_3  and  C_4
REMARK                            x       y       z     vdW  Elec       q    Type
REMARK                         _______ _______ _______ _____ _____    ______ ____
ROOT
ATOM      1  C   UNL     1       6.732   4.941  17.885  0.00  0.00    +0.000 A 
ATOM      2  C   UNL     1       7.044   4.673  16.544  0.00  0.00    +0.000 A 
ATOM      3  C   UNL     1       6.052   4.216  15.670  0.00  0.00    +0.000 A 
ATOM      4 CL   UNL     1       6.444   3.917  13.987  0.00  0.00    +0.000 Cl
ATOM      5  C   UNL     1       4.749   4.015  16.136  0.00  0.00    +0.000 A 
ATOM      6  C   UNL     1       4.436   4.268  17.477  0.00  0.00    +0.000 A 
ATOM      7 CL   UNL     1       2.801   4.018  18.060  0.00  0.00    +0.000 Cl
ATOM      8  C   UNL     1       5.426   4.731  18.351  0.00  0.00    +0.000 A 
ENDROOT
BRANCH   1   9
ATOM      9  C   UNL     1       7.794   5.499  18.791  0.00  0.00    +0.000 C 
BRANCH   9  10
ATOM     10  O   UNL     1       7.322   5.498  20.123  0.00  0.00    +0.000 OA
BRANCH  10  11
ATOM     11  N   UNL     1       8.365   5.204  20.956  0.00  0.00    +0.000 NA
ATOM     12  H   UNL     1       7.943   4.738  21.790  0.00  0.00    +0.000 HD
ATOM     13  H   UNL     1       8.977   4.464  20.538  0.00  0.00    +0.000 HD
ENDBRANCH  10  11
ENDBRANCH   9  10
ENDBRANCH   1   9
TORSDOF 3
ENDMDL
MODEL 2
REMARK VINA RESULT:      -5.5      0.288      2.760
REMARK  Name = 
REMARK  3 active torsions:
REMARK  status: ('A' for Active; 'I' for Inactive)
REMARK    1  A    between atoms: N_1  and  O_2
REMARK    2  A    between atoms: O_2  and  C_3
REMARK    3  A    between atoms: C_3  and  C_4
REMARK                            x       y       z     vdW  Elec       q    Type
REMARK                         _______ _______ _______ _____ _____    ______ ____
ROOT
ATOM      1  C   UNL     1       6.686   5.218  17.936  0.00  0.00    +0.000 A 
ATOM      2  C   UNL     1       5.361   5.135  18.387  0.00  0.00    +0.000 A 
ATOM      3  C   UNL     1       4.359   4.657  17.536  0.00  0.00    +0.000 A 
ATOM      4 CL   UNL     1       2.710   4.524  18.121  0.00  0.00    +0.000 Cl
ATOM      5  C   UNL     1       4.675   4.273  16.230  0.00  0.00    +0.000 A 
ATOM      6  C   UNL     1       5.995   4.367  15.770  0.00  0.00    +0.000 A 
ATOM      7 CL   UNL     1       6.392   3.882  14.133  0.00  0.00    +0.000 Cl
ATOM      8  C   UNL     1       7.000   4.838  16.623  0.00  0.00    +0.000 A 
ENDROOT
BRANCH   1   9
ATOM      9  C   UNL     1       7.762   5.666  18.887  0.00  0.00    +0.000 C 
BRANCH   9  10
ATOM     10  O   UNL     1       7.335   5.443  20.216  0.00  0.00    +0.000 OA
BRANCH  10  11
ATOM     11  N   UNL     1       8.426   5.147  20.982  0.00  0.00    +0.000 NA
ATOM     12  H   UNL     1       9.239   5.603  20.512  0.00  0.00    +0.000 HD
ATOM     13  H   UNL     1       8.370   5.629  21.910  0.00  0.00    +0.000 HD
ENDBRANCH  10  11
ENDBRANCH   9  10
ENDBRANCH   1   9
TORSDOF 3
ENDMDL
MODEL 3
REMARK VINA RESULT:      -5.4      2.734      3.338
REMARK  Name = 
REMARK  3 active torsions:
REMARK  status: ('A' for Active; 'I' for Inactive)
REMARK    1  A    between atoms: N_1  and  O_2
REMARK    2  A    between atoms: O_2  and  C_3
REMARK    3  A    between atoms: C_3  and  C_4
REMARK                            x       y       z     vdW  Elec       q    Type
REMARK                         _______ _______ _______ _____ _____    ______ ____
ROOT
ATOM      1  C   UNL     1       5.263   4.708  16.655  0.00  0.00    +0.000 A 
ATOM      2  C   UNL     1       4.483   3.576  16.929  0.00  0.00    +0.000 A 
ATOM      3  C   UNL     1       3.224   3.718  17.522  0.00  0.00    +0.000 A 
ATOM      4 CL   UNL     1       2.240   2.299  17.830  0.00  0.00    +0.000 Cl
ATOM      5  C   UNL     1       2.748   4.989  17.855  0.00  0.00    +0.000 A 
ATOM      6  C   UNL     1       3.530   6.123  17.596  0.00  0.00    +0.000 A 
ATOM      7 CL   UNL     1       2.930   7.718  18.010  0.00  0.00    +0.000 Cl
ATOM      8  C   UNL     1       4.786   5.982  16.995  0.00  0.00    +0.000 A 
ENDROOT
BRANCH   1   9
ATOM      9  C   UNL     1       6.582   4.541  15.951  0.00  0.00    +0.000 C 
BRANCH   9  10
ATOM     10  O   UNL     1       7.611   5.095  16.745  0.00  0.00    +0.000 OA
BRANCH  10  11
ATOM     11  N   UNL     1       8.055   4.140  17.615  0.00  0.00    +0.000 NA
ATOM     12  H   UNL     1       8.299   4.644  18.496  0.00  0.00    +0.000 HD
ATOM     13  H   UNL     1       7.272   3.504  17.899  0.00  0.00    +0.000 HD
ENDBRANCH  10  11
ENDBRANCH   9  10
ENDBRANCH   1   9
TORSDOF 3
ENDMDL
MODEL 4
REMARK VINA RESULT:      -5.3      2.818      3.284
REMARK  Name = 
REMARK  3 active torsions:
REMARK  status: ('A' for Active; 'I' for Inactive)
REMARK    1  A    between atoms: N_1  and  O_2
REMARK    2  A    between atoms: O_2  and  C_3
REMARK    3  A    between atoms: C_3  and  C_4
REMARK                            x       y       z     vdW  Elec       q    Type
REMARK                         _______ _______ _______ _____ _____    ______ ____
ROOT
ATOM      1  C   UNL     1       5.145   4.502  16.645  0.00  0.00    +0.000 A 
ATOM      2  C   UNL     1       4.796   5.838  16.891  0.00  0.00    +0.000 A 
ATOM      3  C   UNL     1       3.586   6.142  17.522  0.00  0.00    +0.000 A 
ATOM      4 CL   UNL     1       3.173   7.814  17.857  0.00  0.00    +0.000 Cl
ATOM      5  C   UNL     1       2.715   5.114  17.897  0.00  0.00    +0.000 A 
ATOM      6  C   UNL     1       3.053   3.779  17.640  0.00  0.00    +0.000 A 
ATOM      7 CL   UNL     1       1.963   2.490  18.114  0.00  0.00    +0.000 Cl
ATOM      8  C   UNL     1       4.267   3.474  17.016  0.00  0.00    +0.000 A 
ENDROOT
BRANCH   1   9
ATOM      9  C   UNL     1       6.483   4.191  16.031  0.00  0.00    +0.000 C 
BRANCH   9  10
ATOM     10  O   UNL     1       7.489   4.922  16.705  0.00  0.00    +0.000 OA
BRANCH  10  11
ATOM     11  N   UNL     1       8.067   4.110  17.639  0.00  0.00    +0.000 NA
ATOM     12  H   UNL     1       7.289   3.772  18.247  0.00  0.00    +0.000 HD
ATOM     13  H   UNL     1       8.435   3.236  17.194  0.00  0.00    +0.000 HD
ENDBRANCH  10  11
ENDBRANCH   9  10
ENDBRANCH   1   9
TORSDOF 3
ENDMDL
MODEL 5
REMARK VINA RESULT:      -5.3      3.373      4.243
REMARK  Name = 
REMARK  3 active torsions:
REMARK  status: ('A' for Active; 'I' for Inactive)
REMARK    1  A    between atoms: N_1  and  O_2
REMARK    2  A    between atoms: O_2  and  C_3
REMARK    3  A    between atoms: C_3  and  C_4
REMARK                            x       y       z     vdW  Elec       q    Type
REMARK                         _______ _______ _______ _____ _____    ______ ____
ROOT
ATOM      1  C   UNL     1       6.321   4.683  15.837  0.00  0.00    +0.000 A 
ATOM      2  C   UNL     1       5.007   4.233  16.030  0.00  0.00    +0.000 A 
ATOM      3  C   UNL     1       4.450   4.223  17.312  0.00  0.00    +0.000 A 
ATOM      4 CL   UNL     1       2.793   3.691  17.539  0.00  0.00    +0.000 Cl
ATOM      5  C   UNL     1       5.206   4.651  18.407  0.00  0.00    +0.000 A 
ATOM      6  C   UNL     1       6.524   5.089  18.222  0.00  0.00    +0.000 A 
ATOM      7 CL   UNL     1       7.472   5.630  19.594  0.00  0.00    +0.000 Cl
ATOM      8  C   UNL     1       7.080   5.106  16.938  0.00  0.00    +0.000 A 
ENDROOT
BRANCH   1   9
ATOM      9  C   UNL     1       6.878   4.754  14.442  0.00  0.00    +0.000 C 
BRANCH   9  10
ATOM     10  O   UNL     1       8.001   5.613  14.429  0.00  0.00    +0.000 OA
BRANCH  10  11
ATOM     11  N   UNL     1       8.392   5.801  13.133  0.00  0.00    +0.000 NA
ATOM     12  H   UNL     1       9.185   5.141  12.974  0.00  0.00    +0.000 HD
ATOM     13  H   UNL     1       7.652   5.468  12.470  0.00  0.00    +0.000 HD
ENDBRANCH  10  11
ENDBRANCH   9  10
ENDBRANCH   1   9
TORSDOF 3
ENDMDL
MODEL 6
REMARK VINA RESULT:      -5.2      3.404      3.991
REMARK  Name = 
REMARK  3 active torsions:
REMARK  status: ('A' for Active; 'I' for Inactive)
REMARK    1  A    between atoms: N_1  and  O_2
REMARK    2  A    between atoms: O_2  and  C_3
REMARK    3  A    between atoms: C_3  and  C_4
REMARK                            x       y       z     vdW  Elec       q    Type
REMARK                         _______ _______ _______ _____ _____    ______ ____
ROOT
ATOM      1  C   UNL     1       6.371   4.705  15.873  0.00  0.00    +0.000 A 
ATOM      2  C   UNL     1       7.155   5.149  16.947  0.00  0.00    +0.000 A 
ATOM      3  C   UNL     1       6.648   5.105  18.250  0.00  0.00    +0.000 A 
ATOM      4 CL   UNL     1       7.649   5.630  19.592  0.00  0.00    +0.000 Cl
ATOM      5  C   UNL     1       5.354   4.629  18.482  0.00  0.00    +0.000 A 
ATOM      6  C   UNL     1       4.562   4.198  17.410  0.00  0.00    +0.000 A 
ATOM      7 CL   UNL     1       2.941   3.598  17.701  0.00  0.00    +0.000 Cl
ATOM      8  C   UNL     1       5.071   4.234  16.107  0.00  0.00    +0.000 A 
ENDROOT
BRANCH   1   9
ATOM      9  C   UNL     1       6.959   4.692  14.488  0.00  0.00    +0.000 C 
BRANCH   9  10
ATOM     10  O   UNL     1       8.001   5.644  14.413  0.00  0.00    +0.000 OA
BRANCH  10  11
ATOM     11  N   UNL     1       8.374   5.781  13.106  0.00  0.00    +0.000 NA
ATOM     12  H   UNL     1       8.101   4.890  12.634  0.00  0.00    +0.000 HD
ATOM     13  H   UNL     1       7.789   6.507  12.627  0.00  0.00    +0.000 HD
ENDBRANCH  10  11
ENDBRANCH   9  10
ENDBRANCH   1   9
TORSDOF 3
ENDMDL
MODEL 7
REMARK VINA RESULT:      -5.2      3.090      3.636
REMARK  Name = 
REMARK  3 active torsions:
REMARK  status: ('A' for Active; 'I' for Inactive)
REMARK    1  A    between atoms: N_1  and  O_2
REMARK    2  A    between atoms: O_2  and  C_3
REMARK    3  A    between atoms: C_3  and  C_4
REMARK                            x       y       z     vdW  Elec       q    Type
REMARK                         _______ _______ _______ _____ _____    ______ ____
ROOT
ATOM      1  C   UNL     1       5.528   4.870  17.097  0.00  0.00    +0.000 A 
ATOM      2  C   UNL     1       4.951   6.121  17.360  0.00  0.00    +0.000 A 
ATOM      3  C   UNL     1       3.599   6.212  17.704  0.00  0.00    +0.000 A 
ATOM      4 CL   UNL     1       2.895   7.777  18.067  0.00  0.00    +0.000 Cl
ATOM      5  C   UNL     1       2.815   5.056  17.774  0.00  0.00    +0.000 A 
ATOM      6  C   UNL     1       3.383   3.805  17.498  0.00  0.00    +0.000 A 
ATOM      7 CL   UNL     1       2.402   2.355  17.588  0.00  0.00    +0.000 Cl
ATOM      8  C   UNL     1       4.738   3.713  17.160  0.00  0.00    +0.000 A 
ENDROOT
BRANCH   1   9
ATOM      9  C   UNL     1       6.999   4.785  16.799  0.00  0.00    +0.000 C 
BRANCH   9  10
ATOM     10  O   UNL     1       7.365   5.843  15.936  0.00  0.00    +0.000 OA
BRANCH  10  11
ATOM     11  N   UNL     1       7.495   5.349  14.669  0.00  0.00    +0.000 NA
ATOM     12  H   UNL     1       7.343   6.159  14.029  0.00  0.00    +0.000 HD
ATOM     13  H   UNL     1       8.486   5.063  14.482  0.00  0.00    +0.000 HD
ENDBRANCH  10  11
ENDBRANCH   9  10
ENDBRANCH   1   9
TORSDOF 3
ENDMDL
MODEL 8
REMARK VINA RESULT:      -5.2      2.342      3.087
REMARK  Name = 
REMARK  3 active torsions:
REMARK  status: ('A' for Active; 'I' for Inactive)
REMARK    1  A    between atoms: N_1  and  O_2
REMARK    2  A    between atoms: O_2  and  C_3
REMARK    3  A    between atoms: C_3  and  C_4
REMARK                            x       y       z     vdW  Elec       q    Type
REMARK                         _______ _______ _______ _____ _____    ______ ____
ROOT
ATOM      1  C   UNL     1       5.081   5.087  18.282  0.00  0.00    +0.000 A 
ATOM      2  C   UNL     1       4.361   6.288  18.199  0.00  0.00    +0.000 A 
ATOM      3  C   UNL     1       2.976   6.265  18.013  0.00  0.00    +0.000 A 
ATOM      4 CL   UNL     1       2.080   7.772  17.946  0.00  0.00    +0.000 Cl
ATOM      5  C   UNL     1       2.306   5.044  17.896  0.00  0.00    +0.000 A 
ATOM      6  C   UNL     1       3.022   3.841  17.964  0.00  0.00    +0.000 A 
ATOM      7 CL   UNL     1       2.182   2.309  17.820  0.00  0.00    +0.000 Cl
ATOM      8  C   UNL     1       4.408   3.863  18.157  0.00  0.00    +0.000 A 
ENDROOT
BRANCH   1   9
ATOM      9  C   UNL     1       6.559   5.131  18.555  0.00  0.00    +0.000 C 
BRANCH   9  10
ATOM     10  O   UNL     1       6.777   5.189  19.950  0.00  0.00    +0.000 OA
BRANCH  10  11
ATOM     11  N   UNL     1       8.087   5.502  20.175  0.00  0.00    +0.000 NA
ATOM     12  H   UNL     1       8.279   5.239  21.167  0.00  0.00    +0.000 HD
ATOM     13  H   UNL     1       8.719   4.875  19.623  0.00  0.00    +0.000 HD
ENDBRANCH  10  11
ENDBRANCH   9  10
ENDBRANCH   1   9
TORSDOF 3
ENDMDL
MODEL 9
REMARK VINA RESULT:      -5.1      2.759      3.348
REMARK  Name = 
REMARK  3 active torsions:
REMARK  status: ('A' for Active; 'I' for Inactive)
REMARK    1  A    between atoms: N_1  and  O_2
REMARK    2  A    between atoms: O_2  and  C_3
REMARK    3  A    between atoms: C_3  and  C_4
REMARK                            x       y       z     vdW  Elec       q    Type
REMARK                         _______ _______ _______ _____ _____    ______ ____
ROOT
ATOM      1  C   UNL     1       5.083   4.436  18.362  0.00  0.00    +0.000 A 
ATOM      2  C   UNL     1       5.078   4.005  17.028  0.00  0.00    +0.000 A 
ATOM      3  C   UNL     1       5.997   4.534  16.116  0.00  0.00    +0.000 A 
ATOM      4 CL   UNL     1       6.006   3.962  14.458  0.00  0.00    +0.000 Cl
ATOM      5  C   UNL     1       6.914   5.503  16.530  0.00  0.00    +0.000 A 
ATOM      6  C   UNL     1       6.914   5.948  17.859  0.00  0.00    +0.000 A 
ATOM      7 CL   UNL     1       8.067   7.162  18.380  0.00  0.00    +0.000 Cl
ATOM      8  C   UNL     1       6.000   5.415  18.774  0.00  0.00    +0.000 A 
ENDROOT
BRANCH   1   9
ATOM      9  C   UNL     1       4.136   3.804  19.344  0.00  0.00    +0.000 C 
BRANCH   9  10
ATOM     10  O   UNL     1       4.157   2.401  19.180  0.00  0.00    +0.000 OA
BRANCH  10  11
ATOM     11  N   UNL     1       5.050   1.870  20.068  0.00  0.00    +0.000 NA
ATOM     12  H   UNL     1       4.660   2.063  21.017  0.00  0.00    +0.000 HD
ATOM     13  H   UNL     1       5.057   0.824  20.007  0.00  0.00    +0.000 HD
ENDBRANCH  10  11
ENDBRANCH   9  10
ENDBRANCH   1   9
TORSDOF 3
ENDMDL
