MODEL 1
REMARK VINA RESULT:      -7.4      0.000      0.000
REMARK  Name = 
REMARK  5 active torsions:
REMARK  status: ('A' for Active; 'I' for Inactive)
REMARK    1  A    between atoms: C_1  and  C_2
REMARK    2  A    between atoms: C_4  and  C_5
REMARK    3  A    between atoms: C_7  and  S_8
REMARK    4  A    between atoms: S_8  and  C_9
REMARK    5  A    between atoms: C_15  and  C_16
REMARK                            x       y       z     vdW  Elec       q    Type
REMARK                         _______ _______ _______ _____ _____    ______ ____
ROOT
ATOM      1  C   UNL     1       2.603   4.580  19.286  0.00  0.00    +0.000 A 
ATOM      2  C   UNL     1       1.716   3.933  18.433  0.00  0.00    +0.000 A 
ATOM      3  N   UNL     1       2.041   3.427  17.226  0.00  0.00    +0.000 NA
ATOM      4  C   UNL     1       3.310   3.572  16.785  0.00  0.00    +0.000 A 
ATOM      5  C   UNL     1       4.257   4.237  17.570  0.00  0.00    +0.000 A 
ATOM      6  S   UNL     1       5.903   4.539  17.162  0.00  0.00    +0.000 S 
ATOM      7  C   UNL     1       6.208   5.364  18.624  0.00  0.00    +0.000 A 
ATOM      8  C   UNL     1       5.077   5.399  19.414  0.00  0.00    +0.000 A 
ATOM      9  C   UNL     1       3.931   4.752  18.829  0.00  0.00    +0.000 A 
ENDROOT
BRANCH   7  10
ATOM     10  C   UNL     1       7.502   5.938  18.950  0.00  0.00    +0.000 C 
ATOM     11  N   UNL     1       8.174   5.409  20.017  0.00  0.00    +0.000 N 
ATOM     12  O   UNL     1       8.018   6.861  18.324  0.00  0.00    +0.000 OA
ATOM     13  H   UNL     1       7.804   4.646  20.564  0.00  0.00    +0.000 HD
ATOM     14  H   UNL     1       9.075   5.802  20.245  0.00  0.00    +0.000 HD
ENDBRANCH   7  10
BRANCH   1  15
ATOM     15  S   UNL     1       2.086   5.264  20.832  0.00  0.00    +0.000 S 
BRANCH  15  22
ATOM     16  C   UNL     1       2.046   9.626  17.778  0.00  0.00    +0.000 C 
ATOM     17  C   UNL     1       1.635   8.945  19.051  0.00  0.00    +0.000 A 
ATOM     18  C   UNL     1       0.948   9.647  20.049  0.00  0.00    +0.000 A 
ATOM     19  C   UNL     1       0.587   9.015  21.243  0.00  0.00    +0.000 A 
ATOM     20  C   UNL     1      -0.146   9.761  22.320  0.00  0.00    +0.000 C 
ATOM     21  C   UNL     1       0.926   7.668  21.432  0.00  0.00    +0.000 A 
ATOM     22  C   UNL     1       1.613   6.945  20.447  0.00  0.00    +0.000 A 
ATOM     23  C   UNL     1       1.962   7.596  19.258  0.00  0.00    +0.000 A 
ENDBRANCH  15  22
ENDBRANCH   1  15
TORSDOF 3
ENDMDL
MODEL 2
REMARK VINA RESULT:      -7.4      0.219      1.892
REMARK  Name = 
REMARK  5 active torsions:
REMARK  status: ('A' for Active; 'I' for Inactive)
REMARK    1  A    between atoms: C_1  and  C_2
REMARK    2  A    between atoms: C_4  and  C_5
REMARK    3  A    between atoms: C_7  and  S_8
REMARK    4  A    between atoms: S_8  and  C_9
REMARK    5  A    between atoms: C_15  and  C_16
REMARK                            x       y       z     vdW  Elec       q    Type
REMARK                         _______ _______ _______ _____ _____    ______ ____
ROOT
ATOM      1  C   UNL     1       2.722   4.468  19.259  0.00  0.00    +0.000 A 
ATOM      2  C   UNL     1       1.853   3.852  18.365  0.00  0.00    +0.000 A 
ATOM      3  N   UNL     1       2.196   3.417  17.136  0.00  0.00    +0.000 NA
ATOM      4  C   UNL     1       3.466   3.608  16.714  0.00  0.00    +0.000 A 
ATOM      5  C   UNL     1       4.395   4.247  17.541  0.00  0.00    +0.000 A 
ATOM      6  S   UNL     1       6.038   4.600  17.164  0.00  0.00    +0.000 S 
ATOM      7  C   UNL     1       6.317   5.351  18.670  0.00  0.00    +0.000 A 
ATOM      8  C   UNL     1       5.179   5.324  19.452  0.00  0.00    +0.000 A 
ATOM      9  C   UNL     1       4.050   4.689  18.823  0.00  0.00    +0.000 A 
ENDROOT
BRANCH   7  10
ATOM     10  C   UNL     1       7.597   5.930  19.038  0.00  0.00    +0.000 C 
ATOM     11  N   UNL     1       8.281   5.345  20.067  0.00  0.00    +0.000 N 
ATOM     12  O   UNL     1       8.094   6.904  18.477  0.00  0.00    +0.000 OA
ATOM     13  H   UNL     1       7.927   4.537  20.560  0.00  0.00    +0.000 HD
ATOM     14  H   UNL     1       9.173   5.741  20.324  0.00  0.00    +0.000 HD
ENDBRANCH   7  10
BRANCH   1  15
ATOM     15  S   UNL     1       2.180   5.060  20.835  0.00  0.00    +0.000 S 
BRANCH  15  22
ATOM     16  C   UNL     1      -0.264   9.626  22.075  0.00  0.00    +0.000 C 
ATOM     17  C   UNL     1       0.584   8.842  21.117  0.00  0.00    +0.000 A 
ATOM     18  C   UNL     1       0.977   9.394  19.891  0.00  0.00    +0.000 A 
ATOM     19  C   UNL     1       1.749   8.652  18.991  0.00  0.00    +0.000 A 
ATOM     20  C   UNL     1       2.172   9.235  17.674  0.00  0.00    +0.000 C 
ATOM     21  C   UNL     1       2.121   7.343  19.328  0.00  0.00    +0.000 A 
ATOM     22  C   UNL     1       1.740   6.770  20.549  0.00  0.00    +0.000 A 
ATOM     23  C   UNL     1       0.970   7.531  21.437  0.00  0.00    +0.000 A 
ENDBRANCH  15  22
ENDBRANCH   1  15
TORSDOF 3
ENDMDL
MODEL 3
REMARK VINA RESULT:      -7.4      2.854      6.239
REMARK  Name = 
REMARK  5 active torsions:
REMARK  status: ('A' for Active; 'I' for Inactive)
REMARK    1  A    between atoms: C_1  and  C_2
REMARK    2  A    between atoms: C_4  and  C_5
REMARK    3  A    between atoms: C_7  and  S_8
REMARK    4  A    between atoms: S_8  and  C_9
REMARK    5  A    between atoms: C_15  and  C_16
REMARK                            x       y       z     vdW  Elec       q    Type
REMARK                         _______ _______ _______ _____ _____    ______ ____
ROOT
ATOM      1  C   UNL     1       2.789   3.735  18.805  0.00  0.00    +0.000 A 
ATOM      2  C   UNL     1       2.805   2.844  19.871  0.00  0.00    +0.000 A 
ATOM      3  N   UNL     1       2.493   3.161  21.144  0.00  0.00    +0.000 NA
ATOM      4  C   UNL     1       2.163   4.440  21.428  0.00  0.00    +0.000 A 
ATOM      5  C   UNL     1       2.152   5.407  20.418  0.00  0.00    +0.000 A 
ATOM      6  S   UNL     1       1.787   7.080  20.597  0.00  0.00    +0.000 S 
ATOM      7  C   UNL     1       2.044   7.406  18.943  0.00  0.00    +0.000 A 
ATOM      8  C   UNL     1       2.392   6.257  18.263  0.00  0.00    +0.000 A 
ATOM      9  C   UNL     1       2.461   5.082  19.093  0.00  0.00    +0.000 A 
ENDROOT
BRANCH   7  10
ATOM     10  C   UNL     1       1.905   8.734  18.370  0.00  0.00    +0.000 C 
ATOM     11  N   UNL     1       1.220   9.666  19.100  0.00  0.00    +0.000 N 
ATOM     12  O   UNL     1       2.366   9.060  17.279  0.00  0.00    +0.000 OA
ATOM     13  H   UNL     1       0.824   9.458  20.006  0.00  0.00    +0.000 HD
ATOM     14  H   UNL     1       1.124  10.590  18.708  0.00  0.00    +0.000 HD
ENDBRANCH   7  10
BRANCH   1  15
ATOM     15  S   UNL     1       3.264   3.253  17.172  0.00  0.00    +0.000 S 
BRANCH  15  22
ATOM     16  C   UNL     1       7.711   5.629  18.888  0.00  0.00    +0.000 C 
ATOM     17  C   UNL     1       6.906   5.078  17.746  0.00  0.00    +0.000 A 
ATOM     18  C   UNL     1       7.361   5.198  16.427  0.00  0.00    +0.000 A 
ATOM     19  C   UNL     1       6.598   4.704  15.364  0.00  0.00    +0.000 A 
ATOM     20  C   UNL     1       7.075   4.831  13.947  0.00  0.00    +0.000 C 
ATOM     21  C   UNL     1       5.366   4.090  15.635  0.00  0.00    +0.000 A 
ATOM     22  C   UNL     1       4.892   3.959  16.947  0.00  0.00    +0.000 A 
ATOM     23  C   UNL     1       5.673   4.457  17.997  0.00  0.00    +0.000 A 
ENDBRANCH  15  22
ENDBRANCH   1  15
TORSDOF 3
ENDMDL
MODEL 4
REMARK VINA RESULT:      -7.2      3.564      6.932
REMARK  Name = 
REMARK  5 active torsions:
REMARK  status: ('A' for Active; 'I' for Inactive)
REMARK    1  A    between atoms: C_1  and  C_2
REMARK    2  A    between atoms: C_4  and  C_5
REMARK    3  A    between atoms: C_7  and  S_8
REMARK    4  A    between atoms: S_8  and  C_9
REMARK    5  A    between atoms: C_15  and  C_16
REMARK                            x       y       z     vdW  Elec       q    Type
REMARK                         _______ _______ _______ _____ _____    ______ ____
ROOT
ATOM      1  C   UNL     1       2.284   7.453  19.080  0.00  0.00    +0.000 A 
ATOM      2  C   UNL     1       2.506   7.870  17.772  0.00  0.00    +0.000 A 
ATOM      3  N   UNL     1       2.204   9.094  17.294  0.00  0.00    +0.000 NA
ATOM      4  C   UNL     1       1.618   9.985  18.123  0.00  0.00    +0.000 A 
ATOM      5  C   UNL     1       1.333   9.635  19.447  0.00  0.00    +0.000 A 
ATOM      6  S   UNL     1       0.570  10.624  20.633  0.00  0.00    +0.000 S 
ATOM      7  C   UNL     1       0.639   9.405  21.824  0.00  0.00    +0.000 A 
ATOM      8  C   UNL     1       1.243   8.267  21.330  0.00  0.00    +0.000 A 
ATOM      9  C   UNL     1       1.656   8.372  19.954  0.00  0.00    +0.000 A 
ENDROOT
BRANCH   7  10
ATOM     10  C   UNL     1       0.116   9.586  23.167  0.00  0.00    +0.000 C 
ATOM     11  N   UNL     1      -1.186   9.982  23.288  0.00  0.00    +0.000 N 
ATOM     12  O   UNL     1       0.775   9.401  24.188  0.00  0.00    +0.000 OA
ATOM     13  H   UNL     1      -1.779  10.142  22.486  0.00  0.00    +0.000 HD
ATOM     14  H   UNL     1      -1.555  10.106  24.219  0.00  0.00    +0.000 HD
ENDBRANCH   7  10
BRANCH   1  15
ATOM     15  S   UNL     1       2.660   5.811  19.616  0.00  0.00    +0.000 S 
BRANCH  15  22
ATOM     16  C   UNL     1       7.974   5.713  19.282  0.00  0.00    +0.000 C 
ATOM     17  C   UNL     1       6.641   5.410  18.660  0.00  0.00    +0.000 A 
ATOM     18  C   UNL     1       6.558   4.898  17.360  0.00  0.00    +0.000 A 
ATOM     19  C   UNL     1       5.314   4.638  16.776  0.00  0.00    +0.000 A 
ATOM     20  C   UNL     1       5.215   4.092  15.381  0.00  0.00    +0.000 C 
ATOM     21  C   UNL     1       4.147   4.902  17.508  0.00  0.00    +0.000 A 
ATOM     22  C   UNL     1       4.207   5.414  18.811  0.00  0.00    +0.000 A 
ATOM     23  C   UNL     1       5.462   5.665  19.378  0.00  0.00    +0.000 A 
ENDBRANCH  15  22
ENDBRANCH   1  15
TORSDOF 3
ENDMDL
MODEL 5
REMARK VINA RESULT:      -7.2      2.837      5.952
REMARK  Name = 
REMARK  5 active torsions:
REMARK  status: ('A' for Active; 'I' for Inactive)
REMARK    1  A    between atoms: C_1  and  C_2
REMARK    2  A    between atoms: C_4  and  C_5
REMARK    3  A    between atoms: C_7  and  S_8
REMARK    4  A    between atoms: S_8  and  C_9
REMARK    5  A    between atoms: C_15  and  C_16
REMARK                            x       y       z     vdW  Elec       q    Type
REMARK                         _______ _______ _______ _____ _____    ______ ____
ROOT
ATOM      1  C   UNL     1       2.840   3.604  18.851  0.00  0.00    +0.000 A 
ATOM      2  C   UNL     1       2.868   2.732  19.933  0.00  0.00    +0.000 A 
ATOM      3  N   UNL     1       2.568   3.072  21.203  0.00  0.00    +0.000 NA
ATOM      4  C   UNL     1       2.239   4.355  21.467  0.00  0.00    +0.000 A 
ATOM      5  C   UNL     1       2.216   5.303  20.440  0.00  0.00    +0.000 A 
ATOM      6  S   UNL     1       1.850   6.979  20.592  0.00  0.00    +0.000 S 
ATOM      7  C   UNL     1       2.090   7.276  18.930  0.00  0.00    +0.000 A 
ATOM      8  C   UNL     1       2.433   6.114  18.267  0.00  0.00    +0.000 A 
ATOM      9  C   UNL     1       2.513   4.955  19.118  0.00  0.00    +0.000 A 
ENDROOT
BRANCH   7  10
ATOM     10  C   UNL     1       1.943   8.592  18.335  0.00  0.00    +0.000 C 
ATOM     11  N   UNL     1       1.232   9.525  19.038  0.00  0.00    +0.000 N 
ATOM     12  O   UNL     1       2.419   8.909  17.247  0.00  0.00    +0.000 OA
ATOM     13  H   UNL     1       0.824   9.326  19.940  0.00  0.00    +0.000 HD
ATOM     14  H   UNL     1       1.130  10.443  18.631  0.00  0.00    +0.000 HD
ENDBRANCH   7  10
BRANCH   1  15
ATOM     15  S   UNL     1       3.301   3.092  17.223  0.00  0.00    +0.000 S 
BRANCH  15  22
ATOM     16  C   UNL     1       7.145   4.921  14.024  0.00  0.00    +0.000 C 
ATOM     17  C   UNL     1       6.595   4.765  15.412  0.00  0.00    +0.000 A 
ATOM     18  C   UNL     1       7.320   5.207  16.524  0.00  0.00    +0.000 A 
ATOM     19  C   UNL     1       6.814   5.039  17.817  0.00  0.00    +0.000 A 
ATOM     20  C   UNL     1       7.587   5.507  19.015  0.00  0.00    +0.000 C 
ATOM     21  C   UNL     1       5.570   4.415  17.987  0.00  0.00    +0.000 A 
ATOM     22  C   UNL     1       4.825   3.965  16.888  0.00  0.00    +0.000 A 
ATOM     23  C   UNL     1       5.349   4.146  15.603  0.00  0.00    +0.000 A 
ENDBRANCH  15  22
ENDBRANCH   1  15
TORSDOF 3
ENDMDL
MODEL 6
REMARK VINA RESULT:      -7.1      3.558      6.842
REMARK  Name = 
REMARK  5 active torsions:
REMARK  status: ('A' for Active; 'I' for Inactive)
REMARK    1  A    between atoms: C_1  and  C_2
REMARK    2  A    between atoms: C_4  and  C_5
REMARK    3  A    between atoms: C_7  and  S_8
REMARK    4  A    between atoms: S_8  and  C_9
REMARK    5  A    between atoms: C_15  and  C_16
REMARK                            x       y       z     vdW  Elec       q    Type
REMARK                         _______ _______ _______ _____ _____    ______ ____
ROOT
ATOM      1  C   UNL     1       2.303   7.487  19.036  0.00  0.00    +0.000 A 
ATOM      2  C   UNL     1       2.499   7.917  17.729  0.00  0.00    +0.000 A 
ATOM      3  N   UNL     1       2.163   9.136  17.262  0.00  0.00    +0.000 NA
ATOM      4  C   UNL     1       1.568  10.009  18.104  0.00  0.00    +0.000 A 
ATOM      5  C   UNL     1       1.307   9.644  19.428  0.00  0.00    +0.000 A 
ATOM      6  S   UNL     1       0.536  10.608  20.630  0.00  0.00    +0.000 S 
ATOM      7  C   UNL     1       0.646   9.384  21.812  0.00  0.00    +0.000 A 
ATOM      8  C   UNL     1       1.270   8.263  21.303  0.00  0.00    +0.000 A 
ATOM      9  C   UNL     1       1.665   8.386  19.924  0.00  0.00    +0.000 A 
ENDROOT
BRANCH   7  10
ATOM     10  C   UNL     1       0.136   9.544  23.163  0.00  0.00    +0.000 C 
ATOM     11  N   UNL     1      -1.189   9.850  23.303  0.00  0.00    +0.000 N 
ATOM     12  O   UNL     1       0.824   9.418  24.173  0.00  0.00    +0.000 OA
ATOM     13  H   UNL     1      -1.805   9.959  22.510  0.00  0.00    +0.000 HD
ATOM     14  H   UNL     1      -1.549   9.959  24.239  0.00  0.00    +0.000 HD
ENDBRANCH   7  10
BRANCH   1  15
ATOM     15  S   UNL     1       2.722   5.850  19.557  0.00  0.00    +0.000 S 
BRANCH  15  22
ATOM     16  C   UNL     1       5.426   3.783  15.461  0.00  0.00    +0.000 C 
ATOM     17  C   UNL     1       5.442   4.476  16.793  0.00  0.00    +0.000 A 
ATOM     18  C   UNL     1       6.651   4.748  17.444  0.00  0.00    +0.000 A 
ATOM     19  C   UNL     1       6.661   5.373  18.695  0.00  0.00    +0.000 A 
ATOM     20  C   UNL     1       7.952   5.666  19.402  0.00  0.00    +0.000 C 
ATOM     21  C   UNL     1       5.442   5.721  19.294  0.00  0.00    +0.000 A 
ATOM     22  C   UNL     1       4.219   5.459  18.661  0.00  0.00    +0.000 A 
ATOM     23  C   UNL     1       4.232   4.835  17.408  0.00  0.00    +0.000 A 
ENDBRANCH  15  22
ENDBRANCH   1  15
TORSDOF 3
ENDMDL
MODEL 7
REMARK VINA RESULT:      -7.0      2.543      5.776
REMARK  Name = 
REMARK  5 active torsions:
REMARK  status: ('A' for Active; 'I' for Inactive)
REMARK    1  A    between atoms: C_1  and  C_2
REMARK    2  A    between atoms: C_4  and  C_5
REMARK    3  A    between atoms: C_7  and  S_8
REMARK    4  A    between atoms: S_8  and  C_9
REMARK    5  A    between atoms: C_15  and  C_16
REMARK                            x       y       z     vdW  Elec       q    Type
REMARK                         _______ _______ _______ _____ _____    ______ ____
ROOT
ATOM      1  C   UNL     1       4.090   3.998  17.587  0.00  0.00    +0.000 A 
ATOM      2  C   UNL     1       4.084   2.615  17.727  0.00  0.00    +0.000 A 
ATOM      3  N   UNL     1       3.356   1.938  18.638  0.00  0.00    +0.000 NA
ATOM      4  C   UNL     1       2.590   2.639  19.503  0.00  0.00    +0.000 A 
ATOM      5  C   UNL     1       2.563   4.036  19.449  0.00  0.00    +0.000 A 
ATOM      6  S   UNL     1       1.674   5.091  20.481  0.00  0.00    +0.000 S 
ATOM      7  C   UNL     1       2.261   6.492  19.705  0.00  0.00    +0.000 A 
ATOM      8  C   UNL     1       3.112   6.161  18.670  0.00  0.00    +0.000 A 
ATOM      9  C   UNL     1       3.305   4.745  18.497  0.00  0.00    +0.000 A 
ENDROOT
BRANCH   7  10
ATOM     10  C   UNL     1       1.889   7.834  20.115  0.00  0.00    +0.000 C 
ATOM     11  N   UNL     1       1.759   8.070  21.456  0.00  0.00    +0.000 N 
ATOM     12  O   UNL     1       1.689   8.759  19.330  0.00  0.00    +0.000 OA
ATOM     13  H   UNL     1       1.917   7.352  22.148  0.00  0.00    +0.000 HD
ATOM     14  H   UNL     1       1.504   9.002  21.746  0.00  0.00    +0.000 HD
ENDBRANCH   7  10
BRANCH   1  15
ATOM     15  S   UNL     1       5.116   4.815  16.401  0.00  0.00    +0.000 S 
BRANCH  15  22
ATOM     16  C   UNL     1       8.586   5.074  20.432  0.00  0.00    +0.000 C 
ATOM     17  C   UNL     1       7.941   5.732  19.247  0.00  0.00    +0.000 A 
ATOM     18  C   UNL     1       8.233   7.062  18.921  0.00  0.00    +0.000 A 
ATOM     19  C   UNL     1       7.613   7.680  17.830  0.00  0.00    +0.000 A 
ATOM     20  C   UNL     1       7.918   9.106  17.474  0.00  0.00    +0.000 C 
ATOM     21  C   UNL     1       6.690   6.951  17.066  0.00  0.00    +0.000 A 
ATOM     22  C   UNL     1       6.382   5.618  17.374  0.00  0.00    +0.000 A 
ATOM     23  C   UNL     1       7.016   5.019  18.469  0.00  0.00    +0.000 A 
ENDBRANCH  15  22
ENDBRANCH   1  15
TORSDOF 3
ENDMDL
MODEL 8
REMARK VINA RESULT:      -6.9      2.590      5.639
REMARK  Name = 
REMARK  5 active torsions:
REMARK  status: ('A' for Active; 'I' for Inactive)
REMARK    1  A    between atoms: C_1  and  C_2
REMARK    2  A    between atoms: C_4  and  C_5
REMARK    3  A    between atoms: C_7  and  S_8
REMARK    4  A    between atoms: S_8  and  C_9
REMARK    5  A    between atoms: C_15  and  C_16
REMARK                            x       y       z     vdW  Elec       q    Type
REMARK                         _______ _______ _______ _____ _____    ______ ____
ROOT
ATOM      1  C   UNL     1       4.061   4.273  17.501  0.00  0.00    +0.000 A 
ATOM      2  C   UNL     1       4.102   2.885  17.578  0.00  0.00    +0.000 A 
ATOM      3  N   UNL     1       3.415   2.143  18.470  0.00  0.00    +0.000 NA
ATOM      4  C   UNL     1       2.646   2.778  19.381  0.00  0.00    +0.000 A 
ATOM      5  C   UNL     1       2.572   4.174  19.392  0.00  0.00    +0.000 A 
ATOM      6  S   UNL     1       1.671   5.150  20.489  0.00  0.00    +0.000 S 
ATOM      7  C   UNL     1       2.196   6.604  19.768  0.00  0.00    +0.000 A 
ATOM      8  C   UNL     1       3.036   6.350  18.703  0.00  0.00    +0.000 A 
ATOM      9  C   UNL     1       3.271   4.950  18.461  0.00  0.00    +0.000 A 
ENDROOT
BRANCH   7  10
ATOM     10  C   UNL     1       1.789   7.914  20.248  0.00  0.00    +0.000 C 
ATOM     11  N   UNL     1       1.752   8.105  21.601  0.00  0.00    +0.000 N 
ATOM     12  O   UNL     1       1.482   8.847  19.510  0.00  0.00    +0.000 OA
ATOM     13  H   UNL     1       2.000   7.378  22.256  0.00  0.00    +0.000 HD
ATOM     14  H   UNL     1       1.473   9.014  21.939  0.00  0.00    +0.000 HD
ENDBRANCH   7  10
BRANCH   1  15
ATOM     15  S   UNL     1       5.034   5.177  16.335  0.00  0.00    +0.000 S 
BRANCH  15  22
ATOM     16  C   UNL     1       8.149   9.331  17.518  0.00  0.00    +0.000 C 
ATOM     17  C   UNL     1       7.692   7.936  17.834  0.00  0.00    +0.000 A 
ATOM     18  C   UNL     1       8.287   7.205  18.869  0.00  0.00    +0.000 A 
ATOM     19  C   UNL     1       7.874   5.898  19.146  0.00  0.00    +0.000 A 
ATOM     20  C   UNL     1       8.508   5.106  20.252  0.00  0.00    +0.000 C 
ATOM     21  C   UNL     1       6.857   5.324  18.369  0.00  0.00    +0.000 A 
ATOM     22  C   UNL     1       6.247   6.037  17.328  0.00  0.00    +0.000 A 
ATOM     23  C   UNL     1       6.674   7.345  17.070  0.00  0.00    +0.000 A 
ENDBRANCH  15  22
ENDBRANCH   1  15
TORSDOF 3
ENDMDL
MODEL 9
REMARK VINA RESULT:      -6.8      4.872      7.146
REMARK  Name = 
REMARK  5 active torsions:
REMARK  status: ('A' for Active; 'I' for Inactive)
REMARK    1  A    between atoms: C_1  and  C_2
REMARK    2  A    between atoms: C_4  and  C_5
REMARK    3  A    between atoms: C_7  and  S_8
REMARK    4  A    between atoms: S_8  and  C_9
REMARK    5  A    between atoms: C_15  and  C_16
REMARK                            x       y       z     vdW  Elec       q    Type
REMARK                         _______ _______ _______ _____ _____    ______ ____
ROOT
ATOM      1  C   UNL     1      -0.740  11.621  21.056  0.00  0.00    +0.000 A 
ATOM      2  C   UNL     1      -1.243  11.646  22.351  0.00  0.00    +0.000 A 
ATOM      3  N   UNL     1      -0.991  10.715  23.292  0.00  0.00    +0.000 NA
ATOM      4  C   UNL     1      -0.216   9.658  22.964  0.00  0.00    +0.000 A 
ATOM      5  C   UNL     1       0.306   9.540  21.672  0.00  0.00    +0.000 A 
ATOM      6  S   UNL     1       1.284   8.258  21.068  0.00  0.00    +0.000 S 
ATOM      7  C   UNL     1       1.387   8.948  19.511  0.00  0.00    +0.000 A 
ATOM      8  C   UNL     1       0.696  10.141  19.456  0.00  0.00    +0.000 A 
ATOM      9  C   UNL     1       0.060  10.510  20.694  0.00  0.00    +0.000 A 
ENDROOT
BRANCH   7  10
ATOM     10  C   UNL     1       2.114   8.325  18.420  0.00  0.00    +0.000 C 
ATOM     11  N   UNL     1       2.615   7.070  18.632  0.00  0.00    +0.000 N 
ATOM     12  O   UNL     1       2.299   8.859  17.328  0.00  0.00    +0.000 OA
ATOM     13  H   UNL     1       2.488   6.579  19.505  0.00  0.00    +0.000 HD
ATOM     14  H   UNL     1       3.118   6.632  17.875  0.00  0.00    +0.000 HD
ENDBRANCH   7  10
BRANCH   1  15
ATOM     15  S   UNL     1      -1.161  12.855  19.862  0.00  0.00    +0.000 S 
BRANCH  15  22
ATOM     16  C   UNL     1      -2.799  10.521  15.364  0.00  0.00    +0.000 C 
ATOM     17  C   UNL     1      -3.124  11.038  16.735  0.00  0.00    +0.000 A 
ATOM     18  C   UNL     1      -4.441  11.028  17.211  0.00  0.00    +0.000 A 
ATOM     19  C   UNL     1      -4.743  11.531  18.480  0.00  0.00    +0.000 A 
ATOM     20  C   UNL     1      -6.152  11.527  18.997  0.00  0.00    +0.000 C 
ATOM     21  C   UNL     1      -3.709  12.053  19.271  0.00  0.00    +0.000 A 
ATOM     22  C   UNL     1      -2.384  12.074  18.816  0.00  0.00    +0.000 A 
ATOM     23  C   UNL     1      -2.103  11.562  17.544  0.00  0.00    +0.000 A 
ENDBRANCH  15  22
ENDBRANCH   1  15
TORSDOF 3
ENDMDL
