MODEL 1
REMARK VINA RESULT:      -6.9      0.000      0.000
REMARK  Name = 
REMARK  6 active torsions:
REMARK  status: ('A' for Active; 'I' for Inactive)
REMARK    1  A    between atoms: C_1  and  C_2
REMARK    2  A    between atoms: C_7  and  N_8
REMARK    3  A    between atoms: C_9  and  C_11
REMARK    4  A    between atoms: N_14  and  C_15
REMARK    5  A    between atoms: C_17  and  C_18
REMARK    6  A    between atoms: C_21  and  C_22
REMARK                            x       y       z     vdW  Elec       q    Type
REMARK                         _______ _______ _______ _____ _____    ______ ____
ROOT
ATOM      1  C   UNL     1       2.180   3.248  21.922  0.00  0.00    +0.000 C 
ATOM      2  C   UNL     1       1.106   3.671  20.904  0.00  0.00    +0.000 C 
ATOM      3  C   UNL     1       0.607   2.446  20.111  0.00  0.00    +0.000 C 
ATOM      4  C   UNL     1       1.726   1.814  19.291  0.00  0.00    +0.000 C 
ATOM      5  C   UNL     1       2.521   2.869  18.596  0.00  0.00    +0.000 A 
ATOM      6  S   UNL     1       3.636   2.408  17.426  0.00  0.00    +0.000 S 
ATOM      7  C   UNL     1       3.937   4.014  16.951  0.00  0.00    +0.000 A 
ATOM      8  C   UNL     1       3.338   4.909  17.837  0.00  0.00    +0.000 A 
ATOM      9  C   UNL     1       2.500   4.235  18.826  0.00  0.00    +0.000 A 
ATOM     10  C   UNL     1       1.585   4.803  19.919  0.00  0.00    +0.000 C 
ATOM     11  C   UNL     1       2.154   5.978  20.713  0.00  0.00    +0.000 C 
ENDROOT
BRANCH   7  12
ATOM     12  N   UNL     1       4.745   4.232  15.831  0.00  0.00    +0.000 N 
ATOM     13  C   UNL     1       6.135   4.420  15.889  0.00  0.00    +0.000 C 
ATOM     14  O   UNL     1       6.824   4.373  16.907  0.00  0.00    +0.000 OA
ATOM     15  H   UNL     1       4.357   4.136  14.897  0.00  0.00    +0.000 HD
BRANCH  13  16
ATOM     16  C   UNL     1       6.791   4.634  14.587  0.00  0.00    +0.000 A 
ATOM     17  N   UNL     1       6.385   3.950  13.453  0.00  0.00    +0.000 NA
ATOM     18  C   UNL     1       7.138   4.437  12.502  0.00  0.00    +0.000 A 
ATOM     19  N   UNL     1       7.974   5.363  13.029  0.00  0.00    +0.000 N 
ATOM     20  C   UNL     1       8.931   6.165  12.316  0.00  0.00    +0.000 C 
ATOM     21  N   UNL     1       7.790   5.513  14.361  0.00  0.00    +0.000 NA
ENDBRANCH  13  16
ENDBRANCH   7  12
BRANCH   8  22
ATOM     22  C   UNL     1       3.493   6.330  17.704  0.00  0.00    +0.000 C 
ATOM     23  N   UNL     1       3.595   7.480  17.599  0.00  0.00    +0.000 NA
ENDBRANCH   8  22
TORSDOF 3
ENDMDL
MODEL 2
REMARK VINA RESULT:      -6.7      0.482      1.002
REMARK  Name = 
REMARK  6 active torsions:
REMARK  status: ('A' for Active; 'I' for Inactive)
REMARK    1  A    between atoms: C_1  and  C_2
REMARK    2  A    between atoms: C_7  and  N_8
REMARK    3  A    between atoms: C_9  and  C_11
REMARK    4  A    between atoms: N_14  and  C_15
REMARK    5  A    between atoms: C_17  and  C_18
REMARK    6  A    between atoms: C_21  and  C_22
REMARK                            x       y       z     vdW  Elec       q    Type
REMARK                         _______ _______ _______ _____ _____    ______ ____
ROOT
ATOM      1  C   UNL     1       2.209   3.300  21.948  0.00  0.00    +0.000 C 
ATOM      2  C   UNL     1       1.125   3.708  20.936  0.00  0.00    +0.000 C 
ATOM      3  C   UNL     1       0.634   2.476  20.150  0.00  0.00    +0.000 C 
ATOM      4  C   UNL     1       1.753   1.853  19.324  0.00  0.00    +0.000 C 
ATOM      5  C   UNL     1       2.533   2.915  18.621  0.00  0.00    +0.000 A 
ATOM      6  S   UNL     1       3.644   2.462  17.445  0.00  0.00    +0.000 S 
ATOM      7  C   UNL     1       3.926   4.071  16.964  0.00  0.00    +0.000 A 
ATOM      8  C   UNL     1       3.323   4.961  17.851  0.00  0.00    +0.000 A 
ATOM      9  C   UNL     1       2.499   4.282  18.848  0.00  0.00    +0.000 A 
ATOM     10  C   UNL     1       1.585   4.843  19.945  0.00  0.00    +0.000 C 
ATOM     11  C   UNL     1       2.147   6.026  20.732  0.00  0.00    +0.000 C 
ENDROOT
BRANCH   7  12
ATOM     12  N   UNL     1       4.724   4.294  15.838  0.00  0.00    +0.000 N 
ATOM     13  C   UNL     1       6.121   4.423  15.879  0.00  0.00    +0.000 C 
ATOM     14  O   UNL     1       6.824   4.312  16.882  0.00  0.00    +0.000 OA
ATOM     15  H   UNL     1       4.318   4.246  14.908  0.00  0.00    +0.000 HD
BRANCH  13  16
ATOM     16  C   UNL     1       6.765   4.655  14.573  0.00  0.00    +0.000 A 
ATOM     17  N   UNL     1       7.853   5.502  14.444  0.00  0.00    +0.000 NA
ATOM     18  C   UNL     1       8.182   5.407  13.183  0.00  0.00    +0.000 A 
ATOM     19  N   UNL     1       7.328   4.556  12.565  0.00  0.00    +0.000 N 
ATOM     20  C   UNL     1       7.370   4.142  11.188  0.00  0.00    +0.000 C 
ATOM     21  N   UNL     1       6.402   4.059  13.417  0.00  0.00    +0.000 NA
ENDBRANCH  13  16
ENDBRANCH   7  12
BRANCH   8  22
ATOM     22  C   UNL     1       3.462   6.384  17.713  0.00  0.00    +0.000 C 
ATOM     23  N   UNL     1       3.564   7.535  17.622  0.00  0.00    +0.000 NA
ENDBRANCH   8  22
TORSDOF 3
ENDMDL
MODEL 3
REMARK VINA RESULT:      -6.1      4.548      8.083
REMARK  Name = 
REMARK  6 active torsions:
REMARK  status: ('A' for Active; 'I' for Inactive)
REMARK    1  A    between atoms: C_1  and  C_2
REMARK    2  A    between atoms: C_7  and  N_8
REMARK    3  A    between atoms: C_9  and  C_11
REMARK    4  A    between atoms: N_14  and  C_15
REMARK    5  A    between atoms: C_17  and  C_18
REMARK    6  A    between atoms: C_21  and  C_22
REMARK                            x       y       z     vdW  Elec       q    Type
REMARK                         _______ _______ _______ _____ _____    ______ ____
ROOT
ATOM      1  C   UNL     1       6.746   4.401  17.198  0.00  0.00    +0.000 C 
ATOM      2  C   UNL     1       5.390   4.092  16.539  0.00  0.00    +0.000 C 
ATOM      3  C   UNL     1       5.119   5.077  15.384  0.00  0.00    +0.000 C 
ATOM      4  C   UNL     1       5.018   6.513  15.882  0.00  0.00    +0.000 C 
ATOM      5  C   UNL     1       4.182   6.578  17.117  0.00  0.00    +0.000 A 
ATOM      6  S   UNL     1       3.706   8.081  17.698  0.00  0.00    +0.000 S 
ATOM      7  C   UNL     1       2.673   7.401  18.868  0.00  0.00    +0.000 A 
ATOM      8  C   UNL     1       2.860   6.022  18.947  0.00  0.00    +0.000 A 
ATOM      9  C   UNL     1       3.765   5.523  17.913  0.00  0.00    +0.000 A 
ATOM     10  C   UNL     1       4.184   4.092  17.553  0.00  0.00    +0.000 C 
ATOM     11  C   UNL     1       4.498   3.178  18.736  0.00  0.00    +0.000 C 
ENDROOT
BRANCH   7  12
ATOM     12  N   UNL     1       1.851   8.261  19.604  0.00  0.00    +0.000 N 
ATOM     13  C   UNL     1       1.023   9.238  19.029  0.00  0.00    +0.000 C 
ATOM     14  O   UNL     1       0.874   9.435  17.824  0.00  0.00    +0.000 OA
ATOM     15  H   UNL     1       1.730   8.119  20.603  0.00  0.00    +0.000 HD
BRANCH  13  16
ATOM     16  C   UNL     1       0.239  10.035  19.990  0.00  0.00    +0.000 A 
ATOM     17  N   UNL     1      -0.527  11.113  19.579  0.00  0.00    +0.000 NA
ATOM     18  C   UNL     1      -1.114  11.522  20.674  0.00  0.00    +0.000 A 
ATOM     19  N   UNL     1      -0.715  10.742  21.708  0.00  0.00    +0.000 N 
ATOM     20  C   UNL     1      -1.159  10.828  23.072  0.00  0.00    +0.000 C 
ATOM     21  N   UNL     1       0.156   9.785  21.314  0.00  0.00    +0.000 NA
ENDBRANCH  13  16
ENDBRANCH   7  12
BRANCH   8  22
ATOM     22  C   UNL     1       2.160   5.212  19.903  0.00  0.00    +0.000 C 
ATOM     23  N   UNL     1       1.574   4.564  20.666  0.00  0.00    +0.000 NA
ENDBRANCH   8  22
TORSDOF 3
ENDMDL
MODEL 4
REMARK VINA RESULT:      -6.1      3.854      6.621
REMARK  Name = 
REMARK  6 active torsions:
REMARK  status: ('A' for Active; 'I' for Inactive)
REMARK    1  A    between atoms: C_1  and  C_2
REMARK    2  A    between atoms: C_7  and  N_8
REMARK    3  A    between atoms: C_9  and  C_11
REMARK    4  A    between atoms: N_14  and  C_15
REMARK    5  A    between atoms: C_17  and  C_18
REMARK    6  A    between atoms: C_21  and  C_22
REMARK                            x       y       z     vdW  Elec       q    Type
REMARK                         _______ _______ _______ _____ _____    ______ ____
ROOT
ATOM      1  C   UNL     1       1.861   1.924  18.757  0.00  0.00    +0.000 C 
ATOM      2  C   UNL     1       3.150   2.383  19.460  0.00  0.00    +0.000 C 
ATOM      3  C   UNL     1       2.898   2.577  20.968  0.00  0.00    +0.000 C 
ATOM      4  C   UNL     1       1.874   3.675  21.230  0.00  0.00    +0.000 C 
ATOM      5  C   UNL     1       2.153   4.862  20.369  0.00  0.00    +0.000 A 
ATOM      6  S   UNL     1       1.325   6.294  20.666  0.00  0.00    +0.000 S 
ATOM      7  C   UNL     1       2.267   7.175  19.556  0.00  0.00    +0.000 A 
ATOM      8  C   UNL     1       3.073   6.318  18.807  0.00  0.00    +0.000 A 
ATOM      9  C   UNL     1       3.004   4.937  19.278  0.00  0.00    +0.000 A 
ATOM     10  C   UNL     1       3.776   3.687  18.836  0.00  0.00    +0.000 C 
ATOM     11  C   UNL     1       3.944   3.513  17.327  0.00  0.00    +0.000 C 
ENDROOT
BRANCH   7  12
ATOM     12  N   UNL     1       2.092   8.561  19.492  0.00  0.00    +0.000 N 
ATOM     13  C   UNL     1       1.528   9.231  18.395  0.00  0.00    +0.000 C 
ATOM     14  O   UNL     1       1.077   8.699  17.382  0.00  0.00    +0.000 OA
ATOM     15  H   UNL     1       2.259   9.134  20.314  0.00  0.00    +0.000 HD
BRANCH  13  16
ATOM     16  C   UNL     1       1.437  10.695  18.539  0.00  0.00    +0.000 A 
ATOM     17  N   UNL     1       0.329  11.298  19.111  0.00  0.00    +0.000 NA
ATOM     18  C   UNL     1       0.630  12.570  19.125  0.00  0.00    +0.000 A 
ATOM     19  N   UNL     1       1.856  12.741  18.573  0.00  0.00    +0.000 N 
ATOM     20  C   UNL     1       2.574  13.979  18.438  0.00  0.00    +0.000 C 
ATOM     21  N   UNL     1       2.402  11.568  18.179  0.00  0.00    +0.000 NA
ENDBRANCH  13  16
ENDBRANCH   7  12
BRANCH   8  22
ATOM     22  C   UNL     1       3.920   6.798  17.751  0.00  0.00    +0.000 C 
ATOM     23  N   UNL     1       4.586   7.200  16.893  0.00  0.00    +0.000 NA
ENDBRANCH   8  22
TORSDOF 3
ENDMDL
MODEL 5
REMARK VINA RESULT:      -6.0      4.527      7.950
REMARK  Name = 
REMARK  6 active torsions:
REMARK  status: ('A' for Active; 'I' for Inactive)
REMARK    1  A    between atoms: C_1  and  C_2
REMARK    2  A    between atoms: C_7  and  N_8
REMARK    3  A    between atoms: C_9  and  C_11
REMARK    4  A    between atoms: N_14  and  C_15
REMARK    5  A    between atoms: C_17  and  C_18
REMARK    6  A    between atoms: C_21  and  C_22
REMARK                            x       y       z     vdW  Elec       q    Type
REMARK                         _______ _______ _______ _____ _____    ______ ____
ROOT
ATOM      1  C   UNL     1       6.929   4.471  17.501  0.00  0.00    +0.000 C 
ATOM      2  C   UNL     1       5.613   4.015  16.848  0.00  0.00    +0.000 C 
ATOM      3  C   UNL     1       5.327   4.846  15.581  0.00  0.00    +0.000 C 
ATOM      4  C   UNL     1       5.134   6.322  15.909  0.00  0.00    +0.000 C 
ATOM      5  C   UNL     1       4.258   6.478  17.108  0.00  0.00    +0.000 A 
ATOM      6  S   UNL     1       3.684   8.007  17.502  0.00  0.00    +0.000 S 
ATOM      7  C   UNL     1       2.653   7.407  18.715  0.00  0.00    +0.000 A 
ATOM      8  C   UNL     1       2.910   6.058  18.955  0.00  0.00    +0.000 A 
ATOM      9  C   UNL     1       3.872   5.498  18.008  0.00  0.00    +0.000 A 
ATOM     10  C   UNL     1       4.377   4.061  17.824  0.00  0.00    +0.000 C 
ATOM     11  C   UNL     1       4.702   3.304  19.111  0.00  0.00    +0.000 C 
ENDROOT
BRANCH   7  12
ATOM     12  N   UNL     1       1.763   8.296  19.327  0.00  0.00    +0.000 N 
ATOM     13  C   UNL     1       1.237   9.436  18.699  0.00  0.00    +0.000 C 
ATOM     14  O   UNL     1       1.445   9.776  17.536  0.00  0.00    +0.000 OA
ATOM     15  H   UNL     1       1.360   8.071  20.232  0.00  0.00    +0.000 HD
BRANCH  13  16
ATOM     16  C   UNL     1       0.317  10.235  19.528  0.00  0.00    +0.000 A 
ATOM     17  N   UNL     1       0.536  10.414  20.884  0.00  0.00    +0.000 NA
ATOM     18  C   UNL     1      -0.429  11.212  21.259  0.00  0.00    +0.000 A 
ATOM     19  N   UNL     1      -1.211  11.496  20.189  0.00  0.00    +0.000 N 
ATOM     20  C   UNL     1      -2.350  12.372  20.164  0.00  0.00    +0.000 C 
ATOM     21  N   UNL     1      -0.772  10.885  19.065  0.00  0.00    +0.000 NA
ENDBRANCH  13  16
ENDBRANCH   7  12
BRANCH   8  22
ATOM     22  C   UNL     1       2.223   5.322  19.979  0.00  0.00    +0.000 C 
ATOM     23  N   UNL     1       1.679   4.710  20.799  0.00  0.00    +0.000 NA
ENDBRANCH   8  22
TORSDOF 3
ENDMDL
MODEL 6
REMARK VINA RESULT:      -5.9      3.956      7.212
REMARK  Name = 
REMARK  6 active torsions:
REMARK  status: ('A' for Active; 'I' for Inactive)
REMARK    1  A    between atoms: C_1  and  C_2
REMARK    2  A    between atoms: C_7  and  N_8
REMARK    3  A    between atoms: C_9  and  C_11
REMARK    4  A    between atoms: N_14  and  C_15
REMARK    5  A    between atoms: C_17  and  C_18
REMARK    6  A    between atoms: C_21  and  C_22
REMARK                            x       y       z     vdW  Elec       q    Type
REMARK                         _______ _______ _______ _____ _____    ______ ____
ROOT
ATOM      1  C   UNL     1       2.981   1.615  18.436  0.00  0.00    +0.000 C 
ATOM      2  C   UNL     1       4.147   2.318  19.152  0.00  0.00    +0.000 C 
ATOM      3  C   UNL     1       3.882   2.385  20.669  0.00  0.00    +0.000 C 
ATOM      4  C   UNL     1       2.645   3.215  20.987  0.00  0.00    +0.000 C 
ATOM      5  C   UNL     1       2.640   4.472  20.180  0.00  0.00    +0.000 A 
ATOM      6  S   UNL     1       1.521   5.670  20.549  0.00  0.00    +0.000 S 
ATOM      7  C   UNL     1       2.227   6.786  19.475  0.00  0.00    +0.000 A 
ATOM      8  C   UNL     1       3.191   6.163  18.683  0.00  0.00    +0.000 A 
ATOM      9  C   UNL     1       3.437   4.781  19.090  0.00  0.00    +0.000 A 
ATOM     10  C   UNL     1       4.459   3.754  18.585  0.00  0.00    +0.000 C 
ATOM     11  C   UNL     1       4.638   3.689  17.069  0.00  0.00    +0.000 C 
ENDROOT
BRANCH   7  12
ATOM     12  N   UNL     1       1.748   8.100  19.477  0.00  0.00    +0.000 N 
ATOM     13  C   UNL     1       1.354   8.790  20.634  0.00  0.00    +0.000 C 
ATOM     14  O   UNL     1       1.419   8.359  21.784  0.00  0.00    +0.000 OA
ATOM     15  H   UNL     1       1.787   8.657  18.629  0.00  0.00    +0.000 HD
BRANCH  13  16
ATOM     16  C   UNL     1       0.880  10.167  20.408  0.00  0.00    +0.000 A 
ATOM     17  N   UNL     1       1.022  11.148  21.375  0.00  0.00    +0.000 NA
ATOM     18  C   UNL     1       0.555  12.227  20.805  0.00  0.00    +0.000 A 
ATOM     19  N   UNL     1       0.134  11.920  19.554  0.00  0.00    +0.000 N 
ATOM     20  C   UNL     1      -0.404  12.830  18.579  0.00  0.00    +0.000 C 
ATOM     21  N   UNL     1       0.317  10.612  19.264  0.00  0.00    +0.000 NA
ENDBRANCH  13  16
ENDBRANCH   7  12
BRANCH   8  22
ATOM     22  C   UNL     1       3.893   6.865  17.646  0.00  0.00    +0.000 C 
ATOM     23  N   UNL     1       4.470   7.444  16.824  0.00  0.00    +0.000 NA
ENDBRANCH   8  22
TORSDOF 3
ENDMDL
MODEL 7
REMARK VINA RESULT:      -5.8      3.993      7.286
REMARK  Name = 
REMARK  6 active torsions:
REMARK  status: ('A' for Active; 'I' for Inactive)
REMARK    1  A    between atoms: C_1  and  C_2
REMARK    2  A    between atoms: C_7  and  N_8
REMARK    3  A    between atoms: C_9  and  C_11
REMARK    4  A    between atoms: N_14  and  C_15
REMARK    5  A    between atoms: C_17  and  C_18
REMARK    6  A    between atoms: C_21  and  C_22
REMARK                            x       y       z     vdW  Elec       q    Type
REMARK                         _______ _______ _______ _____ _____    ______ ____
ROOT
ATOM      1  C   UNL     1       2.670   1.586  18.453  0.00  0.00    +0.000 C 
ATOM      2  C   UNL     1       3.894   2.207  19.148  0.00  0.00    +0.000 C 
ATOM      3  C   UNL     1       3.666   2.279  20.671  0.00  0.00    +0.000 C 
ATOM      4  C   UNL     1       2.491   3.184  21.021  0.00  0.00    +0.000 C 
ATOM      5  C   UNL     1       2.549   4.444  20.223  0.00  0.00    +0.000 A 
ATOM      6  S   UNL     1       1.517   5.708  20.624  0.00  0.00    +0.000 S 
ATOM      7  C   UNL     1       2.271   6.785  19.542  0.00  0.00    +0.000 A 
ATOM      8  C   UNL     1       3.176   6.109  18.725  0.00  0.00    +0.000 A 
ATOM      9  C   UNL     1       3.341   4.711  19.118  0.00  0.00    +0.000 A 
ATOM     10  C   UNL     1       4.285   3.625  18.585  0.00  0.00    +0.000 C 
ATOM     11  C   UNL     1       4.427   3.560  17.065  0.00  0.00    +0.000 C 
ENDROOT
BRANCH   7  12
ATOM     12  N   UNL     1       1.877   8.127  19.563  0.00  0.00    +0.000 N 
ATOM     13  C   UNL     1       1.335   8.769  20.688  0.00  0.00    +0.000 C 
ATOM     14  O   UNL     1       1.180   8.264  21.798  0.00  0.00    +0.000 OA
ATOM     15  H   UNL     1       2.090   8.733  18.776  0.00  0.00    +0.000 HD
BRANCH  13  16
ATOM     16  C   UNL     1       0.989  10.188  20.489  0.00  0.00    +0.000 A 
ATOM     17  N   UNL     1       0.563  10.663  19.260  0.00  0.00    +0.000 NA
ATOM     18  C   UNL     1       0.294  11.922  19.481  0.00  0.00    +0.000 A 
ATOM     19  N   UNL     1       0.555  12.210  20.779  0.00  0.00    +0.000 N 
ATOM     20  C   UNL     1       0.351  13.470  21.440  0.00  0.00    +0.000 C 
ATOM     21  N   UNL     1       1.009  11.130  21.456  0.00  0.00    +0.000 NA
ENDBRANCH  13  16
ENDBRANCH   7  12
BRANCH   8  22
ATOM     22  C   UNL     1       3.899   6.772  17.678  0.00  0.00    +0.000 C 
ATOM     23  N   UNL     1       4.465   7.307  16.820  0.00  0.00    +0.000 NA
ENDBRANCH   8  22
TORSDOF 3
ENDMDL
MODEL 8
REMARK VINA RESULT:      -5.8      4.605      8.245
REMARK  Name = 
REMARK  6 active torsions:
REMARK  status: ('A' for Active; 'I' for Inactive)
REMARK    1  A    between atoms: C_1  and  C_2
REMARK    2  A    between atoms: C_7  and  N_8
REMARK    3  A    between atoms: C_9  and  C_11
REMARK    4  A    between atoms: N_14  and  C_15
REMARK    5  A    between atoms: C_17  and  C_18
REMARK    6  A    between atoms: C_21  and  C_22
REMARK                            x       y       z     vdW  Elec       q    Type
REMARK                         _______ _______ _______ _____ _____    ______ ____
ROOT
ATOM      1  C   UNL     1       6.527   4.264  17.080  0.00  0.00    +0.000 C 
ATOM      2  C   UNL     1       5.149   4.125  16.410  0.00  0.00    +0.000 C 
ATOM      3  C   UNL     1       4.891   5.314  15.463  0.00  0.00    +0.000 C 
ATOM      4  C   UNL     1       4.848   6.636  16.221  0.00  0.00    +0.000 C 
ATOM      5  C   UNL     1       4.039   6.495  17.467  0.00  0.00    +0.000 A 
ATOM      6  S   UNL     1       3.626   7.878  18.328  0.00  0.00    +0.000 S 
ATOM      7  C   UNL     1       2.593   7.025  19.378  0.00  0.00    +0.000 A 
ATOM      8  C   UNL     1       2.734   5.650  19.196  0.00  0.00    +0.000 A 
ATOM      9  C   UNL     1       3.601   5.324  18.065  0.00  0.00    +0.000 A 
ATOM     10  C   UNL     1       3.964   3.973  17.436  0.00  0.00    +0.000 C 
ATOM     11  C   UNL     1       4.269   2.846  18.421  0.00  0.00    +0.000 C 
ENDROOT
BRANCH   7  12
ATOM     12  N   UNL     1       1.815   7.757  20.281  0.00  0.00    +0.000 N 
ATOM     13  C   UNL     1       1.085   8.905  19.936  0.00  0.00    +0.000 C 
ATOM     14  O   UNL     1       0.993   9.386  18.807  0.00  0.00    +0.000 OA
ATOM     15  H   UNL     1       1.650   7.400  21.217  0.00  0.00    +0.000 HD
BRANCH  13  16
ATOM     16  C   UNL     1       0.333   9.522  21.043  0.00  0.00    +0.000 A 
ATOM     17  N   UNL     1       0.273   8.930  22.294  0.00  0.00    +0.000 NA
ATOM     18  C   UNL     1      -0.412   9.778  23.015  0.00  0.00    +0.000 A 
ATOM     19  N   UNL     1      -0.768  10.832  22.241  0.00  0.00    +0.000 N 
ATOM     20  C   UNL     1      -1.489  12.003  22.659  0.00  0.00    +0.000 C 
ATOM     21  N   UNL     1      -0.318  10.703  20.971  0.00  0.00    +0.000 NA
ENDBRANCH  13  16
ENDBRANCH   7  12
BRANCH   8  22
ATOM     22  C   UNL     1       2.025   4.698  20.004  0.00  0.00    +0.000 C 
ATOM     23  N   UNL     1       1.436   3.946  20.660  0.00  0.00    +0.000 NA
ENDBRANCH   8  22
TORSDOF 3
ENDMDL
MODEL 9
REMARK VINA RESULT:      -5.7      8.693     10.544
REMARK  Name = 
REMARK  6 active torsions:
REMARK  status: ('A' for Active; 'I' for Inactive)
REMARK    1  A    between atoms: C_1  and  C_2
REMARK    2  A    between atoms: C_7  and  N_8
REMARK    3  A    between atoms: C_9  and  C_11
REMARK    4  A    between atoms: N_14  and  C_15
REMARK    5  A    between atoms: C_17  and  C_18
REMARK    6  A    between atoms: C_21  and  C_22
REMARK                            x       y       z     vdW  Elec       q    Type
REMARK                         _______ _______ _______ _____ _____    ______ ____
ROOT
ATOM      1  C   UNL     1       9.768  16.621  20.117  0.00  0.00    +0.000 C 
ATOM      2  C   UNL     1      10.807  15.836  20.935  0.00  0.00    +0.000 C 
ATOM      3  C   UNL     1      12.033  15.501  20.063  0.00  0.00    +0.000 C 
ATOM      4  C   UNL     1      11.661  14.596  18.895  0.00  0.00    +0.000 C 
ATOM      5  C   UNL     1      10.759  13.498  19.353  0.00  0.00    +0.000 A 
ATOM      6  S   UNL     1      10.430  12.226  18.306  0.00  0.00    +0.000 S 
ATOM      7  C   UNL     1       9.617  11.331  19.505  0.00  0.00    +0.000 A 
ATOM      8  C   UNL     1       9.419  12.106  20.647  0.00  0.00    +0.000 A 
ATOM      9  C   UNL     1      10.088  13.403  20.562  0.00  0.00    +0.000 A 
ATOM     10  C   UNL     1      10.229  14.528  21.596  0.00  0.00    +0.000 C 
ATOM     11  C   UNL     1       8.966  14.859  22.390  0.00  0.00    +0.000 C 
ENDROOT
BRANCH   7  12
ATOM     12  N   UNL     1       9.221  10.025  19.201  0.00  0.00    +0.000 N 
ATOM     13  C   UNL     1       8.339   9.694  18.160  0.00  0.00    +0.000 C 
ATOM     14  O   UNL     1       7.842  10.486  17.361  0.00  0.00    +0.000 OA
ATOM     15  H   UNL     1       9.669   9.237  19.660  0.00  0.00    +0.000 HD
BRANCH  13  16
ATOM     16  C   UNL     1       8.058   8.255  18.016  0.00  0.00    +0.000 A 
ATOM     17  N   UNL     1       8.413   7.346  18.999  0.00  0.00    +0.000 NA
ATOM     18  C   UNL     1       7.955   6.204  18.558  0.00  0.00    +0.000 A 
ATOM     19  N   UNL     1       7.362   6.400  17.355  0.00  0.00    +0.000 N 
ATOM     20  C   UNL     1       6.695   5.410  16.554  0.00  0.00    +0.000 C 
ATOM     21  N   UNL     1       7.413   7.695  16.970  0.00  0.00    +0.000 NA
ENDBRANCH  13  16
ENDBRANCH   7  12
BRANCH   8  22
ATOM     22  C   UNL     1       8.698  11.613  21.786  0.00  0.00    +0.000 C 
ATOM     23  N   UNL     1       8.131  11.200  22.709  0.00  0.00    +0.000 NA
ENDBRANCH   8  22
TORSDOF 3
ENDMDL
