MODEL 1
REMARK VINA RESULT:      -8.2      0.000      0.000
REMARK  Name = 
REMARK  6 active torsions:
REMARK  status: ('A' for Active; 'I' for Inactive)
REMARK    1  A    between atoms: C_1  and  C_2
REMARK    2  A    between atoms: C_5  and  C_6
REMARK    3  A    between atoms: C_7  and  N_8
REMARK    4  A    between atoms: C_9  and  C_11
REMARK    5  A    between atoms: N_15  and  C_16
REMARK    6  A    between atoms: C_23  and  C_24
REMARK                            x       y       z     vdW  Elec       q    Type
REMARK                         _______ _______ _______ _____ _____    ______ ____
ROOT
ATOM      1  C   UNL     1       5.781   6.761  16.996  0.00  0.00    +0.000 C 
ATOM      2  C   UNL     1       7.141   6.569  17.700  0.00  0.00    +0.000 C 
ATOM      3  C   UNL     1       7.239   5.424  18.709  0.00  0.00    +0.000 C 
ATOM      4  C   UNL     1       5.938   5.190  19.457  0.00  0.00    +0.000 C 
ATOM      5  N   UNL     1       4.910   4.979  18.462  0.00  0.00    +0.000 N 
ATOM      6  C   UNL     1       4.548   6.157  17.677  0.00  0.00    +0.000 C 
ENDROOT
BRANCH   5   7
ATOM      7  C   UNL     1       3.929   4.018  18.623  0.00  0.00    +0.000 A 
ATOM      8  N   UNL     1       4.181   2.820  18.028  0.00  0.00    +0.000 NA
ATOM      9  C   UNL     1       3.355   1.779  18.234  0.00  0.00    +0.000 A 
ATOM     10  N   UNL     1       2.256   1.752  18.987  0.00  0.00    +0.000 NA
ATOM     11  C   UNL     1       2.009   2.955  19.525  0.00  0.00    +0.000 A 
ATOM     12  O   UNL     1       0.932   3.201  20.320  0.00  0.00    +0.000 OA
ATOM     13  N   UNL     1       0.910   4.534  20.678  0.00  0.00    +0.000 NA
ATOM     14  C   UNL     1       1.978   5.088  20.088  0.00  0.00    +0.000 A 
ATOM     15  C   UNL     1       2.147   6.557  20.188  0.00  0.00    +0.000 C 
ATOM     16  C   UNL     1       2.751   4.117  19.387  0.00  0.00    +0.000 A 
ENDBRANCH   5   7
BRANCH   1  18
ATOM     17  N   UNL     1       6.443   5.248  15.177  0.00  0.00    +0.000 N 
ATOM     18  C   UNL     1       5.761   6.396  15.518  0.00  0.00    +0.000 C 
ATOM     19  O   UNL     1       5.074   7.058  14.746  0.00  0.00    +0.000 OA
ATOM     20  H   UNL     1       6.458   4.541  15.903  0.00  0.00    +0.000 HD
BRANCH  17  27
ATOM     21  C   UNL     1       4.395   2.638  11.563  0.00  0.00    +0.000 C 
ATOM     22  C   UNL     1       5.563   3.425  12.080  0.00  0.00    +0.000 A 
ATOM     23  C   UNL     1       6.652   3.707  11.254  0.00  0.00    +0.000 A 
ATOM     24  C   UNL     1       7.696   4.509  11.717  0.00  0.00    +0.000 A 
ATOM     25  C   UNL     1       7.677   5.058  13.013  0.00  0.00    +0.000 A 
ATOM     26  C   UNL     1       8.860   5.882  13.436  0.00  0.00    +0.000 C 
ATOM     27  C   UNL     1       6.575   4.779  13.847  0.00  0.00    +0.000 A 
ATOM     28  C   UNL     1       5.545   3.944  13.380  0.00  0.00    +0.000 A 
ENDBRANCH  17  27
ENDBRANCH   1  18
TORSDOF 3
ENDMDL
MODEL 2
REMARK VINA RESULT:      -7.4      5.414      7.839
REMARK  Name = 
REMARK  6 active torsions:
REMARK  status: ('A' for Active; 'I' for Inactive)
REMARK    1  A    between atoms: C_1  and  C_2
REMARK    2  A    between atoms: C_5  and  C_6
REMARK    3  A    between atoms: C_7  and  N_8
REMARK    4  A    between atoms: C_9  and  C_11
REMARK    5  A    between atoms: N_15  and  C_16
REMARK    6  A    between atoms: C_23  and  C_24
REMARK                            x       y       z     vdW  Elec       q    Type
REMARK                         _______ _______ _______ _____ _____    ______ ____
ROOT
ATOM      1  C   UNL     1       1.702   9.211  19.670  0.00  0.00    +0.000 C 
ATOM      2  C   UNL     1       1.282   8.674  21.054  0.00  0.00    +0.000 C 
ATOM      3  C   UNL     1      -0.197   8.806  21.424  0.00  0.00    +0.000 C 
ATOM      4  C   UNL     1      -0.833  10.061  20.851  0.00  0.00    +0.000 C 
ATOM      5  N   UNL     1      -0.609  10.036  19.424  0.00  0.00    +0.000 N 
ATOM      6  C   UNL     1       0.776  10.236  19.004  0.00  0.00    +0.000 C 
ENDROOT
BRANCH   5   7
ATOM      7  C   UNL     1      -1.588  10.422  18.527  0.00  0.00    +0.000 A 
ATOM      8  N   UNL     1      -1.518   9.841  17.298  0.00  0.00    +0.000 NA
ATOM      9  C   UNL     1      -2.496  10.048  16.399  0.00  0.00    +0.000 A 
ATOM     10  N   UNL     1      -3.595  10.786  16.551  0.00  0.00    +0.000 NA
ATOM     11  C   UNL     1      -3.617  11.380  17.752  0.00  0.00    +0.000 A 
ATOM     12  O   UNL     1      -4.622  12.206  18.149  0.00  0.00    +0.000 OA
ATOM     13  N   UNL     1      -4.345  12.711  19.405  0.00  0.00    +0.000 NA
ATOM     14  C   UNL     1      -3.163  12.185  19.756  0.00  0.00    +0.000 A 
ATOM     15  C   UNL     1      -2.540  12.651  21.018  0.00  0.00    +0.000 C 
ATOM     16  C   UNL     1      -2.678  11.280  18.767  0.00  0.00    +0.000 A 
ENDBRANCH   5   7
BRANCH   1  18
ATOM     17  N   UNL     1       2.707   7.029  19.158  0.00  0.00    +0.000 N 
ATOM     18  C   UNL     1       2.080   8.146  18.651  0.00  0.00    +0.000 C 
ATOM     19  O   UNL     1       1.724   8.280  17.483  0.00  0.00    +0.000 OA
ATOM     20  H   UNL     1       2.433   6.791  20.104  0.00  0.00    +0.000 HD
BRANCH  17  27
ATOM     21  C   UNL     1       5.998   5.583  15.820  0.00  0.00    +0.000 C 
ATOM     22  C   UNL     1       4.787   5.276  16.650  0.00  0.00    +0.000 A 
ATOM     23  C   UNL     1       4.233   3.995  16.654  0.00  0.00    +0.000 A 
ATOM     24  C   UNL     1       3.158   3.697  17.491  0.00  0.00    +0.000 A 
ATOM     25  C   UNL     1       2.613   4.665  18.355  0.00  0.00    +0.000 A 
ATOM     26  C   UNL     1       1.435   4.262  19.196  0.00  0.00    +0.000 C 
ATOM     27  C   UNL     1       3.174   5.958  18.357  0.00  0.00    +0.000 A 
ATOM     28  C   UNL     1       4.237   6.255  17.486  0.00  0.00    +0.000 A 
ENDBRANCH  17  27
ENDBRANCH   1  18
TORSDOF 3
ENDMDL
MODEL 3
REMARK VINA RESULT:      -7.4      5.870      9.307
REMARK  Name = 
REMARK  6 active torsions:
REMARK  status: ('A' for Active; 'I' for Inactive)
REMARK    1  A    between atoms: C_1  and  C_2
REMARK    2  A    between atoms: C_5  and  C_6
REMARK    3  A    between atoms: C_7  and  N_8
REMARK    4  A    between atoms: C_9  and  C_11
REMARK    5  A    between atoms: N_15  and  C_16
REMARK    6  A    between atoms: C_23  and  C_24
REMARK                            x       y       z     vdW  Elec       q    Type
REMARK                         _______ _______ _______ _____ _____    ______ ____
ROOT
ATOM      1  C   UNL     1       0.992   9.354  22.271  0.00  0.00    +0.000 C 
ATOM      2  C   UNL     1      -0.066   9.503  23.385  0.00  0.00    +0.000 C 
ATOM      3  C   UNL     1      -1.092  10.625  23.213  0.00  0.00    +0.000 C 
ATOM      4  C   UNL     1      -0.513  11.847  22.522  0.00  0.00    +0.000 C 
ATOM      5  N   UNL     1       0.047  11.399  21.268  0.00  0.00    +0.000 N 
ATOM      6  C   UNL     1       1.248  10.573  21.378  0.00  0.00    +0.000 C 
ENDROOT
BRANCH   5   7
ATOM      7  C   UNL     1      -0.092  12.134  20.105  0.00  0.00    +0.000 A 
ATOM      8  N   UNL     1      -0.824  11.542  19.122  0.00  0.00    +0.000 NA
ATOM      9  C   UNL     1      -1.130  12.225  18.005  0.00  0.00    +0.000 A 
ATOM     10  N   UNL     1      -0.798  13.481  17.706  0.00  0.00    +0.000 NA
ATOM     11  C   UNL     1      -0.042  14.024  18.671  0.00  0.00    +0.000 A 
ATOM     12  O   UNL     1       0.448  15.292  18.599  0.00  0.00    +0.000 OA
ATOM     13  N   UNL     1       1.232  15.553  19.704  0.00  0.00    +0.000 NA
ATOM     14  C   UNL     1       1.215  14.432  20.437  0.00  0.00    +0.000 A 
ATOM     15  C   UNL     1       2.084  14.369  21.637  0.00  0.00    +0.000 C 
ATOM     16  C   UNL     1       0.369  13.441  19.858  0.00  0.00    +0.000 A 
ENDBRANCH   5   7
BRANCH   1  18
ATOM     17  N   UNL     1       2.011   7.556  20.944  0.00  0.00    +0.000 N 
ATOM     18  C   UNL     1       0.837   8.119  21.394  0.00  0.00    +0.000 C 
ATOM     19  O   UNL     1      -0.280   7.639  21.225  0.00  0.00    +0.000 OA
ATOM     20  H   UNL     1       2.796   7.669  21.574  0.00  0.00    +0.000 HD
BRANCH  17  27
ATOM     21  C   UNL     1       1.409   2.704  20.534  0.00  0.00    +0.000 C 
ATOM     22  C   UNL     1       1.814   4.007  19.912  0.00  0.00    +0.000 A 
ATOM     23  C   UNL     1       2.148   4.077  18.559  0.00  0.00    +0.000 A 
ATOM     24  C   UNL     1       2.443   5.307  17.970  0.00  0.00    +0.000 A 
ATOM     25  C   UNL     1       2.405   6.501  18.713  0.00  0.00    +0.000 A 
ATOM     26  C   UNL     1       2.770   7.774  18.002  0.00  0.00    +0.000 C 
ATOM     27  C   UNL     1       2.063   6.434  20.079  0.00  0.00    +0.000 A 
ATOM     28  C   UNL     1       1.798   5.186  20.668  0.00  0.00    +0.000 A 
ENDBRANCH  17  27
ENDBRANCH   1  18
TORSDOF 3
ENDMDL
MODEL 4
REMARK VINA RESULT:      -7.4      2.468      7.689
REMARK  Name = 
REMARK  6 active torsions:
REMARK  status: ('A' for Active; 'I' for Inactive)
REMARK    1  A    between atoms: C_1  and  C_2
REMARK    2  A    between atoms: C_5  and  C_6
REMARK    3  A    between atoms: C_7  and  N_8
REMARK    4  A    between atoms: C_9  and  C_11
REMARK    5  A    between atoms: N_15  and  C_16
REMARK    6  A    between atoms: C_23  and  C_24
REMARK                            x       y       z     vdW  Elec       q    Type
REMARK                         _______ _______ _______ _____ _____    ______ ____
ROOT
ATOM      1  C   UNL     1       2.204   4.441  18.997  0.00  0.00    +0.000 C 
ATOM      2  C   UNL     1       2.575   3.287  19.951  0.00  0.00    +0.000 C 
ATOM      3  C   UNL     1       3.873   2.535  19.651  0.00  0.00    +0.000 C 
ATOM      4  C   UNL     1       4.161   2.436  18.163  0.00  0.00    +0.000 C 
ATOM      5  N   UNL     1       4.156   3.783  17.640  0.00  0.00    +0.000 N 
ATOM      6  C   UNL     1       2.849   4.436  17.606  0.00  0.00    +0.000 C 
ENDROOT
BRANCH   5   7
ATOM      7  C   UNL     1       5.080   4.202  16.702  0.00  0.00    +0.000 A 
ATOM      8  N   UNL     1       4.867   3.761  15.431  0.00  0.00    +0.000 NA
ATOM      9  C   UNL     1       5.631   4.218  14.423  0.00  0.00    +0.000 A 
ATOM     10  N   UNL     1       6.628   5.099  14.495  0.00  0.00    +0.000 NA
ATOM     11  C   UNL     1       6.844   5.482  15.761  0.00  0.00    +0.000 A 
ATOM     12  O   UNL     1       7.823   6.361  16.109  0.00  0.00    +0.000 OA
ATOM     13  N   UNL     1       7.842   6.521  17.480  0.00  0.00    +0.000 NA
ATOM     14  C   UNL     1       6.871   5.728  17.953  0.00  0.00    +0.000 A 
ATOM     15  C   UNL     1       6.735   5.592  19.423  0.00  0.00    +0.000 C 
ATOM     16  C   UNL     1       6.159   5.085  16.898  0.00  0.00    +0.000 A 
ENDBRANCH   5   7
BRANCH   1  18
ATOM     17  N   UNL     1       1.158   6.573  19.623  0.00  0.00    +0.000 N 
ATOM     18  C   UNL     1       2.322   5.837  19.594  0.00  0.00    +0.000 C 
ATOM     19  O   UNL     1       3.384   6.185  20.100  0.00  0.00    +0.000 OA
ATOM     20  H   UNL     1       0.316   6.019  19.721  0.00  0.00    +0.000 HD
BRANCH  17  27
ATOM     21  C   UNL     1       0.113   9.488  23.429  0.00  0.00    +0.000 C 
ATOM     22  C   UNL     1       0.502   9.343  21.987  0.00  0.00    +0.000 A 
ATOM     23  C   UNL     1       0.824  10.465  21.221  0.00  0.00    +0.000 A 
ATOM     24  C   UNL     1       1.264  10.315  19.906  0.00  0.00    +0.000 A 
ATOM     25  C   UNL     1       1.404   9.042  19.322  0.00  0.00    +0.000 A 
ATOM     26  C   UNL     1       1.853   8.980  17.889  0.00  0.00    +0.000 C 
ATOM     27  C   UNL     1       1.084   7.907  20.095  0.00  0.00    +0.000 A 
ATOM     28  C   UNL     1       0.613   8.073  21.409  0.00  0.00    +0.000 A 
ENDBRANCH  17  27
ENDBRANCH   1  18
TORSDOF 3
ENDMDL
MODEL 5
REMARK VINA RESULT:      -7.3      5.563      7.950
REMARK  Name = 
REMARK  6 active torsions:
REMARK  status: ('A' for Active; 'I' for Inactive)
REMARK    1  A    between atoms: C_1  and  C_2
REMARK    2  A    between atoms: C_5  and  C_6
REMARK    3  A    between atoms: C_7  and  N_8
REMARK    4  A    between atoms: C_9  and  C_11
REMARK    5  A    between atoms: N_15  and  C_16
REMARK    6  A    between atoms: C_23  and  C_24
REMARK                            x       y       z     vdW  Elec       q    Type
REMARK                         _______ _______ _______ _____ _____    ______ ____
ROOT
ATOM      1  C   UNL     1       1.609   9.392  19.469  0.00  0.00    +0.000 C 
ATOM      2  C   UNL     1       1.268   9.069  20.939  0.00  0.00    +0.000 C 
ATOM      3  C   UNL     1      -0.176   9.315  21.381  0.00  0.00    +0.000 C 
ATOM      4  C   UNL     1      -0.806  10.507  20.682  0.00  0.00    +0.000 C 
ATOM      5  N   UNL     1      -0.683  10.278  19.260  0.00  0.00    +0.000 N 
ATOM      6  C   UNL     1       0.675  10.356  18.728  0.00  0.00    +0.000 C 
ENDROOT
BRANCH   5   7
ATOM      7  C   UNL     1      -1.708  10.581  18.383  0.00  0.00    +0.000 A 
ATOM      8  N   UNL     1      -1.624   9.995  17.157  0.00  0.00    +0.000 NA
ATOM      9  C   UNL     1      -2.635  10.119  16.280  0.00  0.00    +0.000 A 
ATOM     10  N   UNL     1      -3.782  10.774  16.452  0.00  0.00    +0.000 NA
ATOM     11  C   UNL     1      -3.820  11.377  17.648  0.00  0.00    +0.000 A 
ATOM     12  O   UNL     1      -4.875  12.130  18.062  0.00  0.00    +0.000 OA
ATOM     13  N   UNL     1      -4.608  12.666  19.306  0.00  0.00    +0.000 NA
ATOM     14  C   UNL     1      -3.383  12.234  19.634  0.00  0.00    +0.000 A 
ATOM     15  C   UNL     1      -2.768  12.757  20.877  0.00  0.00    +0.000 C 
ATOM     16  C   UNL     1      -2.854  11.358  18.641  0.00  0.00    +0.000 A 
ENDBRANCH   5   7
BRANCH   1  18
ATOM     17  N   UNL     1       2.422   7.088  19.221  0.00  0.00    +0.000 N 
ATOM     18  C   UNL     1       1.876   8.182  18.586  0.00  0.00    +0.000 C 
ATOM     19  O   UNL     1       1.507   8.200  17.415  0.00  0.00    +0.000 OA
ATOM     20  H   UNL     1       2.151   6.992  20.192  0.00  0.00    +0.000 HD
BRANCH  17  27
ATOM     21  C   UNL     1       1.351   2.357  18.488  0.00  0.00    +0.000 C 
ATOM     22  C   UNL     1       2.266   3.521  18.249  0.00  0.00    +0.000 A 
ATOM     23  C   UNL     1       3.346   3.408  17.372  0.00  0.00    +0.000 A 
ATOM     24  C   UNL     1       4.143   4.519  17.093  0.00  0.00    +0.000 A 
ATOM     25  C   UNL     1       3.877   5.774  17.672  0.00  0.00    +0.000 A 
ATOM     26  C   UNL     1       4.809   6.905  17.337  0.00  0.00    +0.000 C 
ATOM     27  C   UNL     1       2.784   5.891  18.554  0.00  0.00    +0.000 A 
ATOM     28  C   UNL     1       2.008   4.758  18.852  0.00  0.00    +0.000 A 
ENDBRANCH  17  27
ENDBRANCH   1  18
TORSDOF 3
ENDMDL
MODEL 6
REMARK VINA RESULT:      -7.1      7.225     10.360
REMARK  Name = 
REMARK  6 active torsions:
REMARK  status: ('A' for Active; 'I' for Inactive)
REMARK    1  A    between atoms: C_1  and  C_2
REMARK    2  A    between atoms: C_5  and  C_6
REMARK    3  A    between atoms: C_7  and  N_8
REMARK    4  A    between atoms: C_9  and  C_11
REMARK    5  A    between atoms: N_15  and  C_16
REMARK    6  A    between atoms: C_23  and  C_24
REMARK                            x       y       z     vdW  Elec       q    Type
REMARK                         _______ _______ _______ _____ _____    ______ ____
ROOT
ATOM      1  C   UNL     1      -0.365  12.128  18.498  0.00  0.00    +0.000 C 
ATOM      2  C   UNL     1       0.671  13.071  19.144  0.00  0.00    +0.000 C 
ATOM      3  C   UNL     1       0.190  13.915  20.326  0.00  0.00    +0.000 C 
ATOM      4  C   UNL     1      -1.264  14.332  20.194  0.00  0.00    +0.000 C 
ATOM      5  N   UNL     1      -2.036  13.124  20.013  0.00  0.00    +0.000 N 
ATOM      6  C   UNL     1      -1.847  12.446  18.734  0.00  0.00    +0.000 C 
ENDROOT
BRANCH   5   7
ATOM      7  C   UNL     1      -3.259  12.943  20.633  0.00  0.00    +0.000 A 
ATOM      8  N   UNL     1      -4.315  12.743  19.798  0.00  0.00    +0.000 NA
ATOM      9  C   UNL     1      -5.521  12.426  20.301  0.00  0.00    +0.000 A 
ATOM     10  N   UNL     1      -5.849  12.267  21.582  0.00  0.00    +0.000 NA
ATOM     11  C   UNL     1      -4.803  12.512  22.384  0.00  0.00    +0.000 A 
ATOM     12  O   UNL     1      -4.880  12.441  23.740  0.00  0.00    +0.000 OA
ATOM     13  N   UNL     1      -3.667  12.798  24.296  0.00  0.00    +0.000 NA
ATOM     14  C   UNL     1      -2.864  13.089  23.264  0.00  0.00    +0.000 A 
ATOM     15  C   UNL     1      -1.517  13.633  23.560  0.00  0.00    +0.000 C 
ATOM     16  C   UNL     1      -3.515  12.867  22.015  0.00  0.00    +0.000 A 
ENDBRANCH   5   7
BRANCH   1  18
ATOM     17  N   UNL     1       1.106  10.312  19.252  0.00  0.00    +0.000 N 
ATOM     18  C   UNL     1      -0.130  10.644  18.743  0.00  0.00    +0.000 C 
ATOM     19  O   UNL     1      -1.057   9.855  18.583  0.00  0.00    +0.000 OA
ATOM     20  H   UNL     1       1.519  11.023  19.843  0.00  0.00    +0.000 HD
BRANCH  17  27
ATOM     21  C   UNL     1       3.520   6.416  17.501  0.00  0.00    +0.000 C 
ATOM     22  C   UNL     1       2.680   7.030  18.580  0.00  0.00    +0.000 A 
ATOM     23  C   UNL     1       2.407   6.329  19.755  0.00  0.00    +0.000 A 
ATOM     24  C   UNL     1       1.694   6.938  20.789  0.00  0.00    +0.000 A 
ATOM     25  C   UNL     1       1.243   8.267  20.681  0.00  0.00    +0.000 A 
ATOM     26  C   UNL     1       0.456   8.828  21.831  0.00  0.00    +0.000 C 
ATOM     27  C   UNL     1       1.522   8.979  19.497  0.00  0.00    +0.000 A 
ATOM     28  C   UNL     1       2.214   8.345  18.452  0.00  0.00    +0.000 A 
ENDBRANCH  17  27
ENDBRANCH   1  18
TORSDOF 3
ENDMDL
MODEL 7
REMARK VINA RESULT:      -7.0      7.977     11.253
REMARK  Name = 
REMARK  6 active torsions:
REMARK  status: ('A' for Active; 'I' for Inactive)
REMARK    1  A    between atoms: C_1  and  C_2
REMARK    2  A    between atoms: C_5  and  C_6
REMARK    3  A    between atoms: C_7  and  N_8
REMARK    4  A    between atoms: C_9  and  C_11
REMARK    5  A    between atoms: N_15  and  C_16
REMARK    6  A    between atoms: C_23  and  C_24
REMARK                            x       y       z     vdW  Elec       q    Type
REMARK                         _______ _______ _______ _____ _____    ______ ____
ROOT
ATOM      1  C   UNL     1      -1.667  12.353  18.821  0.00  0.00    +0.000 C 
ATOM      2  C   UNL     1      -0.620  13.476  18.973  0.00  0.00    +0.000 C 
ATOM      3  C   UNL     1      -0.705  14.332  20.238  0.00  0.00    +0.000 C 
ATOM      4  C   UNL     1      -2.133  14.534  20.712  0.00  0.00    +0.000 C 
ATOM      5  N   UNL     1      -2.714  13.221  20.879  0.00  0.00    +0.000 N 
ATOM      6  C   UNL     1      -2.956  12.481  19.643  0.00  0.00    +0.000 C 
ENDROOT
BRANCH   5   7
ATOM      7  C   UNL     1      -3.535  12.920  21.950  0.00  0.00    +0.000 A 
ATOM      8  N   UNL     1      -2.938  12.258  22.979  0.00  0.00    +0.000 NA
ATOM      9  C   UNL     1      -3.614  12.036  24.120  0.00  0.00    +0.000 A 
ATOM     10  N   UNL     1      -4.865  12.397  24.404  0.00  0.00    +0.000 NA
ATOM     11  C   UNL     1      -5.443  13.006  23.360  0.00  0.00    +0.000 A 
ATOM     12  O   UNL     1      -6.727  13.453  23.384  0.00  0.00    +0.000 OA
ATOM     13  N   UNL     1      -7.061  13.984  22.154  0.00  0.00    +0.000 NA
ATOM     14  C   UNL     1      -5.969  13.848  21.390  0.00  0.00    +0.000 A 
ATOM     15  C   UNL     1      -6.069  14.218  19.958  0.00  0.00    +0.000 C 
ATOM     16  C   UNL     1      -4.884  13.285  22.123  0.00  0.00    +0.000 A 
ENDBRANCH   5   7
BRANCH   1  18
ATOM     17  N   UNL     1       0.094  10.828  19.598  0.00  0.00    +0.000 N 
ATOM     18  C   UNL     1      -1.124  10.939  18.965  0.00  0.00    +0.000 C 
ATOM     19  O   UNL     1      -1.822   9.990  18.619  0.00  0.00    +0.000 OA
ATOM     20  H   UNL     1       0.267  11.541  20.297  0.00  0.00    +0.000 HD
BRANCH  17  27
ATOM     21  C   UNL     1       3.194   7.571  17.636  0.00  0.00    +0.000 C 
ATOM     22  C   UNL     1       2.278   7.962  18.757  0.00  0.00    +0.000 A 
ATOM     23  C   UNL     1       2.186   7.176  19.907  0.00  0.00    +0.000 A 
ATOM     24  C   UNL     1       1.395   7.589  20.979  0.00  0.00    +0.000 A 
ATOM     25  C   UNL     1       0.682   8.802  20.937  0.00  0.00    +0.000 A 
ATOM     26  C   UNL     1      -0.170   9.149  22.126  0.00  0.00    +0.000 C 
ATOM     27  C   UNL     1       0.777   9.600  19.779  0.00  0.00    +0.000 A 
ATOM     28  C   UNL     1       1.552   9.158  18.694  0.00  0.00    +0.000 A 
ENDBRANCH  17  27
ENDBRANCH   1  18
TORSDOF 3
ENDMDL
MODEL 8
REMARK VINA RESULT:      -7.0      2.268      7.247
REMARK  Name = 
REMARK  6 active torsions:
REMARK  status: ('A' for Active; 'I' for Inactive)
REMARK    1  A    between atoms: C_1  and  C_2
REMARK    2  A    between atoms: C_5  and  C_6
REMARK    3  A    between atoms: C_7  and  N_8
REMARK    4  A    between atoms: C_9  and  C_11
REMARK    5  A    between atoms: N_15  and  C_16
REMARK    6  A    between atoms: C_23  and  C_24
REMARK                            x       y       z     vdW  Elec       q    Type
REMARK                         _______ _______ _______ _____ _____    ______ ____
ROOT
ATOM      1  C   UNL     1       2.242   3.475  19.517  0.00  0.00    +0.000 C 
ATOM      2  C   UNL     1       3.027   2.803  20.662  0.00  0.00    +0.000 C 
ATOM      3  C   UNL     1       4.547   2.726  20.503  0.00  0.00    +0.000 C 
ATOM      4  C   UNL     1       4.975   2.544  19.056  0.00  0.00    +0.000 C 
ATOM      5  N   UNL     1       4.383   3.625  18.302  0.00  0.00    +0.000 N 
ATOM      6  C   UNL     1       2.931   3.562  18.149  0.00  0.00    +0.000 C 
ENDROOT
BRANCH   5   7
ATOM      7  C   UNL     1       5.079   4.283  17.304  0.00  0.00    +0.000 A 
ATOM      8  N   UNL     1       4.658   4.035  16.034  0.00  0.00    +0.000 NA
ATOM      9  C   UNL     1       5.181   4.724  15.004  0.00  0.00    +0.000 A 
ATOM     10  N   UNL     1       6.110   5.677  15.055  0.00  0.00    +0.000 NA
ATOM     11  C   UNL     1       6.538   5.870  16.311  0.00  0.00    +0.000 A 
ATOM     12  O   UNL     1       7.502   6.775  16.631  0.00  0.00    +0.000 OA
ATOM     13  N   UNL     1       7.772   6.711  17.984  0.00  0.00    +0.000 NA
ATOM     14  C   UNL     1       6.966   5.758  18.472  0.00  0.00    +0.000 A 
ATOM     15  C   UNL     1       7.124   5.372  19.894  0.00  0.00    +0.000 C 
ATOM     16  C   UNL     1       6.112   5.227  17.462  0.00  0.00    +0.000 A 
ENDBRANCH   5   7
BRANCH   1  18
ATOM     17  N   UNL     1       2.331   5.926  19.387  0.00  0.00    +0.000 N 
ATOM     18  C   UNL     1       1.639   4.831  19.855  0.00  0.00    +0.000 C 
ATOM     19  O   UNL     1       0.548   4.880  20.416  0.00  0.00    +0.000 OA
ATOM     20  H   UNL     1       2.830   5.764  18.521  0.00  0.00    +0.000 HD
BRANCH  17  27
ATOM     21  C   UNL     1       0.467   9.065  22.665  0.00  0.00    +0.000 C 
ATOM     22  C   UNL     1       0.964   8.801  21.275  0.00  0.00    +0.000 A 
ATOM     23  C   UNL     1       1.088   9.842  20.354  0.00  0.00    +0.000 A 
ATOM     24  C   UNL     1       1.629   9.602  19.090  0.00  0.00    +0.000 A 
ATOM     25  C   UNL     1       2.069   8.319  18.715  0.00  0.00    +0.000 A 
ATOM     26  C   UNL     1       2.608   8.148  17.322  0.00  0.00    +0.000 C 
ATOM     27  C   UNL     1       1.949   7.266  19.645  0.00  0.00    +0.000 A 
ATOM     28  C   UNL     1       1.374   7.514  20.903  0.00  0.00    +0.000 A 
ENDBRANCH  17  27
ENDBRANCH   1  18
TORSDOF 3
ENDMDL
MODEL 9
REMARK VINA RESULT:      -7.0      9.261     12.893
REMARK  Name = 
REMARK  6 active torsions:
REMARK  status: ('A' for Active; 'I' for Inactive)
REMARK    1  A    between atoms: C_1  and  C_2
REMARK    2  A    between atoms: C_5  and  C_6
REMARK    3  A    between atoms: C_7  and  N_8
REMARK    4  A    between atoms: C_9  and  C_11
REMARK    5  A    between atoms: N_15  and  C_16
REMARK    6  A    between atoms: C_23  and  C_24
REMARK                            x       y       z     vdW  Elec       q    Type
REMARK                         _______ _______ _______ _____ _____    ______ ____
ROOT
ATOM      1  C   UNL     1      -4.090  13.181  23.301  0.00  0.00    +0.000 C 
ATOM      2  C   UNL     1      -3.655  14.660  23.371  0.00  0.00    +0.000 C 
ATOM      3  C   UNL     1      -2.174  14.954  23.122  0.00  0.00    +0.000 C 
ATOM      4  C   UNL     1      -1.264  13.851  23.634  0.00  0.00    +0.000 C 
ATOM      5  N   UNL     1      -1.705  12.620  23.021  0.00  0.00    +0.000 N 
ATOM      6  C   UNL     1      -2.999  12.119  23.480  0.00  0.00    +0.000 C 
ENDROOT
BRANCH   5   7
ATOM      7  C   UNL     1      -0.807  11.676  22.558  0.00  0.00    +0.000 A 
ATOM      8  N   UNL     1      -0.587  10.619  23.388  0.00  0.00    +0.000 NA
ATOM      9  C   UNL     1       0.165   9.584  22.975  0.00  0.00    +0.000 A 
ATOM     10  N   UNL     1       0.761   9.435  21.793  0.00  0.00    +0.000 NA
ATOM     11  C   UNL     1       0.565  10.507  21.013  0.00  0.00    +0.000 A 
ATOM     12  O   UNL     1       1.088  10.615  19.762  0.00  0.00    +0.000 OA
ATOM     13  N   UNL     1       0.766  11.846  19.225  0.00  0.00    +0.000 NA
ATOM     14  C   UNL     1       0.050  12.477  20.165  0.00  0.00    +0.000 A 
ATOM     15  C   UNL     1      -0.333  13.888  19.920  0.00  0.00    +0.000 C 
ATOM     16  C   UNL     1      -0.162  11.649  21.306  0.00  0.00    +0.000 A 
ENDBRANCH   5   7
BRANCH   1  18
ATOM     17  N   UNL     1      -4.520  13.317  20.887  0.00  0.00    +0.000 N 
ATOM     18  C   UNL     1      -4.946  12.815  22.097  0.00  0.00    +0.000 C 
ATOM     19  O   UNL     1      -5.881  12.032  22.240  0.00  0.00    +0.000 OA
ATOM     20  H   UNL     1      -3.516  13.432  20.814  0.00  0.00    +0.000 HD
BRANCH  17  27
ATOM     21  C   UNL     1      -4.587  10.986  16.570  0.00  0.00    +0.000 C 
ATOM     22  C   UNL     1      -5.197  11.995  17.497  0.00  0.00    +0.000 A 
ATOM     23  C   UNL     1      -6.399  12.626  17.171  0.00  0.00    +0.000 A 
ATOM     24  C   UNL     1      -7.001  13.501  18.076  0.00  0.00    +0.000 A 
ATOM     25  C   UNL     1      -6.426  13.763  19.333  0.00  0.00    +0.000 A 
ATOM     26  C   UNL     1      -7.129  14.744  20.228  0.00  0.00    +0.000 C 
ATOM     27  C   UNL     1      -5.214  13.123  19.667  0.00  0.00    +0.000 A 
ATOM     28  C   UNL     1      -4.602  12.268  18.735  0.00  0.00    +0.000 A 
ENDBRANCH  17  27
ENDBRANCH   1  18
TORSDOF 3
ENDMDL
