MODEL 1
REMARK VINA RESULT:      -7.3      0.000      0.000
REMARK  Name = 
REMARK  1 active torsions:
REMARK  status: ('A' for Active; 'I' for Inactive)
REMARK    1  A    between atoms: C_14  and  C_15
REMARK                            x       y       z     vdW  Elec       q    Type
REMARK                         _______ _______ _______ _____ _____    ______ ____
ROOT
ATOM      1  F   UNL     1       0.476   2.954  20.319  0.00  0.00    +0.000 F 
ATOM      2  C   UNL     1       1.509   2.935  19.467  0.00  0.00    +0.000 A 
ATOM      3  C   UNL     1       2.256   1.777  19.328  0.00  0.00    +0.000 A 
ATOM      4  C   UNL     1       3.338   1.787  18.461  0.00  0.00    +0.000 A 
ATOM      5  F   UNL     1       4.083   0.675  18.343  0.00  0.00    +0.000 F 
ATOM      6  C   UNL     1       3.712   2.946  17.755  0.00  0.00    +0.000 A 
ATOM      7  C   UNL     1       2.910   4.097  17.862  0.00  0.00    +0.000 A 
ATOM      8  C   UNL     1       1.811   4.081  18.736  0.00  0.00    +0.000 A 
ATOM      9  C   UNL     1       3.212   5.331  17.051  0.00  0.00    +0.000 C 
ATOM     10  C   UNL     1       3.582   6.568  17.826  0.00  0.00    +0.000 C 
ATOM     11  C   UNL     1       4.511   7.288  17.182  0.00  0.00    +0.000 C 
ATOM     12  C   UNL     1       4.916   6.629  15.901  0.00  0.00    +0.000 C 
ATOM     13  C   UNL     1       4.423   5.189  16.107  0.00  0.00    +0.000 C 
ATOM     14  C   UNL     1       5.494   4.215  16.669  0.00  0.00    +0.000 C 
ATOM     15  N   UNL     1       4.855   2.924  16.937  0.00  0.00    +0.000 N 
ATOM     16  H   UNL     1       5.500   2.177  17.194  0.00  0.00    +0.000 HD
ENDROOT
BRANCH  14  17
ATOM     17  C   UNL     1       6.368   4.708  17.821  0.00  0.00    +0.000 A 
ATOM     18  C   UNL     1       7.483   5.515  17.555  0.00  0.00    +0.000 A 
ATOM     19  C   UNL     1       8.190   6.112  18.599  0.00  0.00    +0.000 A 
ATOM     20  C   UNL     1       7.781   5.864  19.895  0.00  0.00    +0.000 A 
ATOM     21  N   UNL     1       6.758   5.051  20.207  0.00  0.00    +0.000 NA
ATOM     22  C   UNL     1       6.081   4.497  19.169  0.00  0.00    +0.000 A 
ENDBRANCH  14  17
TORSDOF 1
ENDMDL
MODEL 2
REMARK VINA RESULT:      -7.2      2.542      5.008
REMARK  Name = 
REMARK  1 active torsions:
REMARK  status: ('A' for Active; 'I' for Inactive)
REMARK    1  A    between atoms: C_14  and  C_15
REMARK                            x       y       z     vdW  Elec       q    Type
REMARK                         _______ _______ _______ _____ _____    ______ ____
ROOT
ATOM      1  F   UNL     1       6.472   5.201  13.658  0.00  0.00    +0.000 F 
ATOM      2  C   UNL     1       6.376   5.198  14.994  0.00  0.00    +0.000 A 
ATOM      3  C   UNL     1       7.359   4.575  15.746  0.00  0.00    +0.000 A 
ATOM      4  C   UNL     1       7.226   4.560  17.127  0.00  0.00    +0.000 A 
ATOM      5  F   UNL     1       8.162   3.934  17.859  0.00  0.00    +0.000 F 
ATOM      6  C   UNL     1       6.109   5.125  17.771  0.00  0.00    +0.000 A 
ATOM      7  C   UNL     1       5.149   5.804  16.998  0.00  0.00    +0.000 A 
ATOM      8  C   UNL     1       5.290   5.824  15.601  0.00  0.00    +0.000 A 
ATOM      9  C   UNL     1       3.987   6.510  17.648  0.00  0.00    +0.000 C 
ATOM     10  C   UNL     1       2.615   5.982  17.323  0.00  0.00    +0.000 C 
ATOM     11  C   UNL     1       1.799   6.057  18.384  0.00  0.00    +0.000 C 
ATOM     12  C   UNL     1       2.508   6.618  19.575  0.00  0.00    +0.000 C 
ATOM     13  C   UNL     1       3.984   6.438  19.189  0.00  0.00    +0.000 C 
ATOM     14  C   UNL     1       4.633   5.131  19.717  0.00  0.00    +0.000 C 
ATOM     15  N   UNL     1       5.988   5.028  19.167  0.00  0.00    +0.000 N 
ATOM     16  H   UNL     1       6.546   4.266  19.551  0.00  0.00    +0.000 HD
ENDROOT
BRANCH  14  17
ATOM     17  C   UNL     1       3.831   3.837  19.591  0.00  0.00    +0.000 A 
ATOM     18  C   UNL     1       2.805   3.561  20.506  0.00  0.00    +0.000 A 
ATOM     19  C   UNL     1       1.953   2.475  20.307  0.00  0.00    +0.000 A 
ATOM     20  C   UNL     1       2.165   1.666  19.206  0.00  0.00    +0.000 A 
ATOM     21  N   UNL     1       3.170   1.851  18.334  0.00  0.00    +0.000 NA
ATOM     22  C   UNL     1       3.972   2.925  18.546  0.00  0.00    +0.000 A 
ENDBRANCH  14  17
TORSDOF 1
ENDMDL
MODEL 3
REMARK VINA RESULT:      -7.2      1.152      1.378
REMARK  Name = 
REMARK  1 active torsions:
REMARK  status: ('A' for Active; 'I' for Inactive)
REMARK    1  A    between atoms: C_14  and  C_15
REMARK                            x       y       z     vdW  Elec       q    Type
REMARK                         _______ _______ _______ _____ _____    ______ ____
ROOT
ATOM      1  F   UNL     1       1.088   2.579  22.081  0.00  0.00    +0.000 F 
ATOM      2  C   UNL     1       1.664   2.800  20.893  0.00  0.00    +0.000 A 
ATOM      3  C   UNL     1       2.255   1.745  20.216  0.00  0.00    +0.000 A 
ATOM      4  C   UNL     1       2.870   2.001  18.999  0.00  0.00    +0.000 A 
ATOM      5  F   UNL     1       3.469   0.987  18.352  0.00  0.00    +0.000 F 
ATOM      6  C   UNL     1       2.938   3.299  18.460  0.00  0.00    +0.000 A 
ATOM      7  C   UNL     1       2.283   4.349  19.130  0.00  0.00    +0.000 A 
ATOM      8  C   UNL     1       1.655   4.086  20.359  0.00  0.00    +0.000 A 
ATOM      9  C   UNL     1       2.242   5.738  18.545  0.00  0.00    +0.000 C 
ATOM     10  C   UNL     1       2.933   6.818  19.333  0.00  0.00    +0.000 C 
ATOM     11  C   UNL     1       3.519   7.713  18.526  0.00  0.00    +0.000 C 
ATOM     12  C   UNL     1       3.330   7.351  17.087  0.00  0.00    +0.000 C 
ATOM     13  C   UNL     1       2.937   5.868  17.175  0.00  0.00    +0.000 C 
ATOM     14  C   UNL     1       4.123   4.877  17.021  0.00  0.00    +0.000 C 
ATOM     15  N   UNL     1       3.627   3.519  17.256  0.00  0.00    +0.000 N 
ATOM     16  H   UNL     1       4.302   2.780  17.057  0.00  0.00    +0.000 HD
ENDROOT
BRANCH  14  17
ATOM     17  C   UNL     1       5.412   5.190  17.778  0.00  0.00    +0.000 A 
ATOM     18  C   UNL     1       6.380   6.019  17.194  0.00  0.00    +0.000 A 
ATOM     19  C   UNL     1       7.481   6.451  17.933  0.00  0.00    +0.000 A 
ATOM     20  C   UNL     1       7.605   6.019  19.240  0.00  0.00    +0.000 A 
ATOM     21  N   UNL     1       6.739   5.176  19.827  0.00  0.00    +0.000 NA
ATOM     22  C   UNL     1       5.671   4.786  19.087  0.00  0.00    +0.000 A 
ENDBRANCH  14  17
TORSDOF 1
ENDMDL
MODEL 4
REMARK VINA RESULT:      -7.1      2.113      3.744
REMARK  Name = 
REMARK  1 active torsions:
REMARK  status: ('A' for Active; 'I' for Inactive)
REMARK    1  A    between atoms: C_14  and  C_15
REMARK                            x       y       z     vdW  Elec       q    Type
REMARK                         _______ _______ _______ _____ _____    ______ ____
ROOT
ATOM      1  F   UNL     1       2.330   1.813  20.221  0.00  0.00    +0.000 F 
ATOM      2  C   UNL     1       2.644   2.916  19.531  0.00  0.00    +0.000 A 
ATOM      3  C   UNL     1       1.709   3.472  18.672  0.00  0.00    +0.000 A 
ATOM      4  C   UNL     1       2.064   4.599  17.946  0.00  0.00    +0.000 A 
ATOM      5  F   UNL     1       1.171   5.125  17.092  0.00  0.00    +0.000 F 
ATOM      6  C   UNL     1       3.351   5.162  18.033  0.00  0.00    +0.000 A 
ATOM      7  C   UNL     1       4.270   4.622  18.951  0.00  0.00    +0.000 A 
ATOM      8  C   UNL     1       3.905   3.485  19.690  0.00  0.00    +0.000 A 
ATOM      9  C   UNL     1       5.626   5.249  19.153  0.00  0.00    +0.000 C 
ATOM     10  C   UNL     1       6.817   4.405  18.782  0.00  0.00    +0.000 C 
ATOM     11  C   UNL     1       7.798   5.150  18.254  0.00  0.00    +0.000 C 
ATOM     12  C   UNL     1       7.401   6.589  18.170  0.00  0.00    +0.000 C 
ATOM     13  C   UNL     1       5.872   6.512  18.303  0.00  0.00    +0.000 C 
ATOM     14  C   UNL     1       5.108   6.469  16.952  0.00  0.00    +0.000 C 
ATOM     15  N   UNL     1       3.684   6.265  17.228  0.00  0.00    +0.000 N 
ATOM     16  H   UNL     1       3.077   6.346  16.413  0.00  0.00    +0.000 HD
ENDROOT
BRANCH  14  17
ATOM     17  C   UNL     1       5.650   5.551  15.859  0.00  0.00    +0.000 A 
ATOM     18  C   UNL     1       4.971   4.365  15.544  0.00  0.00    +0.000 A 
ATOM     19  C   UNL     1       5.352   3.604  14.440  0.00  0.00    +0.000 A 
ATOM     20  C   UNL     1       6.428   4.032  13.686  0.00  0.00    +0.000 A 
ATOM     21  N   UNL     1       7.150   5.126  13.980  0.00  0.00    +0.000 NA
ATOM     22  C   UNL     1       6.745   5.854  15.051  0.00  0.00    +0.000 A 
ENDBRANCH  14  17
TORSDOF 1
ENDMDL
MODEL 5
REMARK VINA RESULT:      -6.9      1.589      2.196
REMARK  Name = 
REMARK  1 active torsions:
REMARK  status: ('A' for Active; 'I' for Inactive)
REMARK    1  A    between atoms: C_14  and  C_15
REMARK                            x       y       z     vdW  Elec       q    Type
REMARK                         _______ _______ _______ _____ _____    ______ ____
ROOT
ATOM      1  F   UNL     1       1.358   2.338  22.377  0.00  0.00    +0.000 F 
ATOM      2  C   UNL     1       1.747   2.708  21.150  0.00  0.00    +0.000 A 
ATOM      3  C   UNL     1       2.332   1.774  20.310  0.00  0.00    +0.000 A 
ATOM      4  C   UNL     1       2.752   2.185  19.053  0.00  0.00    +0.000 A 
ATOM      5  F   UNL     1       3.346   1.290  18.246  0.00  0.00    +0.000 F 
ATOM      6  C   UNL     1       2.631   3.522  18.631  0.00  0.00    +0.000 A 
ATOM      7  C   UNL     1       1.982   4.445  19.472  0.00  0.00    +0.000 A 
ATOM      8  C   UNL     1       1.552   4.025  20.741  0.00  0.00    +0.000 A 
ATOM      9  C   UNL     1       1.739   5.865  19.026  0.00  0.00    +0.000 C 
ATOM     10  C   UNL     1       2.432   6.943  19.815  0.00  0.00    +0.000 C 
ATOM     11  C   UNL     1       2.823   7.953  19.025  0.00  0.00    +0.000 C 
ATOM     12  C   UNL     1       2.474   7.688  17.595  0.00  0.00    +0.000 C 
ATOM     13  C   UNL     1       2.229   6.171  17.596  0.00  0.00    +0.000 C 
ATOM     14  C   UNL     1       3.466   5.319  17.204  0.00  0.00    +0.000 C 
ATOM     15  N   UNL     1       3.130   3.903  17.374  0.00  0.00    +0.000 N 
ATOM     16  H   UNL     1       3.834   3.254  17.025  0.00  0.00    +0.000 HD
ENDROOT
BRANCH  14  17
ATOM     17  C   UNL     1       4.813   5.698  17.815  0.00  0.00    +0.000 A 
ATOM     18  C   UNL     1       5.254   5.058  18.983  0.00  0.00    +0.000 A 
ATOM     19  C   UNL     1       6.548   5.267  19.459  0.00  0.00    +0.000 A 
ATOM     20  C   UNL     1       7.369   6.137  18.768  0.00  0.00    +0.000 A 
ATOM     21  N   UNL     1       6.977   6.821  17.680  0.00  0.00    +0.000 NA
ATOM     22  C   UNL     1       5.717   6.586  17.234  0.00  0.00    +0.000 A 
ENDBRANCH  14  17
TORSDOF 1
ENDMDL
MODEL 6
REMARK VINA RESULT:      -6.9      1.101      1.101
REMARK  Name = 
REMARK  1 active torsions:
REMARK  status: ('A' for Active; 'I' for Inactive)
REMARK    1  A    between atoms: C_14  and  C_15
REMARK                            x       y       z     vdW  Elec       q    Type
REMARK                         _______ _______ _______ _____ _____    ______ ____
ROOT
ATOM      1  F   UNL     1       1.480   3.409  22.092  0.00  0.00    +0.000 F 
ATOM      2  C   UNL     1       2.258   3.312  21.006  0.00  0.00    +0.000 A 
ATOM      3  C   UNL     1       3.039   2.182  20.826  0.00  0.00    +0.000 A 
ATOM      4  C   UNL     1       3.859   2.114  19.708  0.00  0.00    +0.000 A 
ATOM      5  F   UNL     1       4.639   1.033  19.543  0.00  0.00    +0.000 F 
ATOM      6  C   UNL     1       3.941   3.172  18.784  0.00  0.00    +0.000 A 
ATOM      7  C   UNL     1       3.099   4.288  18.949  0.00  0.00    +0.000 A 
ATOM      8  C   UNL     1       2.266   4.350  20.078  0.00  0.00    +0.000 A 
ATOM      9  C   UNL     1       3.078   5.402  17.934  0.00  0.00    +0.000 C 
ATOM     10  C   UNL     1       3.529   6.755  18.414  0.00  0.00    +0.000 C 
ATOM     11  C   UNL     1       4.198   7.415  17.458  0.00  0.00    +0.000 C 
ATOM     12  C   UNL     1       4.315   6.594  16.213  0.00  0.00    +0.000 C 
ATOM     13  C   UNL     1       4.014   5.178  16.729  0.00  0.00    +0.000 C 
ATOM     14  C   UNL     1       5.271   4.350  17.108  0.00  0.00    +0.000 C 
ATOM     15  N   UNL     1       4.833   3.084  17.702  0.00  0.00    +0.000 N 
ATOM     16  H   UNL     1       5.582   2.413  17.873  0.00  0.00    +0.000 HD
ENDROOT
BRANCH  14  17
ATOM     17  C   UNL     1       6.366   5.048  17.912  0.00  0.00    +0.000 A 
ATOM     18  C   UNL     1       7.111   6.081  17.326  0.00  0.00    +0.000 A 
ATOM     19  C   UNL     1       7.993   6.841  18.093  0.00  0.00    +0.000 A 
ATOM     20  C   UNL     1       8.134   6.530  19.432  0.00  0.00    +0.000 A 
ATOM     21  N   UNL     1       7.491   5.512  20.029  0.00  0.00    +0.000 NA
ATOM     22  C   UNL     1       6.629   4.801  19.259  0.00  0.00    +0.000 A 
ENDBRANCH  14  17
TORSDOF 1
ENDMDL
MODEL 7
REMARK VINA RESULT:      -6.7      2.569      4.922
REMARK  Name = 
REMARK  1 active torsions:
REMARK  status: ('A' for Active; 'I' for Inactive)
REMARK    1  A    between atoms: C_14  and  C_15
REMARK                            x       y       z     vdW  Elec       q    Type
REMARK                         _______ _______ _______ _____ _____    ______ ____
ROOT
ATOM      1  F   UNL     1       6.544   5.362  13.673  0.00  0.00    +0.000 F 
ATOM      2  C   UNL     1       6.422   5.322  15.006  0.00  0.00    +0.000 A 
ATOM      3  C   UNL     1       7.366   4.639  15.756  0.00  0.00    +0.000 A 
ATOM      4  C   UNL     1       7.206   4.588  17.133  0.00  0.00    +0.000 A 
ATOM      5  F   UNL     1       8.103   3.903  17.862  0.00  0.00    +0.000 F 
ATOM      6  C   UNL     1       6.100   5.176  17.774  0.00  0.00    +0.000 A 
ATOM      7  C   UNL     1       5.182   5.916  17.005  0.00  0.00    +0.000 A 
ATOM      8  C   UNL     1       5.350   5.971  15.612  0.00  0.00    +0.000 A 
ATOM      9  C   UNL     1       4.035   6.647  17.656  0.00  0.00    +0.000 C 
ATOM     10  C   UNL     1       2.650   6.183  17.291  0.00  0.00    +0.000 C 
ATOM     11  C   UNL     1       1.818   6.257  18.338  0.00  0.00    +0.000 C 
ATOM     12  C   UNL     1       2.525   6.754  19.559  0.00  0.00    +0.000 C 
ATOM     13  C   UNL     1       4.000   6.528  19.193  0.00  0.00    +0.000 C 
ATOM     14  C   UNL     1       4.588   5.181  19.692  0.00  0.00    +0.000 C 
ATOM     15  N   UNL     1       5.948   5.042  19.164  0.00  0.00    +0.000 N 
ATOM     16  H   UNL     1       6.468   4.247  19.535  0.00  0.00    +0.000 HD
ENDROOT
BRANCH  14  17
ATOM     17  C   UNL     1       3.739   3.924  19.512  0.00  0.00    +0.000 A 
ATOM     18  C   UNL     1       4.019   3.037  18.463  0.00  0.00    +0.000 A 
ATOM     19  C   UNL     1       3.368   1.806  18.384  0.00  0.00    +0.000 A 
ATOM     20  C   UNL     1       2.425   1.499  19.346  0.00  0.00    +0.000 A 
ATOM     21  N   UNL     1       2.075   2.338  20.336  0.00  0.00    +0.000 NA
ATOM     22  C   UNL     1       2.737   3.521  20.394  0.00  0.00    +0.000 A 
ENDBRANCH  14  17
TORSDOF 1
ENDMDL
MODEL 8
REMARK VINA RESULT:      -6.7      2.880      5.510
REMARK  Name = 
REMARK  1 active torsions:
REMARK  status: ('A' for Active; 'I' for Inactive)
REMARK    1  A    between atoms: C_14  and  C_15
REMARK                            x       y       z     vdW  Elec       q    Type
REMARK                         _______ _______ _______ _____ _____    ______ ____
ROOT
ATOM      1  F   UNL     1       8.543   7.016  18.655  0.00  0.00    +0.000 F 
ATOM      2  C   UNL     1       7.436   6.490  18.117  0.00  0.00    +0.000 A 
ATOM      3  C   UNL     1       6.739   7.205  17.156  0.00  0.00    +0.000 A 
ATOM      4  C   UNL     1       5.580   6.653  16.631  0.00  0.00    +0.000 A 
ATOM      5  F   UNL     1       4.885   7.355  15.720  0.00  0.00    +0.000 F 
ATOM      6  C   UNL     1       5.081   5.415  17.075  0.00  0.00    +0.000 A 
ATOM      7  C   UNL     1       5.829   4.674  18.008  0.00  0.00    +0.000 A 
ATOM      8  C   UNL     1       7.007   5.232  18.533  0.00  0.00    +0.000 A 
ATOM      9  C   UNL     1       5.389   3.299  18.441  0.00  0.00    +0.000 C 
ATOM     10  C   UNL     1       5.031   3.136  19.895  0.00  0.00    +0.000 C 
ATOM     11  C   UNL     1       4.009   2.284  20.054  0.00  0.00    +0.000 C 
ATOM     12  C   UNL     1       3.518   1.774  18.737  0.00  0.00    +0.000 C 
ATOM     13  C   UNL     1       4.102   2.801  17.754  0.00  0.00    +0.000 C 
ATOM     14  C   UNL     1       3.141   3.965  17.392  0.00  0.00    +0.000 C 
ATOM     15  N   UNL     1       3.868   4.927  16.560  0.00  0.00    +0.000 N 
ATOM     16  H   UNL     1       3.290   5.669  16.165  0.00  0.00    +0.000 HD
ENDROOT
BRANCH  14  17
ATOM     17  C   UNL     1       2.357   4.619  18.528  0.00  0.00    +0.000 A 
ATOM     18  C   UNL     1       1.353   3.897  19.188  0.00  0.00    +0.000 A 
ATOM     19  C   UNL     1       0.747   4.414  20.333  0.00  0.00    +0.000 A 
ATOM     20  C   UNL     1       1.140   5.661  20.779  0.00  0.00    +0.000 A 
ATOM     21  N   UNL     1       2.053   6.420  20.149  0.00  0.00    +0.000 NA
ATOM     22  C   UNL     1       2.635   5.883  19.047  0.00  0.00    +0.000 A 
ENDBRANCH  14  17
TORSDOF 1
ENDMDL
MODEL 9
REMARK VINA RESULT:      -6.6      1.989      3.608
REMARK  Name = 
REMARK  1 active torsions:
REMARK  status: ('A' for Active; 'I' for Inactive)
REMARK    1  A    between atoms: C_14  and  C_15
REMARK                            x       y       z     vdW  Elec       q    Type
REMARK                         _______ _______ _______ _____ _____    ______ ____
ROOT
ATOM      1  F   UNL     1       2.368   1.911  20.345  0.00  0.00    +0.000 F 
ATOM      2  C   UNL     1       2.665   3.011  19.641  0.00  0.00    +0.000 A 
ATOM      3  C   UNL     1       1.690   3.597  18.849  0.00  0.00    +0.000 A 
ATOM      4  C   UNL     1       2.027   4.720  18.108  0.00  0.00    +0.000 A 
ATOM      5  F   UNL     1       1.094   5.276  17.317  0.00  0.00    +0.000 F 
ATOM      6  C   UNL     1       3.331   5.249  18.113  0.00  0.00    +0.000 A 
ATOM      7  C   UNL     1       4.293   4.679  18.966  0.00  0.00    +0.000 A 
ATOM      8  C   UNL     1       3.948   3.546  19.721  0.00  0.00    +0.000 A 
ATOM      9  C   UNL     1       5.676   5.269  19.082  0.00  0.00    +0.000 C 
ATOM     10  C   UNL     1       6.817   4.398  18.629  0.00  0.00    +0.000 C 
ATOM     11  C   UNL     1       7.781   5.121  18.043  0.00  0.00    +0.000 C 
ATOM     12  C   UNL     1       7.417   6.572  17.993  0.00  0.00    +0.000 C 
ATOM     13  C   UNL     1       5.898   6.533  18.226  0.00  0.00    +0.000 C 
ATOM     14  C   UNL     1       5.047   6.519  16.928  0.00  0.00    +0.000 C 
ATOM     15  N   UNL     1       3.639   6.350  17.295  0.00  0.00    +0.000 N 
ATOM     16  H   UNL     1       2.983   6.452  16.521  0.00  0.00    +0.000 HD
ENDROOT
BRANCH  14  17
ATOM     17  C   UNL     1       5.492   5.596  15.796  0.00  0.00    +0.000 A 
ATOM     18  C   UNL     1       6.538   5.986  14.947  0.00  0.00    +0.000 A 
ATOM     19  C   UNL     1       7.069   5.089  14.020  0.00  0.00    +0.000 A 
ATOM     20  C   UNL     1       6.521   3.823  13.943  0.00  0.00    +0.000 A 
ATOM     21  N   UNL     1       5.479   3.419  14.689  0.00  0.00    +0.000 NA
ATOM     22  C   UNL     1       4.995   4.309  15.591  0.00  0.00    +0.000 A 
ENDBRANCH  14  17
TORSDOF 1
ENDMDL
