MODEL 1
REMARK VINA RESULT:      -8.3      0.000      0.000
REMARK  Name = 
REMARK  5 active torsions:
REMARK  status: ('A' for Active; 'I' for Inactive)
REMARK    1  A    between atoms: C_2  and  C_5
REMARK    2  A    between atoms: C_8  and  N_9
REMARK    3  A    between atoms: N_9  and  C_10
REMARK    4  A    between atoms: N_18  and  C_19
REMARK    5  A    between atoms: C_24  and  C_25
REMARK                            x       y       z     vdW  Elec       q    Type
REMARK                         _______ _______ _______ _____ _____    ______ ____
ROOT
ATOM      1  C   UNL     1       0.873   9.603  19.532  0.00  0.00    +0.000 A 
ATOM      2  N   UNL     1       0.699   9.986  20.811  0.00  0.00    +0.000 NA
ATOM      3  C   UNL     1       1.119   9.155  21.761  0.00  0.00    +0.000 A 
ATOM      4  N   UNL     1       1.686   7.960  21.561  0.00  0.00    +0.000 NA
ATOM      5  C   UNL     1       1.850   7.590  20.272  0.00  0.00    +0.000 A 
ATOM      6  C   UNL     1       1.482   8.398  19.204  0.00  0.00    +0.000 A 
ATOM      7  C   UNL     1       1.733   7.943  17.794  0.00  0.00    +0.000 C 
ATOM      8  C   UNL     1       3.229   7.881  17.471  0.00  0.00    +0.000 C 
ATOM      9  N   UNL     1       3.915   6.700  18.002  0.00  0.00    +0.000 N 
ATOM     10  C   UNL     1       3.918   6.451  19.460  0.00  0.00    +0.000 C 
ATOM     11  C   UNL     1       2.521   6.256  20.043  0.00  0.00    +0.000 C 
ENDROOT
BRANCH   9  12
ATOM     12  C   UNL     1       4.511   5.747  17.198  0.00  0.00    +0.000 A 
ATOM     13  N   UNL     1       5.648   6.160  16.573  0.00  0.00    +0.000 NA
ATOM     14  C   UNL     1       6.345   5.313  15.785  0.00  0.00    +0.000 A 
ATOM     15  C   UNL     1       5.991   4.003  15.585  0.00  0.00    +0.000 A 
ATOM     16  C   UNL     1       4.830   3.570  16.195  0.00  0.00    +0.000 A 
ATOM     17  C   UNL     1       4.045   4.449  16.983  0.00  0.00    +0.000 A 
BRANCH  17  18
ATOM     18  C   UNL     1       2.744   3.881  17.476  0.00  0.00    +0.000 C 
ATOM     19  F   UNL     1       1.654   4.690  17.407  0.00  0.00    +0.000 F 
ATOM     20  F   UNL     1       2.375   2.758  16.784  0.00  0.00    +0.000 F 
ATOM     21  F   UNL     1       2.827   3.479  18.778  0.00  0.00    +0.000 F 
ENDBRANCH  17  18
ENDBRANCH   9  12
BRANCH   1  22
ATOM     22  N   UNL     1       0.433  10.479  18.512  0.00  0.00    +0.000 N 
ATOM     23  H   UNL     1       1.076  11.263  18.428  0.00  0.00    +0.000 HD
BRANCH  22  27
ATOM     24  C   UNL     1      -3.658  11.449  17.927  0.00  0.00    +0.000 A 
ATOM     25  C   UNL     1      -3.057  10.411  17.199  0.00  0.00    +0.000 A 
ATOM     26  C   UNL     1      -1.704  10.099  17.384  0.00  0.00    +0.000 A 
ATOM     27  C   UNL     1      -0.916  10.833  18.279  0.00  0.00    +0.000 A 
ATOM     28  C   UNL     1      -1.535  11.845  19.026  0.00  0.00    +0.000 A 
ATOM     29  C   UNL     1      -2.881  12.161  18.847  0.00  0.00    +0.000 A 
BRANCH  24  31
ATOM     30  F   UNL     1      -5.929  10.720  17.639  0.00  0.00    +0.000 F 
ATOM     31  C   UNL     1      -5.113  11.805  17.754  0.00  0.00    +0.000 C 
ATOM     32  F   UNL     1      -5.336  12.561  16.643  0.00  0.00    +0.000 F 
ATOM     33  F   UNL     1      -5.598  12.530  18.801  0.00  0.00    +0.000 F 
ENDBRANCH  24  31
ENDBRANCH  22  27
ENDBRANCH   1  22
TORSDOF 5
ENDMDL
MODEL 2
REMARK VINA RESULT:      -7.9      3.459      4.036
REMARK  Name = 
REMARK  5 active torsions:
REMARK  status: ('A' for Active; 'I' for Inactive)
REMARK    1  A    between atoms: C_2  and  C_5
REMARK    2  A    between atoms: C_8  and  N_9
REMARK    3  A    between atoms: N_9  and  C_10
REMARK    4  A    between atoms: N_18  and  C_19
REMARK    5  A    between atoms: C_24  and  C_25
REMARK                            x       y       z     vdW  Elec       q    Type
REMARK                         _______ _______ _______ _____ _____    ______ ____
ROOT
ATOM      1  C   UNL     1       0.994   9.927  19.508  0.00  0.00    +0.000 A 
ATOM      2  N   UNL     1       0.720  10.274  20.779  0.00  0.00    +0.000 NA
ATOM      3  C   UNL     1       0.936   9.361  21.723  0.00  0.00    +0.000 A 
ATOM      4  N   UNL     1       1.387   8.119  21.520  0.00  0.00    +0.000 NA
ATOM      5  C   UNL     1       1.655   7.786  20.239  0.00  0.00    +0.000 A 
ATOM      6  C   UNL     1       1.501   8.675  19.183  0.00  0.00    +0.000 A 
ATOM      7  C   UNL     1       1.858   8.253  17.786  0.00  0.00    +0.000 C 
ATOM      8  C   UNL     1       3.365   8.033  17.622  0.00  0.00    +0.000 C 
ATOM      9  N   UNL     1       3.853   6.760  18.160  0.00  0.00    +0.000 N 
ATOM     10  C   UNL     1       3.664   6.452  19.594  0.00  0.00    +0.000 C 
ATOM     11  C   UNL     1       2.197   6.395  20.012  0.00  0.00    +0.000 C 
ENDROOT
BRANCH   9  12
ATOM     12  C   UNL     1       4.428   5.779  17.374  0.00  0.00    +0.000 A 
ATOM     13  N   UNL     1       5.614   6.130  16.804  0.00  0.00    +0.000 NA
ATOM     14  C   UNL     1       6.295   5.249  16.040  0.00  0.00    +0.000 A 
ATOM     15  C   UNL     1       5.876   3.962  15.812  0.00  0.00    +0.000 A 
ATOM     16  C   UNL     1       4.665   3.594  16.366  0.00  0.00    +0.000 A 
ATOM     17  C   UNL     1       3.898   4.511  17.127  0.00  0.00    +0.000 A 
BRANCH  17  18
ATOM     18  C   UNL     1       2.546   4.018  17.558  0.00  0.00    +0.000 C 
ATOM     19  F   UNL     1       1.508   4.888  17.445  0.00  0.00    +0.000 F 
ATOM     20  F   UNL     1       2.145   2.921  16.841  0.00  0.00    +0.000 F 
ATOM     21  F   UNL     1       2.546   3.605  18.859  0.00  0.00    +0.000 F 
ENDBRANCH  17  18
ENDBRANCH   9  12
BRANCH   1  22
ATOM     22  N   UNL     1       0.771  10.889  18.495  0.00  0.00    +0.000 N 
ATOM     23  H   UNL     1       0.884  10.461  17.579  0.00  0.00    +0.000 HD
BRANCH  22  27
ATOM     24  C   UNL     1       2.062  14.933  18.495  0.00  0.00    +0.000 A 
ATOM     25  C   UNL     1       2.957  13.895  18.195  0.00  0.00    +0.000 A 
ATOM     26  C   UNL     1       2.533  12.560  18.206  0.00  0.00    +0.000 A 
ATOM     27  C   UNL     1       1.215  12.230  18.544  0.00  0.00    +0.000 A 
ATOM     28  C   UNL     1       0.320  13.277  18.808  0.00  0.00    +0.000 A 
ATOM     29  C   UNL     1       0.735  14.608  18.798  0.00  0.00    +0.000 A 
BRANCH  24  31
ATOM     30  F   UNL     1       2.963  16.799  17.280  0.00  0.00    +0.000 F 
ATOM     31  C   UNL     1       2.487  16.379  18.485  0.00  0.00    +0.000 C 
ATOM     32  F   UNL     1       3.473  16.639  19.388  0.00  0.00    +0.000 F 
ATOM     33  F   UNL     1       1.464  17.223  18.799  0.00  0.00    +0.000 F 
ENDBRANCH  24  31
ENDBRANCH  22  27
ENDBRANCH   1  22
TORSDOF 5
ENDMDL
MODEL 3
REMARK VINA RESULT:      -7.9      3.614      9.745
REMARK  Name = 
REMARK  5 active torsions:
REMARK  status: ('A' for Active; 'I' for Inactive)
REMARK    1  A    between atoms: C_2  and  C_5
REMARK    2  A    between atoms: C_8  and  N_9
REMARK    3  A    between atoms: N_9  and  C_10
REMARK    4  A    between atoms: N_18  and  C_19
REMARK    5  A    between atoms: C_24  and  C_25
REMARK                            x       y       z     vdW  Elec       q    Type
REMARK                         _______ _______ _______ _____ _____    ______ ____
ROOT
ATOM      1  C   UNL     1       1.298  12.123  18.630  0.00  0.00    +0.000 A 
ATOM      2  N   UNL     1       2.530  12.625  18.832  0.00  0.00    +0.000 NA
ATOM      3  C   UNL     1       2.621  13.785  19.478  0.00  0.00    +0.000 A 
ATOM      4  N   UNL     1       1.593  14.508  19.934  0.00  0.00    +0.000 NA
ATOM      5  C   UNL     1       0.363  13.991  19.721  0.00  0.00    +0.000 A 
ATOM      6  C   UNL     1       0.159  12.771  19.091  0.00  0.00    +0.000 A 
ATOM      7  C   UNL     1      -1.235  12.233  18.926  0.00  0.00    +0.000 C 
ATOM      8  C   UNL     1      -1.865  11.854  20.270  0.00  0.00    +0.000 C 
ATOM      9  N   UNL     1      -2.367  12.992  21.045  0.00  0.00    +0.000 N 
ATOM     10  C   UNL     1      -1.438  14.068  21.449  0.00  0.00    +0.000 C 
ATOM     11  C   UNL     1      -0.798  14.790  20.265  0.00  0.00    +0.000 C 
ENDROOT
BRANCH   9  12
ATOM     12  C   UNL     1      -3.702  13.156  21.366  0.00  0.00    +0.000 A 
ATOM     13  N   UNL     1      -4.470  13.670  20.366  0.00  0.00    +0.000 NA
ATOM     14  C   UNL     1      -5.797  13.848  20.542  0.00  0.00    +0.000 A 
ATOM     15  C   UNL     1      -6.460  13.505  21.693  0.00  0.00    +0.000 A 
ATOM     16  C   UNL     1      -5.695  12.999  22.727  0.00  0.00    +0.000 A 
ATOM     17  C   UNL     1      -4.291  12.852  22.595  0.00  0.00    +0.000 A 
BRANCH  17  18
ATOM     18  C   UNL     1      -3.571  12.414  23.839  0.00  0.00    +0.000 C 
ATOM     19  F   UNL     1      -2.653  11.421  23.702  0.00  0.00    +0.000 F 
ATOM     20  F   UNL     1      -2.873  13.440  24.419  0.00  0.00    +0.000 F 
ATOM     21  F   UNL     1      -4.438  11.990  24.805  0.00  0.00    +0.000 F 
ENDBRANCH  17  18
ENDBRANCH   9  12
BRANCH   1  22
ATOM     22  N   UNL     1       1.189  10.890  17.946  0.00  0.00    +0.000 N 
ATOM     23  H   UNL     1       0.313  10.857  17.429  0.00  0.00    +0.000 HD
BRANCH  22  27
ATOM     24  C   UNL     1       2.210   7.065  19.479  0.00  0.00    +0.000 A 
ATOM     25  C   UNL     1       1.509   7.989  20.268  0.00  0.00    +0.000 A 
ATOM     26  C   UNL     1       1.182   9.255  19.766  0.00  0.00    +0.000 A 
ATOM     27  C   UNL     1       1.572   9.636  18.476  0.00  0.00    +0.000 A 
ATOM     28  C   UNL     1       2.241   8.692  17.684  0.00  0.00    +0.000 A 
ATOM     29  C   UNL     1       2.569   7.431  18.177  0.00  0.00    +0.000 A 
BRANCH  24  31
ATOM     30  F   UNL     1       2.042   4.679  19.248  0.00  0.00    +0.000 F 
ATOM     31  C   UNL     1       2.571   5.693  19.989  0.00  0.00    +0.000 C 
ATOM     32  F   UNL     1       2.146   5.484  21.266  0.00  0.00    +0.000 F 
ATOM     33  F   UNL     1       3.917   5.482  20.005  0.00  0.00    +0.000 F 
ENDBRANCH  24  31
ENDBRANCH  22  27
ENDBRANCH   1  22
TORSDOF 5
ENDMDL
MODEL 4
REMARK VINA RESULT:      -7.9      2.135      2.585
REMARK  Name = 
REMARK  5 active torsions:
REMARK  status: ('A' for Active; 'I' for Inactive)
REMARK    1  A    between atoms: C_2  and  C_5
REMARK    2  A    between atoms: C_8  and  N_9
REMARK    3  A    between atoms: N_9  and  C_10
REMARK    4  A    between atoms: N_18  and  C_19
REMARK    5  A    between atoms: C_24  and  C_25
REMARK                            x       y       z     vdW  Elec       q    Type
REMARK                         _______ _______ _______ _____ _____    ______ ____
ROOT
ATOM      1  C   UNL     1       0.976   9.120  19.516  0.00  0.00    +0.000 A 
ATOM      2  N   UNL     1       0.619   9.287  20.803  0.00  0.00    +0.000 NA
ATOM      3  C   UNL     1       0.956   8.327  21.662  0.00  0.00    +0.000 A 
ATOM      4  N   UNL     1       1.607   7.199  21.357  0.00  0.00    +0.000 NA
ATOM      5  C   UNL     1       1.956   7.047  20.061  0.00  0.00    +0.000 A 
ATOM      6  C   UNL     1       1.687   8.004  19.092  0.00  0.00    +0.000 A 
ATOM      7  C   UNL     1       2.142   7.790  17.676  0.00  0.00    +0.000 C 
ATOM      8  C   UNL     1       3.668   7.829  17.554  0.00  0.00    +0.000 C 
ATOM      9  N   UNL     1       4.342   6.601  17.984  0.00  0.00    +0.000 N 
ATOM     10  C   UNL     1       4.170   6.120  19.372  0.00  0.00    +0.000 C 
ATOM     11  C   UNL     1       2.721   5.790  19.722  0.00  0.00    +0.000 C 
ENDROOT
BRANCH   9  12
ATOM     12  C   UNL     1       5.087   5.809  17.130  0.00  0.00    +0.000 A 
ATOM     13  N   UNL     1       4.421   4.736  16.621  0.00  0.00    +0.000 NA
ATOM     14  C   UNL     1       5.027   3.903  15.748  0.00  0.00    +0.000 A 
ATOM     15  C   UNL     1       6.309   4.085  15.294  0.00  0.00    +0.000 A 
ATOM     16  C   UNL     1       7.008   5.158  15.814  0.00  0.00    +0.000 A 
ATOM     17  C   UNL     1       6.421   6.019  16.774  0.00  0.00    +0.000 A 
BRANCH  17  18
ATOM     18  C   UNL     1       7.337   7.063  17.347  0.00  0.00    +0.000 C 
ATOM     19  F   UNL     1       6.763   8.217  17.777  0.00  0.00    +0.000 F 
ATOM     20  F   UNL     1       8.025   6.602  18.438  0.00  0.00    +0.000 F 
ATOM     21  F   UNL     1       8.302   7.436  16.456  0.00  0.00    +0.000 F 
ENDBRANCH  17  18
ENDBRANCH   9  12
BRANCH   1  22
ATOM     22  N   UNL     1       0.626  10.134  18.594  0.00  0.00    +0.000 N 
ATOM     23  H   UNL     1       1.292  10.901  18.654  0.00  0.00    +0.000 HD
BRANCH  22  27
ATOM     24  C   UNL     1      -3.390  11.321  17.904  0.00  0.00    +0.000 A 
ATOM     25  C   UNL     1      -2.835  10.235  17.210  0.00  0.00    +0.000 A 
ATOM     26  C   UNL     1      -1.506   9.851  17.430  0.00  0.00    +0.000 A 
ATOM     27  C   UNL     1      -0.695  10.559  18.325  0.00  0.00    +0.000 A 
ATOM     28  C   UNL     1      -1.270  11.620  19.039  0.00  0.00    +0.000 A 
ATOM     29  C   UNL     1      -2.592  12.008  18.825  0.00  0.00    +0.000 A 
BRANCH  24  31
ATOM     30  F   UNL     1      -5.274  12.614  18.647  0.00  0.00    +0.000 F 
ATOM     31  C   UNL     1      -4.819  11.755  17.693  0.00  0.00    +0.000 C 
ATOM     32  F   UNL     1      -5.686  10.705  17.689  0.00  0.00    +0.000 F 
ATOM     33  F   UNL     1      -4.998  12.390  16.501  0.00  0.00    +0.000 F 
ENDBRANCH  24  31
ENDBRANCH  22  27
ENDBRANCH   1  22
TORSDOF 5
ENDMDL
MODEL 5
REMARK VINA RESULT:      -7.9      3.462      4.082
REMARK  Name = 
REMARK  5 active torsions:
REMARK  status: ('A' for Active; 'I' for Inactive)
REMARK    1  A    between atoms: C_2  and  C_5
REMARK    2  A    between atoms: C_8  and  N_9
REMARK    3  A    between atoms: N_9  and  C_10
REMARK    4  A    between atoms: N_18  and  C_19
REMARK    5  A    between atoms: C_24  and  C_25
REMARK                            x       y       z     vdW  Elec       q    Type
REMARK                         _______ _______ _______ _____ _____    ______ ____
ROOT
ATOM      1  C   UNL     1       0.907   9.910  19.497  0.00  0.00    +0.000 A 
ATOM      2  N   UNL     1       0.654  10.269  20.769  0.00  0.00    +0.000 NA
ATOM      3  C   UNL     1       0.922   9.378  21.721  0.00  0.00    +0.000 A 
ATOM      4  N   UNL     1       1.406   8.147  21.526  0.00  0.00    +0.000 NA
ATOM      5  C   UNL     1       1.652   7.802  20.243  0.00  0.00    +0.000 A 
ATOM      6  C   UNL     1       1.444   8.668  19.178  0.00  0.00    +0.000 A 
ATOM      7  C   UNL     1       1.780   8.236  17.779  0.00  0.00    +0.000 C 
ATOM      8  C   UNL     1       3.289   8.059  17.581  0.00  0.00    +0.000 C 
ATOM      9  N   UNL     1       3.828   6.810  18.126  0.00  0.00    +0.000 N 
ATOM     10  C   UNL     1       3.684   6.519  19.568  0.00  0.00    +0.000 C 
ATOM     11  C   UNL     1       2.230   6.424  20.024  0.00  0.00    +0.000 C 
ENDROOT
BRANCH   9  12
ATOM     12  C   UNL     1       4.414   5.835  17.341  0.00  0.00    +0.000 A 
ATOM     13  N   UNL     1       5.589   6.202  16.758  0.00  0.00    +0.000 NA
ATOM     14  C   UNL     1       6.279   5.329  15.994  0.00  0.00    +0.000 A 
ATOM     15  C   UNL     1       5.880   4.034  15.777  0.00  0.00    +0.000 A 
ATOM     16  C   UNL     1       4.680   3.648  16.344  0.00  0.00    +0.000 A 
ATOM     17  C   UNL     1       3.904   4.556  17.106  0.00  0.00    +0.000 A 
BRANCH  17  18
ATOM     18  C   UNL     1       2.565   4.042  17.551  0.00  0.00    +0.000 C 
ATOM     19  F   UNL     1       1.511   4.893  17.442  0.00  0.00    +0.000 F 
ATOM     20  F   UNL     1       2.177   2.934  16.845  0.00  0.00    +0.000 F 
ATOM     21  F   UNL     1       2.583   3.637  18.854  0.00  0.00    +0.000 F 
ENDBRANCH  17  18
ENDBRANCH   9  12
BRANCH   1  22
ATOM     22  N   UNL     1       0.630  10.849  18.476  0.00  0.00    +0.000 N 
ATOM     23  H   UNL     1       0.673  10.394  17.566  0.00  0.00    +0.000 HD
BRANCH  22  27
ATOM     24  C   UNL     1       2.072  14.840  18.569  0.00  0.00    +0.000 A 
ATOM     25  C   UNL     1       0.720  14.560  18.821  0.00  0.00    +0.000 A 
ATOM     26  C   UNL     1       0.243  13.244  18.778  0.00  0.00    +0.000 A 
ATOM     27  C   UNL     1       1.097  12.183  18.457  0.00  0.00    +0.000 A 
ATOM     28  C   UNL     1       2.453  12.469  18.242  0.00  0.00    +0.000 A 
ATOM     29  C   UNL     1       2.935  13.776  18.283  0.00  0.00    +0.000 A 
BRANCH  24  31
ATOM     30  F   UNL     1       3.586  16.424  19.553  0.00  0.00    +0.000 F 
ATOM     31  C   UNL     1       2.617  16.245  18.613  0.00  0.00    +0.000 C 
ATOM     32  F   UNL     1       1.654  17.169  18.885  0.00  0.00    +0.000 F 
ATOM     33  F   UNL     1       3.172  16.624  17.427  0.00  0.00    +0.000 F 
ENDBRANCH  24  31
ENDBRANCH  22  27
ENDBRANCH   1  22
TORSDOF 5
ENDMDL
MODEL 6
REMARK VINA RESULT:      -7.8      3.006      4.518
REMARK  Name = 
REMARK  5 active torsions:
REMARK  status: ('A' for Active; 'I' for Inactive)
REMARK    1  A    between atoms: C_2  and  C_5
REMARK    2  A    between atoms: C_8  and  N_9
REMARK    3  A    between atoms: N_9  and  C_10
REMARK    4  A    between atoms: N_18  and  C_19
REMARK    5  A    between atoms: C_24  and  C_25
REMARK                            x       y       z     vdW  Elec       q    Type
REMARK                         _______ _______ _______ _____ _____    ______ ____
ROOT
ATOM      1  C   UNL     1       1.792   5.373  20.281  0.00  0.00    +0.000 A 
ATOM      2  N   UNL     1       1.006   4.484  20.917  0.00  0.00    +0.000 NA
ATOM      3  C   UNL     1       0.785   3.319  20.314  0.00  0.00    +0.000 A 
ATOM      4  N   UNL     1       1.262   2.956  19.118  0.00  0.00    +0.000 NA
ATOM      5  C   UNL     1       2.047   3.859  18.493  0.00  0.00    +0.000 A 
ATOM      6  C   UNL     1       2.371   5.089  19.050  0.00  0.00    +0.000 A 
ATOM      7  C   UNL     1       3.286   6.030  18.319  0.00  0.00    +0.000 C 
ATOM      8  C   UNL     1       4.715   5.486  18.229  0.00  0.00    +0.000 C 
ATOM      9  N   UNL     1       4.907   4.458  17.202  0.00  0.00    +0.000 N 
ATOM     10  C   UNL     1       4.119   3.208  17.262  0.00  0.00    +0.000 C 
ATOM     11  C   UNL     1       2.614   3.437  17.158  0.00  0.00    +0.000 C 
ENDROOT
BRANCH   9  12
ATOM     12  C   UNL     1       5.749   4.621  16.119  0.00  0.00    +0.000 A 
ATOM     13  N   UNL     1       5.547   3.738  15.102  0.00  0.00    +0.000 NA
ATOM     14  C   UNL     1       6.282   3.813  13.972  0.00  0.00    +0.000 A 
ATOM     15  C   UNL     1       7.237   4.774  13.752  0.00  0.00    +0.000 A 
ATOM     16  C   UNL     1       7.470   5.668  14.780  0.00  0.00    +0.000 A 
ATOM     17  C   UNL     1       6.755   5.583  16.000  0.00  0.00    +0.000 A 
BRANCH  17  18
ATOM     18  C   UNL     1       7.202   6.534  17.074  0.00  0.00    +0.000 C 
ATOM     19  F   UNL     1       7.686   5.986  18.220  0.00  0.00    +0.000 F 
ATOM     20  F   UNL     1       8.206   7.361  16.646  0.00  0.00    +0.000 F 
ATOM     21  F   UNL     1       6.197   7.374  17.459  0.00  0.00    +0.000 F 
ENDBRANCH  17  18
ENDBRANCH   9  12
BRANCH   1  22
ATOM     22  N   UNL     1       2.037   6.614  20.914  0.00  0.00    +0.000 N 
ATOM     23  H   UNL     1       2.319   6.460  21.879  0.00  0.00    +0.000 HD
BRANCH  22  27
ATOM     24  C   UNL     1      -0.203  10.190  20.455  0.00  0.00    +0.000 A 
ATOM     25  C   UNL     1      -0.397   9.362  21.571  0.00  0.00    +0.000 A 
ATOM     26  C   UNL     1       0.335   8.176  21.716  0.00  0.00    +0.000 A 
ATOM     27  C   UNL     1       1.254   7.778  20.738  0.00  0.00    +0.000 A 
ATOM     28  C   UNL     1       1.465   8.630  19.645  0.00  0.00    +0.000 A 
ATOM     29  C   UNL     1       0.741   9.812  19.495  0.00  0.00    +0.000 A 
BRANCH  24  31
ATOM     30  F   UNL     1      -2.053  11.353  19.456  0.00  0.00    +0.000 F 
ATOM     31  C   UNL     1      -0.970  11.475  20.274  0.00  0.00    +0.000 C 
ATOM     32  F   UNL     1      -0.207  12.467  19.739  0.00  0.00    +0.000 F 
ATOM     33  F   UNL     1      -1.446  11.967  21.453  0.00  0.00    +0.000 F 
ENDBRANCH  24  31
ENDBRANCH  22  27
ENDBRANCH   1  22
TORSDOF 5
ENDMDL
MODEL 7
REMARK VINA RESULT:      -7.8      2.925      4.421
REMARK  Name = 
REMARK  5 active torsions:
REMARK  status: ('A' for Active; 'I' for Inactive)
REMARK    1  A    between atoms: C_2  and  C_5
REMARK    2  A    between atoms: C_8  and  N_9
REMARK    3  A    between atoms: N_9  and  C_10
REMARK    4  A    between atoms: N_18  and  C_19
REMARK    5  A    between atoms: C_24  and  C_25
REMARK                            x       y       z     vdW  Elec       q    Type
REMARK                         _______ _______ _______ _____ _____    ______ ____
ROOT
ATOM      1  C   UNL     1       1.802   5.467  20.265  0.00  0.00    +0.000 A 
ATOM      2  N   UNL     1       1.000   4.597  20.905  0.00  0.00    +0.000 NA
ATOM      3  C   UNL     1       0.752   3.436  20.304  0.00  0.00    +0.000 A 
ATOM      4  N   UNL     1       1.216   3.061  19.107  0.00  0.00    +0.000 NA
ATOM      5  C   UNL     1       2.018   3.947  18.478  0.00  0.00    +0.000 A 
ATOM      6  C   UNL     1       2.371   5.169  19.032  0.00  0.00    +0.000 A 
ATOM      7  C   UNL     1       3.303   6.090  18.296  0.00  0.00    +0.000 C 
ATOM      8  C   UNL     1       4.719   5.515  18.202  0.00  0.00    +0.000 C 
ATOM      9  N   UNL     1       4.886   4.482  17.176  0.00  0.00    +0.000 N 
ATOM     10  C   UNL     1       4.072   3.249  17.241  0.00  0.00    +0.000 C 
ATOM     11  C   UNL     1       2.571   3.511  17.141  0.00  0.00    +0.000 C 
ENDROOT
BRANCH   9  12
ATOM     12  C   UNL     1       5.728   4.626  16.089  0.00  0.00    +0.000 A 
ATOM     13  N   UNL     1       5.506   3.743  15.077  0.00  0.00    +0.000 NA
ATOM     14  C   UNL     1       6.239   3.800  13.944  0.00  0.00    +0.000 A 
ATOM     15  C   UNL     1       7.210   4.742  13.718  0.00  0.00    +0.000 A 
ATOM     16  C   UNL     1       7.463   5.636  14.741  0.00  0.00    +0.000 A 
ATOM     17  C   UNL     1       6.750   5.568  15.964  0.00  0.00    +0.000 A 
BRANCH  17  18
ATOM     18  C   UNL     1       7.217   6.516  17.033  0.00  0.00    +0.000 C 
ATOM     19  F   UNL     1       7.701   5.963  18.177  0.00  0.00    +0.000 F 
ATOM     20  F   UNL     1       8.231   7.327  16.597  0.00  0.00    +0.000 F 
ATOM     21  F   UNL     1       6.227   7.370  17.422  0.00  0.00    +0.000 F 
ENDBRANCH  17  18
ENDBRANCH   9  12
BRANCH   1  22
ATOM     22  N   UNL     1       2.076   6.704  20.895  0.00  0.00    +0.000 N 
ATOM     23  H   UNL     1       2.319   6.548  21.871  0.00  0.00    +0.000 HD
BRANCH  22  27
ATOM     24  C   UNL     1      -0.223  10.202  20.191  0.00  0.00    +0.000 A 
ATOM     25  C   UNL     1       0.743   9.780  19.264  0.00  0.00    +0.000 A 
ATOM     26  C   UNL     1       1.509   8.632  19.503  0.00  0.00    +0.000 A 
ATOM     27  C   UNL     1       1.348   7.896  20.683  0.00  0.00    +0.000 A 
ATOM     28  C   UNL     1       0.356   8.307  21.585  0.00  0.00    +0.000 A 
ATOM     29  C   UNL     1      -0.410   9.448  21.354  0.00  0.00    +0.000 A 
BRANCH  24  31
ATOM     30  F   UNL     1      -1.840  11.769  21.029  0.00  0.00    +0.000 F 
ATOM     31  C   UNL     1      -1.066  11.430  19.960  0.00  0.00    +0.000 C 
ATOM     32  F   UNL     1      -1.922  11.284  18.910  0.00  0.00    +0.000 F 
ATOM     33  F   UNL     1      -0.315  12.531  19.677  0.00  0.00    +0.000 F 
ENDBRANCH  24  31
ENDBRANCH  22  27
ENDBRANCH   1  22
TORSDOF 5
ENDMDL
MODEL 8
REMARK VINA RESULT:      -7.8      3.851     10.176
REMARK  Name = 
REMARK  5 active torsions:
REMARK  status: ('A' for Active; 'I' for Inactive)
REMARK    1  A    between atoms: C_2  and  C_5
REMARK    2  A    between atoms: C_8  and  N_9
REMARK    3  A    between atoms: N_9  and  C_10
REMARK    4  A    between atoms: N_18  and  C_19
REMARK    5  A    between atoms: C_24  and  C_25
REMARK                            x       y       z     vdW  Elec       q    Type
REMARK                         _______ _______ _______ _____ _____    ______ ____
ROOT
ATOM      1  C   UNL     1      -0.639  11.114  18.787  0.00  0.00    +0.000 A 
ATOM      2  N   UNL     1      -1.130  10.861  17.560  0.00  0.00    +0.000 NA
ATOM      3  C   UNL     1      -2.402  11.180  17.330  0.00  0.00    +0.000 A 
ATOM      4  N   UNL     1      -3.245  11.718  18.218  0.00  0.00    +0.000 NA
ATOM      5  C   UNL     1      -2.737  11.964  19.445  0.00  0.00    +0.000 A 
ATOM      6  C   UNL     1      -1.414  11.704  19.779  0.00  0.00    +0.000 A 
ATOM      7  C   UNL     1      -0.903  12.043  21.150  0.00  0.00    +0.000 C 
ATOM      8  C   UNL     1      -0.858  13.556  21.387  0.00  0.00    +0.000 C 
ATOM      9  N   UNL     1      -2.158  14.159  21.694  0.00  0.00    +0.000 N 
ATOM     10  C   UNL     1      -3.265  14.046  20.719  0.00  0.00    +0.000 C 
ATOM     11  C   UNL     1      -3.678  12.603  20.439  0.00  0.00    +0.000 C 
ENDROOT
BRANCH   9  12
ATOM     12  C   UNL     1      -2.437  14.780  22.896  0.00  0.00    +0.000 A 
ATOM     13  N   UNL     1      -1.925  16.035  23.022  0.00  0.00    +0.000 NA
ATOM     14  C   UNL     1      -2.155  16.762  24.137  0.00  0.00    +0.000 A 
ATOM     15  C   UNL     1      -2.926  16.320  25.182  0.00  0.00    +0.000 A 
ATOM     16  C   UNL     1      -3.439  15.042  25.082  0.00  0.00    +0.000 A 
ATOM     17  C   UNL     1      -3.171  14.231  23.951  0.00  0.00    +0.000 A 
BRANCH  17  18
ATOM     18  C   UNL     1      -3.683  12.821  24.034  0.00  0.00    +0.000 C 
ATOM     19  F   UNL     1      -4.119  12.396  25.249  0.00  0.00    +0.000 F 
ATOM     20  F   UNL     1      -4.748  12.608  23.200  0.00  0.00    +0.000 F 
ATOM     21  F   UNL     1      -2.741  11.915  23.639  0.00  0.00    +0.000 F 
ENDBRANCH  17  18
ENDBRANCH   9  12
BRANCH   1  22
ATOM     22  N   UNL     1       0.711  10.782  19.043  0.00  0.00    +0.000 N 
ATOM     23  H   UNL     1       1.324  11.369  18.483  0.00  0.00    +0.000 HD
BRANCH  22  27
ATOM     24  C   UNL     1       2.309   6.891  19.618  0.00  0.00    +0.000 A 
ATOM     25  C   UNL     1       2.462   7.555  18.390  0.00  0.00    +0.000 A 
ATOM     26  C   UNL     1       1.924   8.834  18.198  0.00  0.00    +0.000 A 
ATOM     27  C   UNL     1       1.200   9.467  19.215  0.00  0.00    +0.000 A 
ATOM     28  C   UNL     1       1.084   8.810  20.449  0.00  0.00    +0.000 A 
ATOM     29  C   UNL     1       1.617   7.537  20.648  0.00  0.00    +0.000 A 
BRANCH  24  31
ATOM     30  F   UNL     1       2.507   4.971  21.048  0.00  0.00    +0.000 F 
ATOM     31  C   UNL     1       2.881   5.517  19.857  0.00  0.00    +0.000 C 
ATOM     32  F   UNL     1       4.243   5.512  19.854  0.00  0.00    +0.000 F 
ATOM     33  F   UNL     1       2.503   4.623  18.901  0.00  0.00    +0.000 F 
ENDBRANCH  24  31
ENDBRANCH  22  27
ENDBRANCH   1  22
TORSDOF 5
ENDMDL
MODEL 9
REMARK VINA RESULT:      -7.7      3.691     10.070
REMARK  Name = 
REMARK  5 active torsions:
REMARK  status: ('A' for Active; 'I' for Inactive)
REMARK    1  A    between atoms: C_2  and  C_5
REMARK    2  A    between atoms: C_8  and  N_9
REMARK    3  A    between atoms: N_9  and  C_10
REMARK    4  A    between atoms: N_18  and  C_19
REMARK    5  A    between atoms: C_24  and  C_25
REMARK                            x       y       z     vdW  Elec       q    Type
REMARK                         _______ _______ _______ _____ _____    ______ ____
ROOT
ATOM      1  C   UNL     1       0.070  10.285  19.406  0.00  0.00    +0.000 A 
ATOM      2  N   UNL     1      -0.187  10.086  18.099  0.00  0.00    +0.000 NA
ATOM      3  C   UNL     1      -1.300  10.622  17.605  0.00  0.00    +0.000 A 
ATOM      4  N   UNL     1      -2.200  11.330  18.295  0.00  0.00    +0.000 NA
ATOM      5  C   UNL     1      -1.928  11.519  19.605  0.00  0.00    +0.000 A 
ATOM      6  C   UNL     1      -0.777  11.036  20.212  0.00  0.00    +0.000 A 
ATOM      7  C   UNL     1      -0.516  11.319  21.664  0.00  0.00    +0.000 C 
ATOM      8  C   UNL     1      -0.247  12.805  21.918  0.00  0.00    +0.000 C 
ATOM      9  N   UNL     1      -1.450  13.642  21.944  0.00  0.00    +0.000 N 
ATOM     10  C   UNL     1      -2.325  13.700  20.753  0.00  0.00    +0.000 C 
ATOM     11  C   UNL     1      -2.926  12.348  20.379  0.00  0.00    +0.000 C 
ENDROOT
BRANCH   9  12
ATOM     12  C   UNL     1      -1.860  14.340  23.064  0.00  0.00    +0.000 A 
ATOM     13  N   UNL     1      -1.206  15.516  23.274  0.00  0.00    +0.000 NA
ATOM     14  C   UNL     1      -1.536  16.309  24.315  0.00  0.00    +0.000 A 
ATOM     15  C   UNL     1      -2.547  16.018  25.196  0.00  0.00    +0.000 A 
ATOM     16  C   UNL     1      -3.211  14.820  25.011  0.00  0.00    +0.000 A 
ATOM     17  C   UNL     1      -2.852  13.939  23.961  0.00  0.00    +0.000 A 
BRANCH  17  18
ATOM     18  C   UNL     1      -3.567  12.618  23.958  0.00  0.00    +0.000 C 
ATOM     19  F   UNL     1      -2.812  11.509  23.737  0.00  0.00    +0.000 F 
ATOM     20  F   UNL     1      -4.193  12.367  25.150  0.00  0.00    +0.000 F 
ATOM     21  F   UNL     1      -4.563  12.582  23.025  0.00  0.00    +0.000 F 
ENDBRANCH  17  18
ENDBRANCH   9  12
BRANCH   1  22
ATOM     22  N   UNL     1       1.251   9.722  19.943  0.00  0.00    +0.000 N 
ATOM     23  H   UNL     1       2.011  10.396  19.887  0.00  0.00    +0.000 HD
BRANCH  22  27
ATOM     24  C   UNL     1       2.378   5.684  19.280  0.00  0.00    +0.000 A 
ATOM     25  C   UNL     1       1.755   6.067  20.478  0.00  0.00    +0.000 A 
ATOM     26  C   UNL     1       1.394   7.402  20.701  0.00  0.00    +0.000 A 
ATOM     27  C   UNL     1       1.671   8.387  19.746  0.00  0.00    +0.000 A 
ATOM     28  C   UNL     1       2.261   7.987  18.538  0.00  0.00    +0.000 A 
ATOM     29  C   UNL     1       2.623   6.661  18.310  0.00  0.00    +0.000 A 
BRANCH  24  31
ATOM     30  F   UNL     1       3.228   4.045  17.742  0.00  0.00    +0.000 F 
ATOM     31  C   UNL     1       2.773   4.254  19.009  0.00  0.00    +0.000 C 
ATOM     32  F   UNL     1       1.738   3.386  19.183  0.00  0.00    +0.000 F 
ATOM     33  F   UNL     1       3.764   3.823  19.839  0.00  0.00    +0.000 F 
ENDBRANCH  24  31
ENDBRANCH  22  27
ENDBRANCH   1  22
TORSDOF 5
ENDMDL
