MODEL 1
REMARK VINA RESULT:      -7.7      0.000      0.000
REMARK  Name = 
REMARK  7 active torsions:
REMARK  status: ('A' for Active; 'I' for Inactive)
REMARK    1  A    between atoms: C_1  and  O_2
REMARK    2  A    between atoms: O_2  and  C_3
REMARK    3  A    between atoms: C_5  and  C_6
REMARK    4  A    between atoms: N_8  and  C_9
REMARK    5  A    between atoms: C_9  and  C_10
REMARK    6  A    between atoms: C_10  and  C_11
REMARK    7  A    between atoms: C_20  and  C_21
REMARK                            x       y       z     vdW  Elec       q    Type
REMARK                         _______ _______ _______ _____ _____    ______ ____
ROOT
ATOM      1  C   UNL     1       1.295   8.895  20.209  0.00  0.00    +0.000 A 
ATOM      2  C   UNL     1       1.880   7.623  20.111  0.00  0.00    +0.000 A 
ATOM      3  C   UNL     1       2.436   7.182  18.910  0.00  0.00    +0.000 A 
ATOM      4  C   UNL     1       2.348   7.977  17.770  0.00  0.00    +0.000 A 
ATOM      5  C   UNL     1       1.726   9.225  17.847  0.00  0.00    +0.000 A 
ATOM      6  C   UNL     1       1.204   9.713  19.061  0.00  0.00    +0.000 A 
ENDROOT
BRANCH   6   7
ATOM      7  C   UNL     1       0.611  11.049  19.083  0.00  0.00    +0.000 A 
ATOM      8  C   UNL     1      -0.734  11.489  19.082  0.00  0.00    +0.000 A 
ATOM      9  N   UNL     1      -0.847  12.820  19.104  0.00  0.00    +0.000 NA
ATOM     10  N   UNL     1       0.426  13.244  19.126  0.00  0.00    +0.000 N 
ATOM     11  C   UNL     1       1.335  12.225  19.104  0.00  0.00    +0.000 A 
ATOM     12  H   UNL     1       0.602  14.243  19.156  0.00  0.00    +0.000 HD
ENDBRANCH   6   7
BRANCH   3  13
ATOM     13  C   UNL     1       3.121   5.860  18.898  0.00  0.00    +0.000 C 
ATOM     14  O   UNL     1       3.753   5.480  19.877  0.00  0.00    +0.000 OA
ATOM     15  N   UNL     1       3.050   5.158  17.714  0.00  0.00    +0.000 N 
ATOM     16  H   UNL     1       2.748   5.655  16.884  0.00  0.00    +0.000 HD
BRANCH  15  17
ATOM     17  C   UNL     1       3.801   3.926  17.541  0.00  0.00    +0.000 C 
BRANCH  17  18
ATOM     18  C   UNL     1       5.013   4.136  16.637  0.00  0.00    +0.000 C 
BRANCH  18  19
ATOM     19  C   UNL     1       6.012   5.106  17.215  0.00  0.00    +0.000 A 
ATOM     20  C   UNL     1       6.112   6.407  16.699  0.00  0.00    +0.000 A 
ATOM     21  C   UNL     1       7.031   7.308  17.237  0.00  0.00    +0.000 A 
ATOM     22  C   UNL     1       7.853   6.908  18.282  0.00  0.00    +0.000 A 
ATOM     23  F   UNL     1       8.732   7.776  18.800  0.00  0.00    +0.000 F 
ATOM     24  C   UNL     1       7.776   5.621  18.801  0.00  0.00    +0.000 A 
ATOM     25  C   UNL     1       6.856   4.717  18.266  0.00  0.00    +0.000 A 
ENDBRANCH  18  19
ENDBRANCH  17  18
ENDBRANCH  15  17
ENDBRANCH   3  13
BRANCH   1  27
ATOM     26  C   UNL     1      -0.373   8.699  21.878  0.00  0.00    +0.000 C 
ATOM     27  O   UNL     1       0.793   9.368  21.398  0.00  0.00    +0.000 OA
ENDBRANCH   1  27
TORSDOF 6
ENDMDL
MODEL 2
REMARK VINA RESULT:      -7.7      0.348      1.225
REMARK  Name = 
REMARK  7 active torsions:
REMARK  status: ('A' for Active; 'I' for Inactive)
REMARK    1  A    between atoms: C_1  and  O_2
REMARK    2  A    between atoms: O_2  and  C_3
REMARK    3  A    between atoms: C_5  and  C_6
REMARK    4  A    between atoms: N_8  and  C_9
REMARK    5  A    between atoms: C_9  and  C_10
REMARK    6  A    between atoms: C_10  and  C_11
REMARK    7  A    between atoms: C_20  and  C_21
REMARK                            x       y       z     vdW  Elec       q    Type
REMARK                         _______ _______ _______ _____ _____    ______ ____
ROOT
ATOM      1  C   UNL     1       1.357   8.595  20.329  0.00  0.00    +0.000 A 
ATOM      2  C   UNL     1       1.980   7.348  20.161  0.00  0.00    +0.000 A 
ATOM      3  C   UNL     1       2.509   6.974  18.926  0.00  0.00    +0.000 A 
ATOM      4  C   UNL     1       2.357   7.810  17.822  0.00  0.00    +0.000 A 
ATOM      5  C   UNL     1       1.697   9.031  17.969  0.00  0.00    +0.000 A 
ATOM      6  C   UNL     1       1.201   9.454  19.219  0.00  0.00    +0.000 A 
ENDROOT
BRANCH   6   7
ATOM      7  C   UNL     1       0.566  10.767  19.313  0.00  0.00    +0.000 A 
ATOM      8  C   UNL     1       0.970  11.972  19.939  0.00  0.00    +0.000 A 
ATOM      9  N   UNL     1       0.082  12.959  19.788  0.00  0.00    +0.000 NA
ATOM     10  N   UNL     1      -0.894  12.398  19.058  0.00  0.00    +0.000 N 
ATOM     11  C   UNL     1      -0.657  11.087  18.757  0.00  0.00    +0.000 A 
ATOM     12  H   UNL     1      -1.693  12.968  18.800  0.00  0.00    +0.000 HD
ENDBRANCH   6   7
BRANCH   3  13
ATOM     13  C   UNL     1       3.236   5.677  18.839  0.00  0.00    +0.000 C 
ATOM     14  O   UNL     1       3.916   5.283  19.779  0.00  0.00    +0.000 OA
ATOM     15  N   UNL     1       3.144   5.018  17.632  0.00  0.00    +0.000 N 
ATOM     16  H   UNL     1       2.796   5.534  16.834  0.00  0.00    +0.000 HD
BRANCH  15  17
ATOM     17  C   UNL     1       3.928   3.819  17.385  0.00  0.00    +0.000 C 
BRANCH  17  18
ATOM     18  C   UNL     1       5.133   4.116  16.498  0.00  0.00    +0.000 C 
BRANCH  18  19
ATOM     19  C   UNL     1       6.084   5.108  17.117  0.00  0.00    +0.000 A 
ATOM     20  C   UNL     1       6.934   4.715  18.162  0.00  0.00    +0.000 A 
ATOM     21  C   UNL     1       7.820   5.630  18.731  0.00  0.00    +0.000 A 
ATOM     22  C   UNL     1       7.850   6.937  18.263  0.00  0.00    +0.000 A 
ATOM     23  F   UNL     1       8.704   7.814  18.808  0.00  0.00    +0.000 F 
ATOM     24  C   UNL     1       7.010   7.349  17.235  0.00  0.00    +0.000 A 
ATOM     25  C   UNL     1       6.124   6.436  16.662  0.00  0.00    +0.000 A 
ENDBRANCH  18  19
ENDBRANCH  17  18
ENDBRANCH  15  17
ENDBRANCH   3  13
BRANCH   1  27
ATOM     26  C   UNL     1      -0.435   8.554  21.876  0.00  0.00    +0.000 C 
ATOM     27  O   UNL     1       0.880   9.004  21.551  0.00  0.00    +0.000 OA
ENDBRANCH   1  27
TORSDOF 6
ENDMDL
MODEL 3
REMARK VINA RESULT:      -7.5      2.692      3.936
REMARK  Name = 
REMARK  7 active torsions:
REMARK  status: ('A' for Active; 'I' for Inactive)
REMARK    1  A    between atoms: C_1  and  O_2
REMARK    2  A    between atoms: O_2  and  C_3
REMARK    3  A    between atoms: C_5  and  C_6
REMARK    4  A    between atoms: N_8  and  C_9
REMARK    5  A    between atoms: C_9  and  C_10
REMARK    6  A    between atoms: C_10  and  C_11
REMARK    7  A    between atoms: C_20  and  C_21
REMARK                            x       y       z     vdW  Elec       q    Type
REMARK                         _______ _______ _______ _____ _____    ______ ____
ROOT
ATOM      1  C   UNL     1       1.335   8.714  20.205  0.00  0.00    +0.000 A 
ATOM      2  C   UNL     1       2.095   7.553  19.998  0.00  0.00    +0.000 A 
ATOM      3  C   UNL     1       2.661   7.282  18.752  0.00  0.00    +0.000 A 
ATOM      4  C   UNL     1       2.412   8.131  17.676  0.00  0.00    +0.000 A 
ATOM      5  C   UNL     1       1.618   9.264  17.862  0.00  0.00    +0.000 A 
ATOM      6  C   UNL     1       1.080   9.585  19.124  0.00  0.00    +0.000 A 
ENDROOT
BRANCH   6   7
ATOM      7  C   UNL     1       0.300  10.815  19.260  0.00  0.00    +0.000 A 
ATOM      8  C   UNL     1       0.642  12.107  19.727  0.00  0.00    +0.000 A 
ATOM      9  N   UNL     1      -0.384  12.962  19.689  0.00  0.00    +0.000 NA
ATOM     10  N   UNL     1      -1.391  12.227  19.193  0.00  0.00    +0.000 N 
ATOM     11  C   UNL     1      -1.036  10.934  18.930  0.00  0.00    +0.000 A 
ATOM     12  H   UNL     1      -2.293  12.671  19.059  0.00  0.00    +0.000 HD
ENDBRANCH   6   7
BRANCH   3  13
ATOM     13  C   UNL     1       3.530   6.080  18.623  0.00  0.00    +0.000 C 
ATOM     14  O   UNL     1       4.403   5.855  19.453  0.00  0.00    +0.000 OA
ATOM     15  N   UNL     1       3.329   5.311  17.497  0.00  0.00    +0.000 N 
ATOM     16  H   UNL     1       2.786   5.710  16.740  0.00  0.00    +0.000 HD
BRANCH  15  17
ATOM     17  C   UNL     1       4.214   4.199  17.195  0.00  0.00    +0.000 C 
BRANCH  17  18
ATOM     18  C   UNL     1       3.525   2.859  17.439  0.00  0.00    +0.000 C 
BRANCH  18  19
ATOM     19  C   UNL     1       2.799   2.807  18.760  0.00  0.00    +0.000 A 
ATOM     20  C   UNL     1       3.505   2.556  19.945  0.00  0.00    +0.000 A 
ATOM     21  C   UNL     1       2.835   2.514  21.168  0.00  0.00    +0.000 A 
ATOM     22  C   UNL     1       1.462   2.715  21.206  0.00  0.00    +0.000 A 
ATOM     23  F   UNL     1       0.821   2.679  22.381  0.00  0.00    +0.000 F 
ATOM     24  C   UNL     1       0.742   2.956  20.040  0.00  0.00    +0.000 A 
ATOM     25  C   UNL     1       1.409   3.000  18.816  0.00  0.00    +0.000 A 
ENDBRANCH  18  19
ENDBRANCH  17  18
ENDBRANCH  15  17
ENDBRANCH   3  13
BRANCH   1  27
ATOM     26  C   UNL     1      -0.439   8.420  21.747  0.00  0.00    +0.000 C 
ATOM     27  O   UNL     1       0.817   9.026  21.440  0.00  0.00    +0.000 OA
ENDBRANCH   1  27
TORSDOF 6
ENDMDL
MODEL 4
REMARK VINA RESULT:      -7.5      4.679      6.838
REMARK  Name = 
REMARK  7 active torsions:
REMARK  status: ('A' for Active; 'I' for Inactive)
REMARK    1  A    between atoms: C_1  and  O_2
REMARK    2  A    between atoms: O_2  and  C_3
REMARK    3  A    between atoms: C_5  and  C_6
REMARK    4  A    between atoms: N_8  and  C_9
REMARK    5  A    between atoms: C_9  and  C_10
REMARK    6  A    between atoms: C_10  and  C_11
REMARK    7  A    between atoms: C_20  and  C_21
REMARK                            x       y       z     vdW  Elec       q    Type
REMARK                         _______ _______ _______ _____ _____    ______ ____
ROOT
ATOM      1  C   UNL     1       4.669   4.221  18.932  0.00  0.00    +0.000 A 
ATOM      2  C   UNL     1       5.780   4.905  18.416  0.00  0.00    +0.000 A 
ATOM      3  C   UNL     1       5.614   6.037  17.616  0.00  0.00    +0.000 A 
ATOM      4  C   UNL     1       4.334   6.456  17.261  0.00  0.00    +0.000 A 
ATOM      5  C   UNL     1       3.224   5.752  17.733  0.00  0.00    +0.000 A 
ATOM      6  C   UNL     1       3.366   4.638  18.584  0.00  0.00    +0.000 A 
ENDROOT
BRANCH   6   7
ATOM      7  C   UNL     1       2.160   3.979  19.083  0.00  0.00    +0.000 A 
ATOM      8  C   UNL     1       1.280   3.040  18.492  0.00  0.00    +0.000 A 
ATOM      9  N   UNL     1       0.278   2.685  19.301  0.00  0.00    +0.000 NA
ATOM     10  N   UNL     1       0.511   3.388  20.420  0.00  0.00    +0.000 N 
ATOM     11  C   UNL     1       1.618   4.184  20.336  0.00  0.00    +0.000 A 
ATOM     12  H   UNL     1      -0.125   3.276  21.202  0.00  0.00    +0.000 HD
ENDBRANCH   6   7
BRANCH   3  13
ATOM     13  C   UNL     1       6.834   6.768  17.176  0.00  0.00    +0.000 C 
ATOM     14  O   UNL     1       7.607   6.258  16.374  0.00  0.00    +0.000 OA
ATOM     15  N   UNL     1       7.051   7.989  17.778  0.00  0.00    +0.000 N 
ATOM     16  H   UNL     1       6.521   8.208  18.613  0.00  0.00    +0.000 HD
BRANCH  15  17
ATOM     17  C   UNL     1       8.281   8.723  17.534  0.00  0.00    +0.000 C 
BRANCH  17  18
ATOM     18  C   UNL     1       8.677   9.564  18.744  0.00  0.00    +0.000 C 
BRANCH  18  19
ATOM     19  C   UNL     1       9.348  10.859  18.362  0.00  0.00    +0.000 A 
ATOM     20  C   UNL     1      10.734  11.010  18.520  0.00  0.00    +0.000 A 
ATOM     21  C   UNL     1      11.357  12.205  18.161  0.00  0.00    +0.000 A 
ATOM     22  C   UNL     1      10.596  13.250  17.653  0.00  0.00    +0.000 A 
ATOM     23  F   UNL     1      11.197  14.396  17.304  0.00  0.00    +0.000 F 
ATOM     24  C   UNL     1       9.220  13.123  17.498  0.00  0.00    +0.000 A 
ATOM     25  C   UNL     1       8.594  11.929  17.854  0.00  0.00    +0.000 A 
ENDBRANCH  18  19
ENDBRANCH  17  18
ENDBRANCH  15  17
ENDBRANCH   3  13
BRANCH   1  27
ATOM     26  C   UNL     1       4.597   1.864  19.159  0.00  0.00    +0.000 C 
ATOM     27  O   UNL     1       4.814   3.138  19.767  0.00  0.00    +0.000 OA
ENDBRANCH   1  27
TORSDOF 6
ENDMDL
MODEL 5
REMARK VINA RESULT:      -7.5      4.602      6.770
REMARK  Name = 
REMARK  7 active torsions:
REMARK  status: ('A' for Active; 'I' for Inactive)
REMARK    1  A    between atoms: C_1  and  O_2
REMARK    2  A    between atoms: O_2  and  C_3
REMARK    3  A    between atoms: C_5  and  C_6
REMARK    4  A    between atoms: N_8  and  C_9
REMARK    5  A    between atoms: C_9  and  C_10
REMARK    6  A    between atoms: C_10  and  C_11
REMARK    7  A    between atoms: C_20  and  C_21
REMARK                            x       y       z     vdW  Elec       q    Type
REMARK                         _______ _______ _______ _____ _____    ______ ____
ROOT
ATOM      1  C   UNL     1       4.630   4.360  19.009  0.00  0.00    +0.000 A 
ATOM      2  C   UNL     1       5.733   5.084  18.533  0.00  0.00    +0.000 A 
ATOM      3  C   UNL     1       5.559   6.175  17.681  0.00  0.00    +0.000 A 
ATOM      4  C   UNL     1       4.283   6.511  17.234  0.00  0.00    +0.000 A 
ATOM      5  C   UNL     1       3.184   5.766  17.665  0.00  0.00    +0.000 A 
ATOM      6  C   UNL     1       3.331   4.693  18.567  0.00  0.00    +0.000 A 
ENDROOT
BRANCH   6   7
ATOM      7  C   UNL     1       2.132   3.988  19.018  0.00  0.00    +0.000 A 
ATOM      8  C   UNL     1       1.321   3.005  18.400  0.00  0.00    +0.000 A 
ATOM      9  N   UNL     1       0.299   2.616  19.167  0.00  0.00    +0.000 NA
ATOM     10  N   UNL     1       0.449   3.342  20.286  0.00  0.00    +0.000 N 
ATOM     11  C   UNL     1       1.524   4.184  20.243  0.00  0.00    +0.000 A 
ATOM     12  H   UNL     1      -0.217   3.211  21.039  0.00  0.00    +0.000 HD
ENDBRANCH   6   7
BRANCH   3  13
ATOM     13  C   UNL     1       6.764   6.956  17.286  0.00  0.00    +0.000 C 
ATOM     14  O   UNL     1       7.619   6.453  16.567  0.00  0.00    +0.000 OA
ATOM     15  N   UNL     1       6.869   8.215  17.835  0.00  0.00    +0.000 N 
ATOM     16  H   UNL     1       6.270   8.444  18.619  0.00  0.00    +0.000 HD
BRANCH  15  17
ATOM     17  C   UNL     1       8.070   9.009  17.635  0.00  0.00    +0.000 C 
BRANCH  17  18
ATOM     18  C   UNL     1       8.886   9.114  18.920  0.00  0.00    +0.000 C 
BRANCH  18  19
ATOM     19  C   UNL     1       9.486  10.483  19.120  0.00  0.00    +0.000 A 
ATOM     20  C   UNL     1       9.631  11.009  20.413  0.00  0.00    +0.000 A 
ATOM     21  C   UNL     1      10.192  12.273  20.600  0.00  0.00    +0.000 A 
ATOM     22  C   UNL     1      10.599  13.012  19.498  0.00  0.00    +0.000 A 
ATOM     23  F   UNL     1      11.142  14.224  19.679  0.00  0.00    +0.000 F 
ATOM     24  C   UNL     1      10.456  12.513  18.208  0.00  0.00    +0.000 A 
ATOM     25  C   UNL     1       9.897  11.249  18.017  0.00  0.00    +0.000 A 
ENDBRANCH  18  19
ENDBRANCH  17  18
ENDBRANCH  15  17
ENDBRANCH   3  13
BRANCH   1  27
ATOM     26  C   UNL     1       4.577   2.016  19.343  0.00  0.00    +0.000 C 
ATOM     27  O   UNL     1       4.778   3.317  19.893  0.00  0.00    +0.000 OA
ENDBRANCH   1  27
TORSDOF 6
ENDMDL
MODEL 6
REMARK VINA RESULT:      -7.5      3.920      5.867
REMARK  Name = 
REMARK  7 active torsions:
REMARK  status: ('A' for Active; 'I' for Inactive)
REMARK    1  A    between atoms: C_1  and  O_2
REMARK    2  A    between atoms: O_2  and  C_3
REMARK    3  A    between atoms: C_5  and  C_6
REMARK    4  A    between atoms: N_8  and  C_9
REMARK    5  A    between atoms: C_9  and  C_10
REMARK    6  A    between atoms: C_10  and  C_11
REMARK    7  A    between atoms: C_20  and  C_21
REMARK                            x       y       z     vdW  Elec       q    Type
REMARK                         _______ _______ _______ _____ _____    ______ ____
ROOT
ATOM      1  C   UNL     1      -2.735  10.182  17.211  0.00  0.00    +0.000 A 
ATOM      2  C   UNL     1      -1.386   9.901  17.476  0.00  0.00    +0.000 A 
ATOM      3  C   UNL     1      -0.755  10.427  18.604  0.00  0.00    +0.000 A 
ATOM      4  C   UNL     1      -1.442  11.302  19.441  0.00  0.00    +0.000 A 
ATOM      5  C   UNL     1      -2.771  11.624  19.158  0.00  0.00    +0.000 A 
ATOM      6  C   UNL     1      -3.445  11.064  18.055  0.00  0.00    +0.000 A 
ENDROOT
BRANCH   6   7
ATOM      7  C   UNL     1      -4.852  11.404  17.846  0.00  0.00    +0.000 A 
ATOM      8  C   UNL     1      -6.033  11.004  18.516  0.00  0.00    +0.000 A 
ATOM      9  N   UNL     1      -7.135  11.554  18.000  0.00  0.00    +0.000 NA
ATOM     10  N   UNL     1      -6.670  12.316  16.998  0.00  0.00    +0.000 N 
ATOM     11  C   UNL     1      -5.313  12.253  16.859  0.00  0.00    +0.000 A 
ATOM     12  H   UNL     1      -7.334  12.854  16.452  0.00  0.00    +0.000 HD
ENDBRANCH   6   7
BRANCH   3  13
ATOM     13  C   UNL     1       0.651  10.017  18.876  0.00  0.00    +0.000 C 
ATOM     14  O   UNL     1       1.252  10.466  19.844  0.00  0.00    +0.000 OA
ATOM     15  N   UNL     1       1.222   9.180  17.941  0.00  0.00    +0.000 N 
ATOM     16  H   UNL     1       0.758   9.078  17.047  0.00  0.00    +0.000 HD
BRANCH  15  17
ATOM     17  C   UNL     1       2.630   8.831  18.027  0.00  0.00    +0.000 C 
BRANCH  17  18
ATOM     18  C   UNL     1       2.887   7.423  17.499  0.00  0.00    +0.000 C 
BRANCH  18  19
ATOM     19  C   UNL     1       2.376   6.349  18.426  0.00  0.00    +0.000 A 
ATOM     20  C   UNL     1       2.281   6.593  19.805  0.00  0.00    +0.000 A 
ATOM     21  C   UNL     1       1.802   5.603  20.663  0.00  0.00    +0.000 A 
ATOM     22  C   UNL     1       1.427   4.369  20.147  0.00  0.00    +0.000 A 
ATOM     23  F   UNL     1       0.963   3.421  20.971  0.00  0.00    +0.000 F 
ATOM     24  C   UNL     1       1.523   4.105  18.785  0.00  0.00    +0.000 A 
ATOM     25  C   UNL     1       2.000   5.094  17.923  0.00  0.00    +0.000 A 
ENDBRANCH  18  19
ENDBRANCH  17  18
ENDBRANCH  15  17
ENDBRANCH   3  13
BRANCH   1  27
ATOM     26  C   UNL     1      -2.966  10.096  14.855  0.00  0.00    +0.000 C 
ATOM     27  O   UNL     1      -3.389   9.628  16.136  0.00  0.00    +0.000 OA
ENDBRANCH   1  27
TORSDOF 6
ENDMDL
MODEL 7
REMARK VINA RESULT:      -7.5      4.025      7.003
REMARK  Name = 
REMARK  7 active torsions:
REMARK  status: ('A' for Active; 'I' for Inactive)
REMARK    1  A    between atoms: C_1  and  O_2
REMARK    2  A    between atoms: O_2  and  C_3
REMARK    3  A    between atoms: C_5  and  C_6
REMARK    4  A    between atoms: N_8  and  C_9
REMARK    5  A    between atoms: C_9  and  C_10
REMARK    6  A    between atoms: C_10  and  C_11
REMARK    7  A    between atoms: C_20  and  C_21
REMARK                            x       y       z     vdW  Elec       q    Type
REMARK                         _______ _______ _______ _____ _____    ______ ____
ROOT
ATOM      1  C   UNL     1       3.648   5.776  17.991  0.00  0.00    +0.000 A 
ATOM      2  C   UNL     1       4.736   6.586  17.633  0.00  0.00    +0.000 A 
ATOM      3  C   UNL     1       6.036   6.079  17.636  0.00  0.00    +0.000 A 
ATOM      4  C   UNL     1       6.273   4.776  18.068  0.00  0.00    +0.000 A 
ATOM      5  C   UNL     1       5.200   3.978  18.471  0.00  0.00    +0.000 A 
ATOM      6  C   UNL     1       3.874   4.452  18.426  0.00  0.00    +0.000 A 
ENDROOT
BRANCH   6   7
ATOM      7  C   UNL     1       2.792   3.547  18.813  0.00  0.00    +0.000 A 
ATOM      8  C   UNL     1       2.111   3.354  20.040  0.00  0.00    +0.000 A 
ATOM      9  N   UNL     1       1.172   2.408  19.969  0.00  0.00    +0.000 NA
ATOM     10  N   UNL     1       1.238   1.990  18.695  0.00  0.00    +0.000 N 
ATOM     11  C   UNL     1       2.198   2.632  17.967  0.00  0.00    +0.000 A 
ATOM     12  H   UNL     1       0.598   1.263  18.392  0.00  0.00    +0.000 HD
ENDBRANCH   6   7
BRANCH   3  13
ATOM     13  C   UNL     1       7.135   6.963  17.159  0.00  0.00    +0.000 C 
ATOM     14  O   UNL     1       7.856   6.611  16.233  0.00  0.00    +0.000 OA
ATOM     15  N   UNL     1       7.313   8.132  17.867  0.00  0.00    +0.000 N 
ATOM     16  H   UNL     1       6.861   8.216  18.769  0.00  0.00    +0.000 HD
BRANCH  15  17
ATOM     17  C   UNL     1       8.443   9.001  17.583  0.00  0.00    +0.000 C 
BRANCH  17  18
ATOM     18  C   UNL     1       8.885   9.763  18.829  0.00  0.00    +0.000 C 
BRANCH  18  19
ATOM     19  C   UNL     1       9.621  11.038  18.503  0.00  0.00    +0.000 A 
ATOM     20  C   UNL     1      10.977  11.177  18.839  0.00  0.00    +0.000 A 
ATOM     21  C   UNL     1      11.660  12.354  18.533  0.00  0.00    +0.000 A 
ATOM     22  C   UNL     1      10.990  13.392  17.900  0.00  0.00    +0.000 A 
ATOM     23  F   UNL     1      11.649  14.520  17.603  0.00  0.00    +0.000 F 
ATOM     24  C   UNL     1       9.645  13.278  17.568  0.00  0.00    +0.000 A 
ATOM     25  C   UNL     1       8.958  12.102  17.871  0.00  0.00    +0.000 A 
ENDBRANCH  18  19
ENDBRANCH  17  18
ENDBRANCH  15  17
ENDBRANCH   3  13
BRANCH   1  27
ATOM     26  C   UNL     1       2.199   7.640  18.183  0.00  0.00    +0.000 C 
ATOM     27  O   UNL     1       2.355   6.242  17.939  0.00  0.00    +0.000 OA
ENDBRANCH   1  27
TORSDOF 6
ENDMDL
MODEL 8
REMARK VINA RESULT:      -7.5      4.185      6.773
REMARK  Name = 
REMARK  7 active torsions:
REMARK  status: ('A' for Active; 'I' for Inactive)
REMARK    1  A    between atoms: C_1  and  O_2
REMARK    2  A    between atoms: O_2  and  C_3
REMARK    3  A    between atoms: C_5  and  C_6
REMARK    4  A    between atoms: N_8  and  C_9
REMARK    5  A    between atoms: C_9  and  C_10
REMARK    6  A    between atoms: C_10  and  C_11
REMARK    7  A    between atoms: C_20  and  C_21
REMARK                            x       y       z     vdW  Elec       q    Type
REMARK                         _______ _______ _______ _____ _____    ______ ____
ROOT
ATOM      1  C   UNL     1       4.065   5.046  18.944  0.00  0.00    +0.000 A 
ATOM      2  C   UNL     1       5.197   5.819  18.645  0.00  0.00    +0.000 A 
ATOM      3  C   UNL     1       5.904   5.622  17.458  0.00  0.00    +0.000 A 
ATOM      4  C   UNL     1       5.532   4.600  16.589  0.00  0.00    +0.000 A 
ATOM      5  C   UNL     1       4.435   3.795  16.902  0.00  0.00    +0.000 A 
ATOM      6  C   UNL     1       3.675   4.009  18.069  0.00  0.00    +0.000 A 
ENDROOT
BRANCH   6   7
ATOM      7  C   UNL     1       2.507   3.163  18.310  0.00  0.00    +0.000 A 
ATOM      8  C   UNL     1       1.119   3.400  18.164  0.00  0.00    +0.000 A 
ATOM      9  N   UNL     1       0.372   2.344  18.499  0.00  0.00    +0.000 NA
ATOM     10  N   UNL     1       1.276   1.419  18.857  0.00  0.00    +0.000 N 
ATOM     11  C   UNL     1       2.565   1.862  18.771  0.00  0.00    +0.000 A 
ATOM     12  H   UNL     1       0.943   0.506  19.148  0.00  0.00    +0.000 HD
ENDBRANCH   6   7
BRANCH   3  13
ATOM     13  C   UNL     1       7.041   6.536  17.160  0.00  0.00    +0.000 C 
ATOM     14  O   UNL     1       7.687   6.406  16.127  0.00  0.00    +0.000 OA
ATOM     15  N   UNL     1       7.343   7.458  18.140  0.00  0.00    +0.000 N 
ATOM     16  H   UNL     1       6.944   7.321  19.061  0.00  0.00    +0.000 HD
BRANCH  15  17
ATOM     17  C   UNL     1       8.519   8.302  18.021  0.00  0.00    +0.000 C 
BRANCH  17  18
ATOM     18  C   UNL     1       8.142   9.729  17.634  0.00  0.00    +0.000 C 
BRANCH  18  19
ATOM     19  C   UNL     1       8.899  10.768  18.422  0.00  0.00    +0.000 A 
ATOM     20  C   UNL     1       9.006  12.082  17.940  0.00  0.00    +0.000 A 
ATOM     21  C   UNL     1       9.700  13.045  18.671  0.00  0.00    +0.000 A 
ATOM     22  C   UNL     1      10.294  12.696  19.877  0.00  0.00    +0.000 A 
ATOM     23  F   UNL     1      10.957  13.624  20.580  0.00  0.00    +0.000 F 
ATOM     24  C   UNL     1      10.207  11.398  20.367  0.00  0.00    +0.000 A 
ATOM     25  C   UNL     1       9.512  10.432  19.639  0.00  0.00    +0.000 A 
ENDBRANCH  18  19
ENDBRANCH  17  18
ENDBRANCH  15  17
ENDBRANCH   3  13
BRANCH   1  27
ATOM     26  C   UNL     1       2.399   6.350  20.009  0.00  0.00    +0.000 C 
ATOM     27  O   UNL     1       3.323   5.264  20.081  0.00  0.00    +0.000 OA
ENDBRANCH   1  27
TORSDOF 6
ENDMDL
MODEL 9
REMARK VINA RESULT:      -7.3      1.740      2.316
REMARK  Name = 
REMARK  7 active torsions:
REMARK  status: ('A' for Active; 'I' for Inactive)
REMARK    1  A    between atoms: C_1  and  O_2
REMARK    2  A    between atoms: O_2  and  C_3
REMARK    3  A    between atoms: C_5  and  C_6
REMARK    4  A    between atoms: N_8  and  C_9
REMARK    5  A    between atoms: C_9  and  C_10
REMARK    6  A    between atoms: C_10  and  C_11
REMARK    7  A    between atoms: C_20  and  C_21
REMARK                            x       y       z     vdW  Elec       q    Type
REMARK                         _______ _______ _______ _____ _____    ______ ____
ROOT
ATOM      1  C   UNL     1       0.864   9.505  20.325  0.00  0.00    +0.000 A 
ATOM      2  C   UNL     1       1.410   8.223  20.491  0.00  0.00    +0.000 A 
ATOM      3  C   UNL     1       2.068   7.585  19.439  0.00  0.00    +0.000 A 
ATOM      4  C   UNL     1       2.124   8.188  18.186  0.00  0.00    +0.000 A 
ATOM      5  C   UNL     1       1.542   9.444  17.999  0.00  0.00    +0.000 A 
ATOM      6  C   UNL     1       0.918  10.130  19.060  0.00  0.00    +0.000 A 
ENDROOT
BRANCH   6   7
ATOM      7  C   UNL     1       0.375  11.464  18.809  0.00  0.00    +0.000 A 
ATOM      8  C   UNL     1       0.966  12.750  18.844  0.00  0.00    +0.000 A 
ATOM      9  N   UNL     1       0.104  13.727  18.547  0.00  0.00    +0.000 NA
ATOM     10  N   UNL     1      -1.045  13.075  18.312  0.00  0.00    +0.000 N 
ATOM     11  C   UNL     1      -0.938  11.722  18.466  0.00  0.00    +0.000 A 
ATOM     12  H   UNL     1      -1.862  13.616  18.051  0.00  0.00    +0.000 HD
ENDBRANCH   6   7
BRANCH   3  13
ATOM     13  C   UNL     1       2.703   6.265  19.708  0.00  0.00    +0.000 C 
ATOM     14  O   UNL     1       2.196   5.484  20.504  0.00  0.00    +0.000 OA
ATOM     15  N   UNL     1       3.902   6.035  19.068  0.00  0.00    +0.000 N 
ATOM     16  H   UNL     1       4.378   6.826  18.652  0.00  0.00    +0.000 HD
BRANCH  15  17
ATOM     17  C   UNL     1       4.681   4.845  19.367  0.00  0.00    +0.000 C 
BRANCH  17  18
ATOM     18  C   UNL     1       4.565   3.811  18.251  0.00  0.00    +0.000 C 
BRANCH  18  19
ATOM     19  C   UNL     1       5.370   4.177  17.029  0.00  0.00    +0.000 A 
ATOM     20  C   UNL     1       6.705   4.589  17.161  0.00  0.00    +0.000 A 
ATOM     21  C   UNL     1       7.453   4.922  16.031  0.00  0.00    +0.000 A 
ATOM     22  C   UNL     1       6.866   4.851  14.774  0.00  0.00    +0.000 A 
ATOM     23  F   UNL     1       7.587   5.166  13.690  0.00  0.00    +0.000 F 
ATOM     24  C   UNL     1       5.542   4.454  14.624  0.00  0.00    +0.000 A 
ATOM     25  C   UNL     1       4.792   4.119  15.752  0.00  0.00    +0.000 A 
ENDBRANCH  18  19
ENDBRANCH  17  18
ENDBRANCH  15  17
ENDBRANCH   3  13
BRANCH   1  27
ATOM     26  C   UNL     1       0.006   9.387  22.529  0.00  0.00    +0.000 C 
ATOM     27  O   UNL     1       0.263  10.173  21.366  0.00  0.00    +0.000 OA
ENDBRANCH   1  27
TORSDOF 6
ENDMDL
