MODEL 1
REMARK VINA RESULT:      -6.8      0.000      0.000
REMARK  Name = 
REMARK  3 active torsions:
REMARK  status: ('A' for Active; 'I' for Inactive)
REMARK    1  A    between atoms: C_1  and  N_2
REMARK    2  A    between atoms: N_9  and  C_10
REMARK    3  A    between atoms: C_10  and  C_11
REMARK                            x       y       z     vdW  Elec       q    Type
REMARK                         _______ _______ _______ _____ _____    ______ ____
ROOT
ATOM      1  C   UNL     1       7.931   5.804  19.148  0.00  0.00    +0.000 C 
ATOM      2  N   UNL     1       6.944   5.719  18.089  0.00  0.00    +0.000 N 
ATOM      3  C   UNL     1       7.190   4.948  16.963  0.00  0.00    +0.000 C 
ATOM      4  O   UNL     1       8.107   4.132  16.887  0.00  0.00    +0.000 OA
ATOM      5  C   UNL     1       6.326   5.294  15.738  0.00  0.00    +0.000 C 
ATOM      6  O   UNL     1       5.068   5.910  15.942  0.00  0.00    +0.000 OA
ATOM      7  C   UNL     1       5.127   6.953  16.927  0.00  0.00    +0.000 C 
ATOM      8  C   UNL     1       3.690   7.307  17.306  0.00  0.00    +0.000 C 
ATOM      9  N   UNL     1       3.282   6.360  18.376  0.00  0.00    +0.000 NA
ATOM     10  C   UNL     1       4.495   5.575  18.729  0.00  0.00    +0.000 C 
ATOM     11  C   UNL     1       5.678   6.430  18.249  0.00  0.00    +0.000 C 
ENDROOT
BRANCH   9  12
ATOM     12  C   UNL     1       2.191   5.466  17.948  0.00  0.00    +0.000 C 
BRANCH  12  13
ATOM     13  C   UNL     1       1.889   4.356  18.936  0.00  0.00    +0.000 A 
ATOM     14  C   UNL     1       1.656   4.646  20.282  0.00  0.00    +0.000 A 
ATOM     15  C   UNL     1       1.407   3.601  21.159  0.00  0.00    +0.000 A 
ATOM     16  N   UNL     1       1.373   2.302  20.789  0.00  0.00    +0.000 NA
ATOM     17  C   UNL     1       1.599   2.045  19.483  0.00  0.00    +0.000 A 
ATOM     18  C   UNL     1       1.856   3.017  18.532  0.00  0.00    +0.000 A 
ENDBRANCH  12  13
ENDBRANCH   9  12
TORSDOF 2
ENDMDL
MODEL 2
REMARK VINA RESULT:      -6.7      0.161      1.117
REMARK  Name = 
REMARK  3 active torsions:
REMARK  status: ('A' for Active; 'I' for Inactive)
REMARK    1  A    between atoms: C_1  and  N_2
REMARK    2  A    between atoms: N_9  and  C_10
REMARK    3  A    between atoms: C_10  and  C_11
REMARK                            x       y       z     vdW  Elec       q    Type
REMARK                         _______ _______ _______ _____ _____    ______ ____
ROOT
ATOM      1  C   UNL     1       7.973   5.726  19.338  0.00  0.00    +0.000 C 
ATOM      2  N   UNL     1       7.020   5.663  18.248  0.00  0.00    +0.000 N 
ATOM      3  C   UNL     1       7.286   4.889  17.128  0.00  0.00    +0.000 C 
ATOM      4  O   UNL     1       8.188   4.055  17.080  0.00  0.00    +0.000 OA
ATOM      5  C   UNL     1       6.470   5.256  15.877  0.00  0.00    +0.000 C 
ATOM      6  O   UNL     1       5.219   5.897  16.041  0.00  0.00    +0.000 OA
ATOM      7  C   UNL     1       5.267   6.936  17.031  0.00  0.00    +0.000 C 
ATOM      8  C   UNL     1       3.826   7.319  17.364  0.00  0.00    +0.000 C 
ATOM      9  N   UNL     1       3.364   6.378  18.418  0.00  0.00    +0.000 NA
ATOM     10  C   UNL     1       4.548   5.568  18.807  0.00  0.00    +0.000 C 
ATOM     11  C   UNL     1       5.764   6.400  18.368  0.00  0.00    +0.000 C 
ENDROOT
BRANCH   9  12
ATOM     12  C   UNL     1       2.269   5.508  17.952  0.00  0.00    +0.000 C 
BRANCH  12  13
ATOM     13  C   UNL     1       1.956   4.364  18.896  0.00  0.00    +0.000 A 
ATOM     14  C   UNL     1       1.975   3.042  18.442  0.00  0.00    +0.000 A 
ATOM     15  C   UNL     1       1.660   2.025  19.331  0.00  0.00    +0.000 A 
ATOM     16  N   UNL     1       1.334   2.232  20.625  0.00  0.00    +0.000 NA
ATOM     17  C   UNL     1       1.326   3.515  21.043  0.00  0.00    +0.000 A 
ATOM     18  C   UNL     1       1.625   4.598  20.235  0.00  0.00    +0.000 A 
ENDBRANCH  12  13
ENDBRANCH   9  12
TORSDOF 2
ENDMDL
MODEL 3
REMARK VINA RESULT:      -6.5      2.365      5.753
REMARK  Name = 
REMARK  3 active torsions:
REMARK  status: ('A' for Active; 'I' for Inactive)
REMARK    1  A    between atoms: C_1  and  N_2
REMARK    2  A    between atoms: N_9  and  C_10
REMARK    3  A    between atoms: C_10  and  C_11
REMARK                            x       y       z     vdW  Elec       q    Type
REMARK                         _______ _______ _______ _____ _____    ______ ____
ROOT
ATOM      1  C   UNL     1       1.230   2.719  21.437  0.00  0.00    +0.000 C 
ATOM      2  N   UNL     1       1.931   2.880  20.178  0.00  0.00    +0.000 N 
ATOM      3  C   UNL     1       1.406   2.345  19.011  0.00  0.00    +0.000 C 
ATOM      4  O   UNL     1       0.255   1.925  18.917  0.00  0.00    +0.000 OA
ATOM      5  C   UNL     1       2.420   2.164  17.868  0.00  0.00    +0.000 C 
ATOM      6  O   UNL     1       3.574   2.982  17.843  0.00  0.00    +0.000 OA
ATOM      7  C   UNL     1       4.176   3.113  19.140  0.00  0.00    +0.000 C 
ATOM      8  C   UNL     1       5.184   4.258  19.065  0.00  0.00    +0.000 C 
ATOM      9  N   UNL     1       4.429   5.512  19.322  0.00  0.00    +0.000 NA
ATOM     10  C   UNL     1       3.049   5.104  19.694  0.00  0.00    +0.000 C 
ATOM     11  C   UNL     1       3.176   3.644  20.159  0.00  0.00    +0.000 C 
ENDROOT
BRANCH   9  12
ATOM     12  C   UNL     1       4.408   6.405  18.148  0.00  0.00    +0.000 C 
BRANCH  12  13
ATOM     13  C   UNL     1       5.414   6.029  17.078  0.00  0.00    +0.000 A 
ATOM     14  C   UNL     1       6.770   6.322  17.244  0.00  0.00    +0.000 A 
ATOM     15  C   UNL     1       7.656   5.983  16.232  0.00  0.00    +0.000 A 
ATOM     16  N   UNL     1       7.287   5.379  15.081  0.00  0.00    +0.000 NA
ATOM     17  C   UNL     1       5.973   5.103  14.944  0.00  0.00    +0.000 A 
ATOM     18  C   UNL     1       5.012   5.400  15.895  0.00  0.00    +0.000 A 
ENDBRANCH  12  13
ENDBRANCH   9  12
TORSDOF 2
ENDMDL
MODEL 4
REMARK VINA RESULT:      -6.4      2.313      5.798
REMARK  Name = 
REMARK  3 active torsions:
REMARK  status: ('A' for Active; 'I' for Inactive)
REMARK    1  A    between atoms: C_1  and  N_2
REMARK    2  A    between atoms: N_9  and  C_10
REMARK    3  A    between atoms: C_10  and  C_11
REMARK                            x       y       z     vdW  Elec       q    Type
REMARK                         _______ _______ _______ _____ _____    ______ ____
ROOT
ATOM      1  C   UNL     1       1.083   2.846  21.173  0.00  0.00    +0.000 C 
ATOM      2  N   UNL     1       1.844   2.994  19.948  0.00  0.00    +0.000 N 
ATOM      3  C   UNL     1       1.391   2.424  18.768  0.00  0.00    +0.000 C 
ATOM      4  O   UNL     1       0.254   1.978  18.625  0.00  0.00    +0.000 OA
ATOM      5  C   UNL     1       2.465   2.238  17.683  0.00  0.00    +0.000 C 
ATOM      6  O   UNL     1       3.603   3.078  17.697  0.00  0.00    +0.000 OA
ATOM      7  C   UNL     1       4.135   3.249  19.020  0.00  0.00    +0.000 C 
ATOM      8  C   UNL     1       5.124   4.413  18.970  0.00  0.00    +0.000 C 
ATOM      9  N   UNL     1       4.333   5.657  19.160  0.00  0.00    +0.000 NA
ATOM     10  C   UNL     1       2.943   5.229  19.471  0.00  0.00    +0.000 C 
ATOM     11  C   UNL     1       3.074   3.782  19.975  0.00  0.00    +0.000 C 
ENDROOT
BRANCH   9  12
ATOM     12  C   UNL     1       4.355   6.523  17.967  0.00  0.00    +0.000 C 
BRANCH  12  13
ATOM     13  C   UNL     1       5.413   6.136  16.952  0.00  0.00    +0.000 A 
ATOM     14  C   UNL     1       5.056   5.496  15.763  0.00  0.00    +0.000 A 
ATOM     15  C   UNL     1       6.056   5.137  14.871  0.00  0.00    +0.000 A 
ATOM     16  N   UNL     1       7.370   5.373  15.079  0.00  0.00    +0.000 NA
ATOM     17  C   UNL     1       7.691   5.996  16.232  0.00  0.00    +0.000 A 
ATOM     18  C   UNL     1       6.769   6.392  17.185  0.00  0.00    +0.000 A 
ENDBRANCH  12  13
ENDBRANCH   9  12
TORSDOF 2
ENDMDL
MODEL 5
REMARK VINA RESULT:      -6.4      2.923      6.255
REMARK  Name = 
REMARK  3 active torsions:
REMARK  status: ('A' for Active; 'I' for Inactive)
REMARK    1  A    between atoms: C_1  and  N_2
REMARK    2  A    between atoms: N_9  and  C_10
REMARK    3  A    between atoms: C_10  and  C_11
REMARK                            x       y       z     vdW  Elec       q    Type
REMARK                         _______ _______ _______ _____ _____    ______ ____
ROOT
ATOM      1  C   UNL     1       2.312   6.974  19.362  0.00  0.00    +0.000 C 
ATOM      2  N   UNL     1       3.013   5.712  19.226  0.00  0.00    +0.000 N 
ATOM      3  C   UNL     1       2.442   4.540  19.698  0.00  0.00    +0.000 C 
ATOM      4  O   UNL     1       1.263   4.447  20.032  0.00  0.00    +0.000 OA
ATOM      5  C   UNL     1       3.432   3.384  19.929  0.00  0.00    +0.000 C 
ATOM      6  O   UNL     1       4.642   3.364  19.197  0.00  0.00    +0.000 OA
ATOM      7  C   UNL     1       5.262   4.659  19.136  0.00  0.00    +0.000 C 
ATOM      8  C   UNL     1       6.350   4.597  18.066  0.00  0.00    +0.000 C 
ATOM      9  N   UNL     1       5.690   4.885  16.765  0.00  0.00    +0.000 NA
ATOM     10  C   UNL     1       4.286   5.262  17.080  0.00  0.00    +0.000 C 
ATOM     11  C   UNL     1       4.310   5.697  18.554  0.00  0.00    +0.000 C 
ENDROOT
BRANCH   9  12
ATOM     12  C   UNL     1       5.725   3.730  15.850  0.00  0.00    +0.000 C 
BRANCH  12  13
ATOM     13  C   UNL     1       6.326   4.044  14.494  0.00  0.00    +0.000 A 
ATOM     14  C   UNL     1       7.342   4.995  14.371  0.00  0.00    +0.000 A 
ATOM     15  C   UNL     1       7.850   5.272  13.110  0.00  0.00    +0.000 A 
ATOM     16  N   UNL     1       7.420   4.671  11.978  0.00  0.00    +0.000 NA
ATOM     17  C   UNL     1       6.441   3.754  12.122  0.00  0.00    +0.000 A 
ATOM     18  C   UNL     1       5.870   3.409  13.335  0.00  0.00    +0.000 A 
ENDBRANCH  12  13
ENDBRANCH   9  12
TORSDOF 2
ENDMDL
MODEL 6
REMARK VINA RESULT:      -6.2      3.043      6.333
REMARK  Name = 
REMARK  3 active torsions:
REMARK  status: ('A' for Active; 'I' for Inactive)
REMARK    1  A    between atoms: C_1  and  N_2
REMARK    2  A    between atoms: N_9  and  C_10
REMARK    3  A    between atoms: C_10  and  C_11
REMARK                            x       y       z     vdW  Elec       q    Type
REMARK                         _______ _______ _______ _____ _____    ______ ____
ROOT
ATOM      1  C   UNL     1       1.221   3.794  18.085  0.00  0.00    +0.000 C 
ATOM      2  N   UNL     1       2.620   3.636  18.431  0.00  0.00    +0.000 N 
ATOM      3  C   UNL     1       3.036   2.550  19.186  0.00  0.00    +0.000 C 
ATOM      4  O   UNL     1       2.331   1.566  19.403  0.00  0.00    +0.000 OA
ATOM      5  C   UNL     1       4.400   2.723  19.876  0.00  0.00    +0.000 C 
ATOM      6  O   UNL     1       5.336   3.629  19.322  0.00  0.00    +0.000 OA
ATOM      7  C   UNL     1       4.724   4.865  18.922  0.00  0.00    +0.000 C 
ATOM      8  C   UNL     1       5.729   5.614  18.049  0.00  0.00    +0.000 C 
ATOM      9  N   UNL     1       5.552   5.112  16.662  0.00  0.00    +0.000 NA
ATOM     10  C   UNL     1       4.370   4.210  16.688  0.00  0.00    +0.000 C 
ATOM     11  C   UNL     1       3.582   4.622  17.942  0.00  0.00    +0.000 C 
ENDROOT
BRANCH   9  12
ATOM     12  C   UNL     1       6.741   4.394  16.169  0.00  0.00    +0.000 C 
BRANCH  12  13
ATOM     13  C   UNL     1       6.867   4.387  14.658  0.00  0.00    +0.000 A 
ATOM     14  C   UNL     1       7.711   5.293  14.011  0.00  0.00    +0.000 A 
ATOM     15  C   UNL     1       7.781   5.271  12.626  0.00  0.00    +0.000 A 
ATOM     16  N   UNL     1       7.076   4.417  11.851  0.00  0.00    +0.000 NA
ATOM     17  C   UNL     1       6.270   3.549  12.498  0.00  0.00    +0.000 A 
ATOM     18  C   UNL     1       6.131   3.492  13.874  0.00  0.00    +0.000 A 
ENDBRANCH  12  13
ENDBRANCH   9  12
TORSDOF 2
ENDMDL
MODEL 7
REMARK VINA RESULT:      -6.2      1.866      2.533
REMARK  Name = 
REMARK  3 active torsions:
REMARK  status: ('A' for Active; 'I' for Inactive)
REMARK    1  A    between atoms: C_1  and  N_2
REMARK    2  A    between atoms: N_9  and  C_10
REMARK    3  A    between atoms: C_10  and  C_11
REMARK                            x       y       z     vdW  Elec       q    Type
REMARK                         _______ _______ _______ _____ _____    ______ ____
ROOT
ATOM      1  C   UNL     1       7.191   4.998  14.725  0.00  0.00    +0.000 C 
ATOM      2  N   UNL     1       6.631   5.090  16.059  0.00  0.00    +0.000 N 
ATOM      3  C   UNL     1       7.059   6.079  16.931  0.00  0.00    +0.000 C 
ATOM      4  O   UNL     1       7.733   7.046  16.581  0.00  0.00    +0.000 OA
ATOM      5  C   UNL     1       6.767   5.804  18.416  0.00  0.00    +0.000 C 
ATOM      6  O   UNL     1       5.693   4.947  18.755  0.00  0.00    +0.000 OA
ATOM      7  C   UNL     1       5.653   3.774  17.926  0.00  0.00    +0.000 C 
ATOM      8  C   UNL     1       4.296   3.106  18.141  0.00  0.00    +0.000 C 
ATOM      9  N   UNL     1       3.342   3.761  17.209  0.00  0.00    +0.000 NA
ATOM     10  C   UNL     1       4.147   4.677  16.357  0.00  0.00    +0.000 C 
ATOM     11  C   UNL     1       5.587   4.146  16.450  0.00  0.00    +0.000 C 
ENDROOT
BRANCH   9  12
ATOM     12  C   UNL     1       2.286   4.506  17.918  0.00  0.00    +0.000 C 
BRANCH  12  13
ATOM     13  C   UNL     1       2.056   4.033  19.340  0.00  0.00    +0.000 A 
ATOM     14  C   UNL     1       2.604   4.732  20.419  0.00  0.00    +0.000 A 
ATOM     15  C   UNL     1       2.391   4.254  21.703  0.00  0.00    +0.000 A 
ATOM     16  N   UNL     1       1.676   3.142  21.982  0.00  0.00    +0.000 NA
ATOM     17  C   UNL     1       1.153   2.485  20.926  0.00  0.00    +0.000 A 
ATOM     18  C   UNL     1       1.309   2.881  19.609  0.00  0.00    +0.000 A 
ENDBRANCH  12  13
ENDBRANCH   9  12
TORSDOF 2
ENDMDL
MODEL 8
REMARK VINA RESULT:      -6.1      1.870      2.704
REMARK  Name = 
REMARK  3 active torsions:
REMARK  status: ('A' for Active; 'I' for Inactive)
REMARK    1  A    between atoms: C_1  and  N_2
REMARK    2  A    between atoms: N_9  and  C_10
REMARK    3  A    between atoms: C_10  and  C_11
REMARK                            x       y       z     vdW  Elec       q    Type
REMARK                         _______ _______ _______ _____ _____    ______ ____
ROOT
ATOM      1  C   UNL     1       7.230   5.076  14.732  0.00  0.00    +0.000 C 
ATOM      2  N   UNL     1       6.663   5.143  16.065  0.00  0.00    +0.000 N 
ATOM      3  C   UNL     1       7.079   6.122  16.955  0.00  0.00    +0.000 C 
ATOM      4  O   UNL     1       7.745   7.100  16.623  0.00  0.00    +0.000 OA
ATOM      5  C   UNL     1       6.782   5.821  18.434  0.00  0.00    +0.000 C 
ATOM      6  O   UNL     1       5.714   4.949  18.754  0.00  0.00    +0.000 OA
ATOM      7  C   UNL     1       5.688   3.790  17.907  0.00  0.00    +0.000 C 
ATOM      8  C   UNL     1       4.336   3.107  18.106  0.00  0.00    +0.000 C 
ATOM      9  N   UNL     1       3.380   3.768  17.179  0.00  0.00    +0.000 NA
ATOM     10  C   UNL     1       4.181   4.704  16.346  0.00  0.00    +0.000 C 
ATOM     11  C   UNL     1       5.625   4.184  16.436  0.00  0.00    +0.000 C 
ENDROOT
BRANCH   9  12
ATOM     12  C   UNL     1       2.315   4.492  17.895  0.00  0.00    +0.000 C 
BRANCH  12  13
ATOM     13  C   UNL     1       2.104   4.017  19.319  0.00  0.00    +0.000 A 
ATOM     14  C   UNL     1       1.399   2.839  19.578  0.00  0.00    +0.000 A 
ATOM     15  C   UNL     1       1.207   2.450  20.895  0.00  0.00    +0.000 A 
ATOM     16  N   UNL     1       1.667   3.144  21.959  0.00  0.00    +0.000 NA
ATOM     17  C   UNL     1       2.349   4.276  21.685  0.00  0.00    +0.000 A 
ATOM     18  C   UNL     1       2.592   4.749  20.407  0.00  0.00    +0.000 A 
ENDBRANCH  12  13
ENDBRANCH   9  12
TORSDOF 2
ENDMDL
MODEL 9
REMARK VINA RESULT:      -6.1      1.046      1.426
REMARK  Name = 
REMARK  3 active torsions:
REMARK  status: ('A' for Active; 'I' for Inactive)
REMARK    1  A    between atoms: C_1  and  N_2
REMARK    2  A    between atoms: N_9  and  C_10
REMARK    3  A    between atoms: C_10  and  C_11
REMARK                            x       y       z     vdW  Elec       q    Type
REMARK                         _______ _______ _______ _____ _____    ______ ____
ROOT
ATOM      1  C   UNL     1       8.190   6.388  19.098  0.00  0.00    +0.000 C 
ATOM      2  N   UNL     1       7.204   5.807  18.209  0.00  0.00    +0.000 N 
ATOM      3  C   UNL     1       7.507   4.668  17.477  0.00  0.00    +0.000 C 
ATOM      4  O   UNL     1       8.492   3.965  17.694  0.00  0.00    +0.000 OA
ATOM      5  C   UNL     1       6.603   4.422  16.256  0.00  0.00    +0.000 C 
ATOM      6  O   UNL     1       5.298   4.968  16.252  0.00  0.00    +0.000 OA
ATOM      7  C   UNL     1       5.273   6.322  16.732  0.00  0.00    +0.000 C 
ATOM      8  C   UNL     1       3.815   6.687  17.001  0.00  0.00    +0.000 C 
ATOM      9  N   UNL     1       3.503   6.224  18.379  0.00  0.00    +0.000 NA
ATOM     10  C   UNL     1       4.784   5.744  18.962  0.00  0.00    +0.000 C 
ATOM     11  C   UNL     1       5.882   6.422  18.126  0.00  0.00    +0.000 C 
ENDROOT
BRANCH   9  12
ATOM     12  C   UNL     1       2.491   5.152  18.395  0.00  0.00    +0.000 C 
BRANCH  12  13
ATOM     13  C   UNL     1       2.617   4.213  19.579  0.00  0.00    +0.000 A 
ATOM     14  C   UNL     1       3.514   3.142  19.545  0.00  0.00    +0.000 A 
ATOM     15  C   UNL     1       3.583   2.292  20.639  0.00  0.00    +0.000 A 
ATOM     16  N   UNL     1       2.829   2.435  21.751  0.00  0.00    +0.000 NA
ATOM     17  C   UNL     1       1.972   3.478  21.763  0.00  0.00    +0.000 A 
ATOM     18  C   UNL     1       1.830   4.380  20.723  0.00  0.00    +0.000 A 
ENDBRANCH  12  13
ENDBRANCH   9  12
TORSDOF 2
ENDMDL
