MODEL 1
REMARK VINA RESULT:      -6.9      0.000      0.000
REMARK  Name = 
REMARK  3 active torsions:
REMARK  status: ('A' for Active; 'I' for Inactive)
REMARK    1  A    between atoms: C_5  and  N_6
REMARK    2  A    between atoms: C_7  and  S_8
REMARK    3  A    between atoms: N_9  and  C_10
REMARK                            x       y       z     vdW  Elec       q    Type
REMARK                         _______ _______ _______ _____ _____    ______ ____
ROOT
ATOM      1  N   UNL     1       4.123   2.940  17.372  0.00  0.00    +0.000 N 
ATOM      2  C   UNL     1       5.105   3.882  17.198  0.00  0.00    +0.000 C 
ATOM      3  N   UNL     1       5.430   4.766  18.089  0.00  0.00    +0.000 NA
ATOM      4  H   UNL     1       4.109   2.195  16.696  0.00  0.00    +0.000 HD
ENDROOT
BRANCH   1   9
ATOM      5  F   UNL     1       1.012   2.838  21.938  0.00  0.00    +0.000 F 
ATOM      6  C   UNL     1       1.749   2.841  20.820  0.00  0.00    +0.000 A 
ATOM      7  C   UNL     1       1.141   3.106  19.603  0.00  0.00    +0.000 A 
ATOM      8  C   UNL     1       1.909   3.064  18.444  0.00  0.00    +0.000 A 
ATOM      9  C   UNL     1       3.286   2.793  18.488  0.00  0.00    +0.000 A 
ATOM     10  C   UNL     1       3.852   2.443  19.723  0.00  0.00    +0.000 A 
ATOM     11  C   UNL     1       3.086   2.475  20.888  0.00  0.00    +0.000 A 
ENDBRANCH   1   9
BRANCH   3  12
ATOM     12  C   UNL     1       6.317   5.828  17.918  0.00  0.00    +0.000 A 
ATOM     13  C   UNL     1       7.446   5.920  18.733  0.00  0.00    +0.000 A 
ATOM     14  C   UNL     1       8.246   7.059  18.691  0.00  0.00    +0.000 A 
ATOM     15  C   UNL     1       7.899   8.076  17.817  0.00  0.00    +0.000 A 
ATOM     16  N   UNL     1       6.807   8.045  17.024  0.00  0.00    +0.000 NA
ATOM     17  C   UNL     1       6.040   6.936  17.115  0.00  0.00    +0.000 A 
ENDBRANCH   3  12
BRANCH   2  18
ATOM     18  S   UNL     1       5.861   3.720  15.620  0.00  0.00    +0.000 S 
ATOM     19  H   UNL     1       6.485   4.906  15.665  0.00  0.00    +0.000 HD
ENDBRANCH   2  18
TORSDOF 3
ENDMDL
MODEL 2
REMARK VINA RESULT:      -6.8      0.444      1.251
REMARK  Name = 
REMARK  3 active torsions:
REMARK  status: ('A' for Active; 'I' for Inactive)
REMARK    1  A    between atoms: C_5  and  N_6
REMARK    2  A    between atoms: C_7  and  S_8
REMARK    3  A    between atoms: N_9  and  C_10
REMARK                            x       y       z     vdW  Elec       q    Type
REMARK                         _______ _______ _______ _____ _____    ______ ____
ROOT
ATOM      1  N   UNL     1       3.787   3.223  17.774  0.00  0.00    +0.000 N 
ATOM      2  C   UNL     1       4.820   4.079  17.487  0.00  0.00    +0.000 C 
ATOM      3  N   UNL     1       5.304   4.942  18.325  0.00  0.00    +0.000 NA
ATOM      4  H   UNL     1       3.645   2.475  17.116  0.00  0.00    +0.000 HD
ENDROOT
BRANCH   1   9
ATOM      5  F   UNL     1       0.711   2.489  22.306  0.00  0.00    +0.000 F 
ATOM      6  C   UNL     1       1.472   2.688  21.223  0.00  0.00    +0.000 A 
ATOM      7  C   UNL     1       2.840   2.479  21.302  0.00  0.00    +0.000 A 
ATOM      8  C   UNL     1       3.625   2.730  20.181  0.00  0.00    +0.000 A 
ATOM      9  C   UNL     1       3.057   3.156  18.970  0.00  0.00    +0.000 A 
ATOM     10  C   UNL     1       1.684   3.443  18.948  0.00  0.00    +0.000 A 
ATOM     11  C   UNL     1       0.891   3.201  20.070  0.00  0.00    +0.000 A 
ENDBRANCH   1   9
BRANCH   3  12
ATOM     12  C   UNL     1       6.252   5.925  18.048  0.00  0.00    +0.000 A 
ATOM     13  C   UNL     1       7.414   5.996  18.817  0.00  0.00    +0.000 A 
ATOM     14  C   UNL     1       8.287   7.071  18.665  0.00  0.00    +0.000 A 
ATOM     15  C   UNL     1       7.974   8.046  17.731  0.00  0.00    +0.000 A 
ATOM     16  N   UNL     1       6.854   8.035  16.980  0.00  0.00    +0.000 NA
ATOM     17  C   UNL     1       6.019   6.990  17.177  0.00  0.00    +0.000 A 
ENDBRANCH   3  12
BRANCH   2  18
ATOM     18  S   UNL     1       5.398   3.840  15.845  0.00  0.00    +0.000 S 
ATOM     19  H   UNL     1       6.689   3.728  16.189  0.00  0.00    +0.000 HD
ENDBRANCH   2  18
TORSDOF 3
ENDMDL
MODEL 3
REMARK VINA RESULT:      -6.7      2.922      3.621
REMARK  Name = 
REMARK  3 active torsions:
REMARK  status: ('A' for Active; 'I' for Inactive)
REMARK    1  A    between atoms: C_5  and  N_6
REMARK    2  A    between atoms: C_7  and  S_8
REMARK    3  A    between atoms: N_9  and  C_10
REMARK                            x       y       z     vdW  Elec       q    Type
REMARK                         _______ _______ _______ _____ _____    ______ ____
ROOT
ATOM      1  N   UNL     1       5.203   3.869  18.052  0.00  0.00    +0.000 N 
ATOM      2  C   UNL     1       5.897   4.228  16.925  0.00  0.00    +0.000 C 
ATOM      3  N   UNL     1       5.382   4.270  15.736  0.00  0.00    +0.000 NA
ATOM      4  H   UNL     1       5.657   4.071  18.927  0.00  0.00    +0.000 HD
ENDROOT
BRANCH   1   9
ATOM      5  F   UNL     1      -0.033   2.294  18.854  0.00  0.00    +0.000 F 
ATOM      6  C   UNL     1       1.229   2.679  18.630  0.00  0.00    +0.000 A 
ATOM      7  C   UNL     1       1.476   3.935  18.098  0.00  0.00    +0.000 A 
ATOM      8  C   UNL     1       2.790   4.307  17.831  0.00  0.00    +0.000 A 
ATOM      9  C   UNL     1       3.865   3.452  18.119  0.00  0.00    +0.000 A 
ATOM     10  C   UNL     1       3.577   2.156  18.573  0.00  0.00    +0.000 A 
ATOM     11  C   UNL     1       2.261   1.773  18.837  0.00  0.00    +0.000 A 
ENDBRANCH   1   9
BRANCH   3  12
ATOM     12  C   UNL     1       6.067   4.491  14.542  0.00  0.00    +0.000 A 
ATOM     13  C   UNL     1       5.807   3.677  13.439  0.00  0.00    +0.000 A 
ATOM     14  C   UNL     1       6.600   3.773  12.298  0.00  0.00    +0.000 A 
ATOM     15  C   UNL     1       7.630   4.700  12.289  0.00  0.00    +0.000 A 
ATOM     16  N   UNL     1       7.936   5.494  13.336  0.00  0.00    +0.000 NA
ATOM     17  C   UNL     1       7.161   5.350  14.435  0.00  0.00    +0.000 A 
ENDBRANCH   3  12
BRANCH   2  18
ATOM     18  S   UNL     1       7.564   4.626  17.313  0.00  0.00    +0.000 S 
ATOM     19  H   UNL     1       7.843   3.439  17.869  0.00  0.00    +0.000 HD
ENDBRANCH   2  18
TORSDOF 3
ENDMDL
MODEL 4
REMARK VINA RESULT:      -6.6      2.945      6.377
REMARK  Name = 
REMARK  3 active torsions:
REMARK  status: ('A' for Active; 'I' for Inactive)
REMARK    1  A    between atoms: C_5  and  N_6
REMARK    2  A    between atoms: C_7  and  S_8
REMARK    3  A    between atoms: N_9  and  C_10
REMARK                            x       y       z     vdW  Elec       q    Type
REMARK                         _______ _______ _______ _____ _____    ______ ____
ROOT
ATOM      1  N   UNL     1       5.537   4.021  17.123  0.00  0.00    +0.000 N 
ATOM      2  C   UNL     1       4.477   3.578  17.872  0.00  0.00    +0.000 C 
ATOM      3  N   UNL     1       4.127   4.089  19.011  0.00  0.00    +0.000 NA
ATOM      4  H   UNL     1       5.576   3.680  16.177  0.00  0.00    +0.000 HD
ENDROOT
BRANCH   1   9
ATOM      5  F   UNL     1       8.679   8.273  18.733  0.00  0.00    +0.000 F 
ATOM      6  C   UNL     1       7.943   7.228  18.335  0.00  0.00    +0.000 A 
ATOM      7  C   UNL     1       8.140   5.990  18.926  0.00  0.00    +0.000 A 
ATOM      8  C   UNL     1       7.398   4.903  18.473  0.00  0.00    +0.000 A 
ATOM      9  C   UNL     1       6.437   5.044  17.460  0.00  0.00    +0.000 A 
ATOM     10  C   UNL     1       6.324   6.289  16.823  0.00  0.00    +0.000 A 
ATOM     11  C   UNL     1       7.070   7.381  17.266  0.00  0.00    +0.000 A 
ENDBRANCH   1   9
BRANCH   3  12
ATOM     12  C   UNL     1       3.153   3.596  19.877  0.00  0.00    +0.000 A 
ATOM     13  C   UNL     1       1.841   4.060  19.773  0.00  0.00    +0.000 A 
ATOM     14  C   UNL     1       0.897   3.707  20.734  0.00  0.00    +0.000 A 
ATOM     15  C   UNL     1       1.294   2.881  21.775  0.00  0.00    +0.000 A 
ATOM     16  N   UNL     1       2.554   2.424  21.932  0.00  0.00    +0.000 NA
ATOM     17  C   UNL     1       3.447   2.812  20.994  0.00  0.00    +0.000 A 
ENDBRANCH   3  12
BRANCH   2  18
ATOM     18  S   UNL     1       3.659   2.242  17.076  0.00  0.00    +0.000 S 
ATOM     19  H   UNL     1       3.690   2.794  15.855  0.00  0.00    +0.000 HD
ENDBRANCH   2  18
TORSDOF 3
ENDMDL
MODEL 5
REMARK VINA RESULT:      -6.5      1.199      1.623
REMARK  Name = 
REMARK  3 active torsions:
REMARK  status: ('A' for Active; 'I' for Inactive)
REMARK    1  A    between atoms: C_5  and  N_6
REMARK    2  A    between atoms: C_7  and  S_8
REMARK    3  A    between atoms: N_9  and  C_10
REMARK                            x       y       z     vdW  Elec       q    Type
REMARK                         _______ _______ _______ _____ _____    ______ ____
ROOT
ATOM      1  N   UNL     1       4.617   3.335  16.599  0.00  0.00    +0.000 N 
ATOM      2  C   UNL     1       5.621   4.264  16.702  0.00  0.00    +0.000 C 
ATOM      3  N   UNL     1       5.729   5.113  17.675  0.00  0.00    +0.000 NA
ATOM      4  H   UNL     1       4.760   2.611  15.914  0.00  0.00    +0.000 HD
ENDROOT
BRANCH   1   9
ATOM      5  F   UNL     1       0.059   2.518  19.615  0.00  0.00    +0.000 F 
ATOM      6  C   UNL     1       1.180   2.716  18.910  0.00  0.00    +0.000 A 
ATOM      7  C   UNL     1       2.209   1.792  18.992  0.00  0.00    +0.000 A 
ATOM      8  C   UNL     1       3.385   2.031  18.287  0.00  0.00    +0.000 A 
ATOM      9  C   UNL     1       3.533   3.166  17.474  0.00  0.00    +0.000 A 
ATOM     10  C   UNL     1       2.509   4.125  17.483  0.00  0.00    +0.000 A 
ATOM     11  C   UNL     1       1.330   3.896  18.193  0.00  0.00    +0.000 A 
ENDBRANCH   1   9
BRANCH   3  12
ATOM     12  C   UNL     1       6.640   6.164  17.762  0.00  0.00    +0.000 A 
ATOM     13  C   UNL     1       7.646   6.125  18.728  0.00  0.00    +0.000 A 
ATOM     14  C   UNL     1       8.456   7.238  18.938  0.00  0.00    +0.000 A 
ATOM     15  C   UNL     1       8.242   8.365  18.159  0.00  0.00    +0.000 A 
ATOM     16  N   UNL     1       7.270   8.461  17.229  0.00  0.00    +0.000 NA
ATOM     17  C   UNL     1       6.487   7.369  17.074  0.00  0.00    +0.000 A 
ENDBRANCH   3  12
BRANCH   2  18
ATOM     18  S   UNL     1       6.735   4.139  15.348  0.00  0.00    +0.000 S 
ATOM     19  H   UNL     1       7.704   3.533  16.049  0.00  0.00    +0.000 HD
ENDBRANCH   2  18
TORSDOF 3
ENDMDL
MODEL 6
REMARK VINA RESULT:      -6.4      2.346      3.005
REMARK  Name = 
REMARK  3 active torsions:
REMARK  status: ('A' for Active; 'I' for Inactive)
REMARK    1  A    between atoms: C_5  and  N_6
REMARK    2  A    between atoms: C_7  and  S_8
REMARK    3  A    between atoms: N_9  and  C_10
REMARK                            x       y       z     vdW  Elec       q    Type
REMARK                         _______ _______ _______ _____ _____    ______ ____
ROOT
ATOM      1  N   UNL     1       2.509   6.012  18.898  0.00  0.00    +0.000 N 
ATOM      2  C   UNL     1       3.412   6.088  17.868  0.00  0.00    +0.000 C 
ATOM      3  N   UNL     1       4.095   5.080  17.423  0.00  0.00    +0.000 NA
ATOM      4  H   UNL     1       1.905   6.809  19.009  0.00  0.00    +0.000 HD
ENDROOT
BRANCH   1   9
ATOM      5  F   UNL     1       0.986   1.868  22.223  0.00  0.00    +0.000 F 
ATOM      6  C   UNL     1       1.365   2.852  21.397  0.00  0.00    +0.000 A 
ATOM      7  C   UNL     1       0.822   2.921  20.123  0.00  0.00    +0.000 A 
ATOM      8  C   UNL     1       1.256   3.923  19.261  0.00  0.00    +0.000 A 
ATOM      9  C   UNL     1       2.202   4.878  19.665  0.00  0.00    +0.000 A 
ATOM     10  C   UNL     1       2.796   4.727  20.928  0.00  0.00    +0.000 A 
ATOM     11  C   UNL     1       2.372   3.721  21.795  0.00  0.00    +0.000 A 
ENDBRANCH   1   9
BRANCH   3  12
ATOM     12  C   UNL     1       5.120   5.124  16.480  0.00  0.00    +0.000 A 
ATOM     13  C   UNL     1       5.010   4.374  15.309  0.00  0.00    +0.000 A 
ATOM     14  C   UNL     1       6.094   4.274  14.440  0.00  0.00    +0.000 A 
ATOM     15  C   UNL     1       7.262   4.945  14.764  0.00  0.00    +0.000 A 
ATOM     16  N   UNL     1       7.426   5.665  15.893  0.00  0.00    +0.000 NA
ATOM     17  C   UNL     1       6.361   5.715  16.724  0.00  0.00    +0.000 A 
ENDBRANCH   3  12
BRANCH   2  18
ATOM     18  S   UNL     1       3.506   7.725  17.234  0.00  0.00    +0.000 S 
ATOM     19  H   UNL     1       4.844   7.742  17.150  0.00  0.00    +0.000 HD
ENDBRANCH   2  18
TORSDOF 3
ENDMDL
MODEL 7
REMARK VINA RESULT:      -6.4      2.719      3.573
REMARK  Name = 
REMARK  3 active torsions:
REMARK  status: ('A' for Active; 'I' for Inactive)
REMARK    1  A    between atoms: C_5  and  N_6
REMARK    2  A    between atoms: C_7  and  S_8
REMARK    3  A    between atoms: N_9  and  C_10
REMARK                            x       y       z     vdW  Elec       q    Type
REMARK                         _______ _______ _______ _____ _____    ______ ____
ROOT
ATOM      1  N   UNL     1       5.183   4.200  18.602  0.00  0.00    +0.000 N 
ATOM      2  C   UNL     1       5.820   4.503  17.426  0.00  0.00    +0.000 C 
ATOM      3  N   UNL     1       5.282   4.375  16.253  0.00  0.00    +0.000 NA
ATOM      4  H   UNL     1       5.631   4.533  19.440  0.00  0.00    +0.000 HD
ENDROOT
BRANCH   1   9
ATOM      5  F   UNL     1       0.038   2.182  18.642  0.00  0.00    +0.000 F 
ATOM      6  C   UNL     1       1.289   2.659  18.660  0.00  0.00    +0.000 A 
ATOM      7  C   UNL     1       2.353   1.780  18.791  0.00  0.00    +0.000 A 
ATOM      8  C   UNL     1       3.645   2.292  18.850  0.00  0.00    +0.000 A 
ATOM      9  C   UNL     1       3.892   3.671  18.748  0.00  0.00    +0.000 A 
ATOM     10  C   UNL     1       2.790   4.538  18.706  0.00  0.00    +0.000 A 
ATOM     11  C   UNL     1       1.491   4.033  18.653  0.00  0.00    +0.000 A 
ENDBRANCH   1   9
BRANCH   3  12
ATOM     12  C   UNL     1       5.922   4.533  15.025  0.00  0.00    +0.000 A 
ATOM     13  C   UNL     1       5.581   3.700  13.959  0.00  0.00    +0.000 A 
ATOM     14  C   UNL     1       6.326   3.731  12.783  0.00  0.00    +0.000 A 
ATOM     15  C   UNL     1       7.392   4.613  12.702  0.00  0.00    +0.000 A 
ATOM     16  N   UNL     1       7.775   5.423  13.710  0.00  0.00    +0.000 NA
ATOM     17  C   UNL     1       7.045   5.342  14.845  0.00  0.00    +0.000 A 
ENDBRANCH   3  12
BRANCH   2  18
ATOM     18  S   UNL     1       7.448   5.093  17.726  0.00  0.00    +0.000 S 
ATOM     19  H   UNL     1       7.259   5.298  19.037  0.00  0.00    +0.000 HD
ENDBRANCH   2  18
TORSDOF 3
ENDMDL
MODEL 8
REMARK VINA RESULT:      -6.4      0.805      1.230
REMARK  Name = 
REMARK  3 active torsions:
REMARK  status: ('A' for Active; 'I' for Inactive)
REMARK    1  A    between atoms: C_5  and  N_6
REMARK    2  A    between atoms: C_7  and  S_8
REMARK    3  A    between atoms: N_9  and  C_10
REMARK                            x       y       z     vdW  Elec       q    Type
REMARK                         _______ _______ _______ _____ _____    ______ ____
ROOT
ATOM      1  N   UNL     1       3.828   3.021  17.660  0.00  0.00    +0.000 N 
ATOM      2  C   UNL     1       4.824   3.956  17.535  0.00  0.00    +0.000 C 
ATOM      3  N   UNL     1       5.183   4.766  18.481  0.00  0.00    +0.000 NA
ATOM      4  H   UNL     1       3.787   2.327  16.932  0.00  0.00    +0.000 HD
ENDROOT
BRANCH   1   9
ATOM      5  F   UNL     1       0.768   2.659  22.248  0.00  0.00    +0.000 F 
ATOM      6  C   UNL     1       1.494   2.724  21.124  0.00  0.00    +0.000 A 
ATOM      7  C   UNL     1       0.860   2.969  19.916  0.00  0.00    +0.000 A 
ATOM      8  C   UNL     1       1.620   2.991  18.751  0.00  0.00    +0.000 A 
ATOM      9  C   UNL     1       3.012   2.805  18.780  0.00  0.00    +0.000 A 
ATOM     10  C   UNL     1       3.609   2.472  20.006  0.00  0.00    +0.000 A 
ATOM     11  C   UNL     1       2.852   2.440  21.177  0.00  0.00    +0.000 A 
ENDBRANCH   1   9
BRANCH   3  12
ATOM     12  C   UNL     1       6.086   5.823  18.370  0.00  0.00    +0.000 A 
ATOM     13  C   UNL     1       5.855   6.829  17.431  0.00  0.00    +0.000 A 
ATOM     14  C   UNL     1       6.828   7.796  17.191  0.00  0.00    +0.000 A 
ATOM     15  C   UNL     1       8.009   7.735  17.914  0.00  0.00    +0.000 A 
ATOM     16  N   UNL     1       8.289   6.772  18.816  0.00  0.00    +0.000 NA
ATOM     17  C   UNL     1       7.331   5.835  19.000  0.00  0.00    +0.000 A 
ENDBRANCH   3  12
BRANCH   2  18
ATOM     18  S   UNL     1       5.544   3.898  15.933  0.00  0.00    +0.000 S 
ATOM     19  H   UNL     1       4.395   4.116  15.279  0.00  0.00    +0.000 HD
ENDBRANCH   2  18
TORSDOF 3
ENDMDL
MODEL 9
REMARK VINA RESULT:      -6.3      3.073      3.752
REMARK  Name = 
REMARK  3 active torsions:
REMARK  status: ('A' for Active; 'I' for Inactive)
REMARK    1  A    between atoms: C_5  and  N_6
REMARK    2  A    between atoms: C_7  and  S_8
REMARK    3  A    between atoms: N_9  and  C_10
REMARK                            x       y       z     vdW  Elec       q    Type
REMARK                         _______ _______ _______ _____ _____    ______ ____
ROOT
ATOM      1  N   UNL     1       5.194   3.968  17.946  0.00  0.00    +0.000 N 
ATOM      2  C   UNL     1       5.930   4.186  16.809  0.00  0.00    +0.000 C 
ATOM      3  N   UNL     1       5.465   4.056  15.606  0.00  0.00    +0.000 NA
ATOM      4  H   UNL     1       5.608   4.297  18.803  0.00  0.00    +0.000 HD
ENDROOT
BRANCH   1   9
ATOM      5  F   UNL     1      -0.004   2.279  18.763  0.00  0.00    +0.000 F 
ATOM      6  C   UNL     1       1.249   2.695  18.536  0.00  0.00    +0.000 A 
ATOM      7  C   UNL     1       1.470   3.998  18.122  0.00  0.00    +0.000 A 
ATOM      8  C   UNL     1       2.773   4.405  17.849  0.00  0.00    +0.000 A 
ATOM      9  C   UNL     1       3.862   3.535  18.017  0.00  0.00    +0.000 A 
ATOM     10  C   UNL     1       3.595   2.199  18.352  0.00  0.00    +0.000 A 
ATOM     11  C   UNL     1       2.292   1.782  18.620  0.00  0.00    +0.000 A 
ENDBRANCH   1   9
BRANCH   3  12
ATOM     12  C   UNL     1       6.196   4.127  14.422  0.00  0.00    +0.000 A 
ATOM     13  C   UNL     1       7.160   5.124  14.268  0.00  0.00    +0.000 A 
ATOM     14  C   UNL     1       7.776   5.313  13.033  0.00  0.00    +0.000 A 
ATOM     15  C   UNL     1       7.416   4.484  11.983  0.00  0.00    +0.000 A 
ATOM     16  N   UNL     1       6.475   3.521  12.074  0.00  0.00    +0.000 NA
ATOM     17  C   UNL     1       5.880   3.387  13.281  0.00  0.00    +0.000 A 
ENDBRANCH   3  12
BRANCH   2  18
ATOM     18  S   UNL     1       7.572   4.670  17.205  0.00  0.00    +0.000 S 
ATOM     19  H   UNL     1       7.257   5.944  17.480  0.00  0.00    +0.000 HD
ENDBRANCH   2  18
TORSDOF 3
ENDMDL
