MODEL 1
REMARK VINA RESULT:      -6.4      0.000      0.000
REMARK  Name = 
REMARK  1 active torsions:
REMARK  status: ('A' for Active; 'I' for Inactive)
REMARK    1  A    between atoms: C_1  and  N_2
REMARK                            x       y       z     vdW  Elec       q    Type
REMARK                         _______ _______ _______ _____ _____    ______ ____
ROOT
ATOM      1  C   UNL     1      -4.908  17.763  22.238  0.00  0.00    +0.000 C 
ATOM      2  N   UNL     1      -4.979  16.317  22.024  0.00  0.00    +0.000 NA
ATOM      3  C   UNL     1      -4.810  15.601  23.310  0.00  0.00    +0.000 C 
ATOM      4  C   UNL     1      -4.678  14.070  23.162  0.00  0.00    +0.000 C 
ATOM      5  N   UNL     1      -3.655  13.710  22.170  0.00  0.00    +0.000 N 
ATOM      6  C   UNL     1      -2.832  12.605  22.447  0.00  0.00    +0.000 C 
ATOM      7  O   UNL     1      -3.110  11.943  23.451  0.00  0.00    +0.000 OA
ATOM      8  N   UNL     1      -1.777  12.274  21.554  0.00  0.00    +0.000 N 
ATOM      9  C   UNL     1      -0.952  11.063  21.734  0.00  0.00    +0.000 A 
ATOM     10  C   UNL     1      -0.836  10.448  23.002  0.00  0.00    +0.000 A 
ATOM     11  C   UNL     1       0.072   9.413  23.270  0.00  0.00    +0.000 A 
ATOM     12  C   UNL     1       0.920   8.958  22.280  0.00  0.00    +0.000 A 
ATOM     13  C   UNL     1       0.787   9.475  21.001  0.00  0.00    +0.000 A 
ATOM     14  C   UNL     1      -0.172  10.476  20.698  0.00  0.00    +0.000 A 
ATOM     15  C   UNL     1      -0.330  10.715  19.209  0.00  0.00    +0.000 C 
ATOM     16  C   UNL     1      -1.396  11.704  18.789  0.00  0.00    +0.000 C 
ATOM     17  C   UNL     1      -1.001  13.036  19.347  0.00  0.00    +0.000 A 
ATOM     18  C   UNL     1      -0.486  14.034  18.509  0.00  0.00    +0.000 A 
ATOM     19  C   UNL     1      -0.124  15.271  19.031  0.00  0.00    +0.000 A 
ATOM     20  C   UNL     1      -0.260  15.508  20.398  0.00  0.00    +0.000 A 
ATOM     21  C   UNL     1      -0.761  14.509  21.245  0.00  0.00    +0.000 A 
ATOM     22  C   UNL     1      -1.145  13.264  20.727  0.00  0.00    +0.000 A 
ATOM     23  C   UNL     1      -3.928  14.357  20.883  0.00  0.00    +0.000 C 
ATOM     24  C   UNL     1      -3.944  15.889  21.057  0.00  0.00    +0.000 C 
ENDROOT
TORSDOF 0
ENDMDL
MODEL 2
REMARK VINA RESULT:      -6.4      9.333     10.931
REMARK  Name = 
REMARK  1 active torsions:
REMARK  status: ('A' for Active; 'I' for Inactive)
REMARK    1  A    between atoms: C_1  and  N_2
REMARK                            x       y       z     vdW  Elec       q    Type
REMARK                         _______ _______ _______ _____ _____    ______ ____
ROOT
ATOM      1  C   UNL     1       3.142  17.566  20.444  0.00  0.00    +0.000 C 
ATOM      2  N   UNL     1       4.081  17.246  19.367  0.00  0.00    +0.000 NA
ATOM      3  C   UNL     1       3.864  15.856  18.897  0.00  0.00    +0.000 C 
ATOM      4  C   UNL     1       4.930  15.361  17.896  0.00  0.00    +0.000 C 
ATOM      5  N   UNL     1       6.292  15.588  18.400  0.00  0.00    +0.000 N 
ATOM      6  C   UNL     1       7.256  14.594  18.161  0.00  0.00    +0.000 C 
ATOM      7  O   UNL     1       6.915  13.654  17.437  0.00  0.00    +0.000 OA
ATOM      8  N   UNL     1       8.561  14.736  18.703  0.00  0.00    +0.000 N 
ATOM      9  C   UNL     1       9.645  13.781  18.394  0.00  0.00    +0.000 A 
ATOM     10  C   UNL     1       9.349  12.468  17.962  0.00  0.00    +0.000 A 
ATOM     11  C   UNL     1      10.325  11.468  17.832  0.00  0.00    +0.000 A 
ATOM     12  C   UNL     1      11.642  11.736  18.147  0.00  0.00    +0.000 A 
ATOM     13  C   UNL     1      11.991  13.031  18.497  0.00  0.00    +0.000 A 
ATOM     14  C   UNL     1      11.027  14.070  18.569  0.00  0.00    +0.000 A 
ATOM     15  C   UNL     1      11.647  15.446  18.714  0.00  0.00    +0.000 C 
ATOM     16  C   UNL     1      10.696  16.623  18.710  0.00  0.00    +0.000 C 
ATOM     17  C   UNL     1       9.813  16.477  19.911  0.00  0.00    +0.000 A 
ATOM     18  C   UNL     1       9.994  17.298  21.032  0.00  0.00    +0.000 A 
ATOM     19  C   UNL     1       9.170  17.160  22.143  0.00  0.00    +0.000 A 
ATOM     20  C   UNL     1       8.171  16.188  22.143  0.00  0.00    +0.000 A 
ATOM     21  C   UNL     1       7.994  15.353  21.032  0.00  0.00    +0.000 A 
ATOM     22  C   UNL     1       8.808  15.494  19.899  0.00  0.00    +0.000 A 
ATOM     23  C   UNL     1       6.489  16.999  18.748  0.00  0.00    +0.000 C 
ATOM     24  C   UNL     1       5.474  17.422  19.829  0.00  0.00    +0.000 C 
ENDROOT
TORSDOF 0
ENDMDL
MODEL 3
REMARK VINA RESULT:      -6.2      2.546      4.461
REMARK  Name = 
REMARK  1 active torsions:
REMARK  status: ('A' for Active; 'I' for Inactive)
REMARK    1  A    between atoms: C_1  and  N_2
REMARK                            x       y       z     vdW  Elec       q    Type
REMARK                         _______ _______ _______ _____ _____    ______ ____
ROOT
ATOM      1  C   UNL     1      -1.224  15.688  26.264  0.00  0.00    +0.000 C 
ATOM      2  N   UNL     1      -1.683  15.922  24.894  0.00  0.00    +0.000 NA
ATOM      3  C   UNL     1      -3.162  16.005  24.858  0.00  0.00    +0.000 C 
ATOM      4  C   UNL     1      -3.752  16.058  23.432  0.00  0.00    +0.000 C 
ATOM      5  N   UNL     1      -3.220  14.980  22.588  0.00  0.00    +0.000 N 
ATOM      6  C   UNL     1      -4.102  14.348  21.695  0.00  0.00    +0.000 C 
ATOM      7  O   UNL     1      -5.236  14.829  21.601  0.00  0.00    +0.000 OA
ATOM      8  N   UNL     1      -3.650  13.246  20.921  0.00  0.00    +0.000 N 
ATOM      9  C   UNL     1      -4.497  12.615  19.888  0.00  0.00    +0.000 A 
ATOM     10  C   UNL     1      -5.904  12.734  19.936  0.00  0.00    +0.000 A 
ATOM     11  C   UNL     1      -6.762  12.009  19.096  0.00  0.00    +0.000 A 
ATOM     12  C   UNL     1      -6.246  11.115  18.179  0.00  0.00    +0.000 A 
ATOM     13  C   UNL     1      -4.870  11.024  18.041  0.00  0.00    +0.000 A 
ATOM     14  C   UNL     1      -3.988  11.800  18.837  0.00  0.00    +0.000 A 
ATOM     15  C   UNL     1      -2.551  11.745  18.358  0.00  0.00    +0.000 C 
ATOM     16  C   UNL     1      -1.555  12.614  19.095  0.00  0.00    +0.000 C 
ATOM     17  C   UNL     1      -1.503  12.117  20.507  0.00  0.00    +0.000 A 
ATOM     18  C   UNL     1      -0.402  11.378  20.961  0.00  0.00    +0.000 A 
ATOM     19  C   UNL     1      -0.356  10.922  22.274  0.00  0.00    +0.000 A 
ATOM     20  C   UNL     1      -1.421  11.190  23.133  0.00  0.00    +0.000 A 
ATOM     21  C   UNL     1      -2.532  11.915  22.682  0.00  0.00    +0.000 A 
ATOM     22  C   UNL     1      -2.581  12.395  21.365  0.00  0.00    +0.000 A 
ATOM     23  C   UNL     1      -1.753  15.008  22.569  0.00  0.00    +0.000 C 
ATOM     24  C   UNL     1      -1.206  14.844  24.000  0.00  0.00    +0.000 C 
ENDROOT
TORSDOF 0
ENDMDL
MODEL 4
REMARK VINA RESULT:      -6.2      9.121     10.695
REMARK  Name = 
REMARK  1 active torsions:
REMARK  status: ('A' for Active; 'I' for Inactive)
REMARK    1  A    between atoms: C_1  and  N_2
REMARK                            x       y       z     vdW  Elec       q    Type
REMARK                         _______ _______ _______ _____ _____    ______ ____
ROOT
ATOM      1  C   UNL     1       2.551  16.180  20.343  0.00  0.00    +0.000 C 
ATOM      2  N   UNL     1       3.733  16.242  19.480  0.00  0.00    +0.000 NA
ATOM      3  C   UNL     1       3.790  15.045  18.607  0.00  0.00    +0.000 C 
ATOM      4  C   UNL     1       5.099  14.925  17.797  0.00  0.00    +0.000 C 
ATOM      5  N   UNL     1       6.282  15.061  18.658  0.00  0.00    +0.000 N 
ATOM      6  C   UNL     1       7.386  14.233  18.394  0.00  0.00    +0.000 C 
ATOM      7  O   UNL     1       7.325  13.534  17.378  0.00  0.00    +0.000 OA
ATOM      8  N   UNL     1       8.517  14.274  19.254  0.00  0.00    +0.000 N 
ATOM      9  C   UNL     1       9.748  13.510  18.964  0.00  0.00    +0.000 A 
ATOM     10  C   UNL     1       9.711  12.371  18.128  0.00  0.00    +0.000 A 
ATOM     11  C   UNL     1      10.804  11.506  17.966  0.00  0.00    +0.000 A 
ATOM     12  C   UNL     1      11.980  11.735  18.652  0.00  0.00    +0.000 A 
ATOM     13  C   UNL     1      12.088  12.883  19.421  0.00  0.00    +0.000 A 
ATOM     14  C   UNL     1      11.015  13.804  19.542  0.00  0.00    +0.000 A 
ATOM     15  C   UNL     1      11.419  15.105  20.207  0.00  0.00    +0.000 C 
ATOM     16  C   UNL     1      10.359  16.180  20.299  0.00  0.00    +0.000 C 
ATOM     17  C   UNL     1       9.261  15.639  21.161  0.00  0.00    +0.000 A 
ATOM     18  C   UNL     1       9.095  16.099  22.475  0.00  0.00    +0.000 A 
ATOM     19  C   UNL     1       8.072  15.595  23.271  0.00  0.00    +0.000 A 
ATOM     20  C   UNL     1       7.220  14.617  22.760  0.00  0.00    +0.000 A 
ATOM     21  C   UNL     1       7.389  14.142  21.452  0.00  0.00    +0.000 A 
ATOM     22  C   UNL     1       8.406  14.654  20.635  0.00  0.00    +0.000 A 
ATOM     23  C   UNL     1       6.230  16.313  19.420  0.00  0.00    +0.000 C 
ATOM     24  C   UNL     1       4.962  16.344  20.296  0.00  0.00    +0.000 C 
ENDROOT
TORSDOF 0
ENDMDL
MODEL 5
REMARK VINA RESULT:      -6.2      2.687      5.529
REMARK  Name = 
REMARK  1 active torsions:
REMARK  status: ('A' for Active; 'I' for Inactive)
REMARK    1  A    between atoms: C_1  and  N_2
REMARK                            x       y       z     vdW  Elec       q    Type
REMARK                         _______ _______ _______ _____ _____    ______ ____
ROOT
ATOM      1  C   UNL     1      -2.709  10.026  14.499  0.00  0.00    +0.000 C 
ATOM      2  N   UNL     1      -3.250   9.984  15.859  0.00  0.00    +0.000 NA
ATOM      3  C   UNL     1      -4.301  11.017  16.022  0.00  0.00    +0.000 C 
ATOM      4  C   UNL     1      -4.799  11.179  17.475  0.00  0.00    +0.000 C 
ATOM      5  N   UNL     1      -3.680  11.350  18.412  0.00  0.00    +0.000 N 
ATOM      6  C   UNL     1      -3.840  12.266  19.466  0.00  0.00    +0.000 C 
ATOM      7  O   UNL     1      -4.959  12.773  19.596  0.00  0.00    +0.000 OA
ATOM      8  N   UNL     1      -2.754  12.522  20.345  0.00  0.00    +0.000 N 
ATOM      9  C   UNL     1      -2.896  13.388  21.533  0.00  0.00    +0.000 A 
ATOM     10  C   UNL     1      -3.922  14.358  21.602  0.00  0.00    +0.000 A 
ATOM     11  C   UNL     1      -3.994  15.325  22.616  0.00  0.00    +0.000 A 
ATOM     12  C   UNL     1      -3.027  15.375  23.599  0.00  0.00    +0.000 A 
ATOM     13  C   UNL     1      -2.047  14.395  23.618  0.00  0.00    +0.000 A 
ATOM     14  C   UNL     1      -1.999  13.370  22.638  0.00  0.00    +0.000 A 
ATOM     15  C   UNL     1      -1.020  12.264  22.982  0.00  0.00    +0.000 C 
ATOM     16  C   UNL     1      -0.967  11.084  22.036  0.00  0.00    +0.000 C 
ATOM     17  C   UNL     1      -0.500  11.605  20.713  0.00  0.00    +0.000 A 
ATOM     18  C   UNL     1       0.805  11.351  20.268  0.00  0.00    +0.000 A 
ATOM     19  C   UNL     1       1.233  11.834  19.037  0.00  0.00    +0.000 A 
ATOM     20  C   UNL     1       0.362  12.589  18.252  0.00  0.00    +0.000 A 
ATOM     21  C   UNL     1      -0.939  12.860  18.697  0.00  0.00    +0.000 A 
ATOM     22  C   UNL     1      -1.388  12.363  19.929  0.00  0.00    +0.000 A 
ATOM     23  C   UNL     1      -2.723  10.246  18.288  0.00  0.00    +0.000 C 
ATOM     24  C   UNL     1      -2.172  10.187  16.850  0.00  0.00    +0.000 C 
ENDROOT
TORSDOF 0
ENDMDL
MODEL 6
REMARK VINA RESULT:      -6.2      3.378      5.921
REMARK  Name = 
REMARK  1 active torsions:
REMARK  status: ('A' for Active; 'I' for Inactive)
REMARK    1  A    between atoms: C_1  and  N_2
REMARK                            x       y       z     vdW  Elec       q    Type
REMARK                         _______ _______ _______ _____ _____    ______ ____
ROOT
ATOM      1  C   UNL     1      -1.514  16.559  25.836  0.00  0.00    +0.000 C 
ATOM      2  N   UNL     1      -1.862  15.226  25.341  0.00  0.00    +0.000 NA
ATOM      3  C   UNL     1      -1.100  14.924  24.106  0.00  0.00    +0.000 C 
ATOM      4  C   UNL     1      -1.537  13.621  23.403  0.00  0.00    +0.000 C 
ATOM      5  N   UNL     1      -2.992  13.579  23.201  0.00  0.00    +0.000 N 
ATOM      6  C   UNL     1      -3.473  13.041  21.995  0.00  0.00    +0.000 C 
ATOM      7  O   UNL     1      -2.637  12.531  21.243  0.00  0.00    +0.000 OA
ATOM      8  N   UNL     1      -4.868  13.058  21.725  0.00  0.00    +0.000 N 
ATOM      9  C   UNL     1      -5.441  12.410  20.528  0.00  0.00    +0.000 A 
ATOM     10  C   UNL     1      -4.644  12.169  19.385  0.00  0.00    +0.000 A 
ATOM     11  C   UNL     1      -5.173  11.728  18.163  0.00  0.00    +0.000 A 
ATOM     12  C   UNL     1      -6.532  11.525  18.026  0.00  0.00    +0.000 A 
ATOM     13  C   UNL     1      -7.341  11.671  19.141  0.00  0.00    +0.000 A 
ATOM     14  C   UNL     1      -6.812  12.052  20.402  0.00  0.00    +0.000 A 
ATOM     15  C   UNL     1      -7.810  11.904  21.534  0.00  0.00    +0.000 C 
ATOM     16  C   UNL     1      -7.305  12.204  22.929  0.00  0.00    +0.000 C 
ATOM     17  C   UNL     1      -6.917  13.650  22.952  0.00  0.00    +0.000 A 
ATOM     18  C   UNL     1      -7.722  14.592  23.607  0.00  0.00    +0.000 A 
ATOM     19  C   UNL     1      -7.356  15.934  23.628  0.00  0.00    +0.000 A 
ATOM     20  C   UNL     1      -6.191  16.340  22.980  0.00  0.00    +0.000 A 
ATOM     21  C   UNL     1      -5.389  15.406  22.310  0.00  0.00    +0.000 A 
ATOM     22  C   UNL     1      -5.739  14.048  22.296  0.00  0.00    +0.000 A 
ATOM     23  C   UNL     1      -3.700  13.774  24.471  0.00  0.00    +0.000 C 
ATOM     24  C   UNL     1      -3.315  15.135  25.084  0.00  0.00    +0.000 C 
ENDROOT
TORSDOF 0
ENDMDL
MODEL 7
REMARK VINA RESULT:      -6.2      1.259      1.350
REMARK  Name = 
REMARK  1 active torsions:
REMARK  status: ('A' for Active; 'I' for Inactive)
REMARK    1  A    between atoms: C_1  and  N_2
REMARK                            x       y       z     vdW  Elec       q    Type
REMARK                         _______ _______ _______ _____ _____    ______ ____
ROOT
ATOM      1  C   UNL     1      -3.446  17.094  24.075  0.00  0.00    +0.000 C 
ATOM      2  N   UNL     1      -3.690  15.752  23.543  0.00  0.00    +0.000 NA
ATOM      3  C   UNL     1      -3.322  14.729  24.549  0.00  0.00    +0.000 C 
ATOM      4  C   UNL     1      -3.363  13.281  24.014  0.00  0.00    +0.000 C 
ATOM      5  N   UNL     1      -2.607  13.147  22.760  0.00  0.00    +0.000 N 
ATOM      6  C   UNL     1      -1.848  11.980  22.572  0.00  0.00    +0.000 C 
ATOM      7  O   UNL     1      -1.968  11.096  23.426  0.00  0.00    +0.000 OA
ATOM      8  N   UNL     1      -1.038  11.848  21.413  0.00  0.00    +0.000 N 
ATOM      9  C   UNL     1      -0.306  10.602  21.107  0.00  0.00    +0.000 A 
ATOM     10  C   UNL     1       0.017   9.684  22.131  0.00  0.00    +0.000 A 
ATOM     11  C   UNL     1       0.863   8.583  21.933  0.00  0.00    +0.000 A 
ATOM     12  C   UNL     1       1.441   8.363  20.698  0.00  0.00    +0.000 A 
ATOM     13  C   UNL     1       1.090   9.191  19.644  0.00  0.00    +0.000 A 
ATOM     14  C   UNL     1       0.183  10.269  19.812  0.00  0.00    +0.000 A 
ATOM     15  C   UNL     1      -0.261  10.883  18.499  0.00  0.00    +0.000 C 
ATOM     16  C   UNL     1      -1.297  11.983  18.578  0.00  0.00    +0.000 C 
ATOM     17  C   UNL     1      -0.676  13.116  19.334  0.00  0.00    +0.000 A 
ATOM     18  C   UNL     1      -0.259  14.275  18.665  0.00  0.00    +0.000 A 
ATOM     19  C   UNL     1       0.315  15.325  19.372  0.00  0.00    +0.000 A 
ATOM     20  C   UNL     1       0.490  15.213  20.751  0.00  0.00    +0.000 A 
ATOM     21  C   UNL     1       0.090  14.052  21.424  0.00  0.00    +0.000 A 
ATOM     22  C   UNL     1      -0.506  12.993  20.725  0.00  0.00    +0.000 A 
ATOM     23  C   UNL     1      -3.084  14.109  21.760  0.00  0.00    +0.000 C 
ATOM     24  C   UNL     1      -2.925  15.546  22.295  0.00  0.00    +0.000 C 
ENDROOT
TORSDOF 0
ENDMDL
MODEL 8
REMARK VINA RESULT:      -6.1      2.374      4.044
REMARK  Name = 
REMARK  1 active torsions:
REMARK  status: ('A' for Active; 'I' for Inactive)
REMARK    1  A    between atoms: C_1  and  N_2
REMARK                            x       y       z     vdW  Elec       q    Type
REMARK                         _______ _______ _______ _____ _____    ______ ____
ROOT
ATOM      1  C   UNL     1      -2.236  18.023  18.747  0.00  0.00    +0.000 C 
ATOM      2  N   UNL     1      -1.256  17.229  19.492  0.00  0.00    +0.000 NA
ATOM      3  C   UNL     1      -0.306  16.582  18.556  0.00  0.00    +0.000 C 
ATOM      4  C   UNL     1       0.647  15.572  19.231  0.00  0.00    +0.000 C 
ATOM      5  N   UNL     1      -0.089  14.605  20.058  0.00  0.00    +0.000 N 
ATOM      6  C   UNL     1       0.346  13.269  20.051  0.00  0.00    +0.000 C 
ATOM      7  O   UNL     1       1.393  13.029  19.441  0.00  0.00    +0.000 OA
ATOM      8  N   UNL     1      -0.387  12.287  20.770  0.00  0.00    +0.000 N 
ATOM      9  C   UNL     1       0.082  10.892  20.890  0.00  0.00    +0.000 A 
ATOM     10  C   UNL     1       0.981  10.349  19.945  0.00  0.00    +0.000 A 
ATOM     11  C   UNL     1       1.316   8.986  19.903  0.00  0.00    +0.000 A 
ATOM     12  C   UNL     1       0.748   8.103  20.798  0.00  0.00    +0.000 A 
ATOM     13  C   UNL     1      -0.078   8.603  21.793  0.00  0.00    +0.000 A 
ATOM     14  C   UNL     1      -0.373   9.987  21.890  0.00  0.00    +0.000 A 
ATOM     15  C   UNL     1      -1.074  10.356  23.183  0.00  0.00    +0.000 C 
ATOM     16  C   UNL     1      -1.349  11.826  23.413  0.00  0.00    +0.000 C 
ATOM     17  C   UNL     1      -2.288  12.269  22.334  0.00  0.00    +0.000 A 
ATOM     18  C   UNL     1      -3.639  12.509  22.620  0.00  0.00    +0.000 A 
ATOM     19  C   UNL     1      -4.506  12.922  21.615  0.00  0.00    +0.000 A 
ATOM     20  C   UNL     1      -4.028  13.082  20.315  0.00  0.00    +0.000 A 
ATOM     21  C   UNL     1      -2.682  12.830  20.018  0.00  0.00    +0.000 A 
ATOM     22  C   UNL     1      -1.794  12.428  21.027  0.00  0.00    +0.000 A 
ATOM     23  C   UNL     1      -0.932  15.295  21.040  0.00  0.00    +0.000 C 
ATOM     24  C   UNL     1      -1.939  16.211  20.318  0.00  0.00    +0.000 C 
ENDROOT
TORSDOF 0
ENDMDL
MODEL 9
REMARK VINA RESULT:      -6.1      3.096      4.892
REMARK  Name = 
REMARK  1 active torsions:
REMARK  status: ('A' for Active; 'I' for Inactive)
REMARK    1  A    between atoms: C_1  and  N_2
REMARK                            x       y       z     vdW  Elec       q    Type
REMARK                         _______ _______ _______ _____ _____    ______ ____
ROOT
ATOM      1  C   UNL     1      -4.411  16.759  25.006  0.00  0.00    +0.000 C 
ATOM      2  N   UNL     1      -4.204  15.381  24.558  0.00  0.00    +0.000 NA
ATOM      3  C   UNL     1      -2.838  15.224  24.004  0.00  0.00    +0.000 C 
ATOM      4  C   UNL     1      -2.589  13.857  23.331  0.00  0.00    +0.000 C 
ATOM      5  N   UNL     1      -3.641  13.536  22.356  0.00  0.00    +0.000 N 
ATOM      6  C   UNL     1      -3.258  12.909  21.158  0.00  0.00    +0.000 C 
ATOM      7  O   UNL     1      -2.075  12.564  21.066  0.00  0.00    +0.000 OA
ATOM      8  N   UNL     1      -4.231  12.657  20.154  0.00  0.00    +0.000 N 
ATOM      9  C   UNL     1      -3.910  11.903  18.925  0.00  0.00    +0.000 A 
ATOM     10  C   UNL     1      -2.578  11.813  18.460  0.00  0.00    +0.000 A 
ATOM     11  C   UNL     1      -2.239  11.272  17.211  0.00  0.00    +0.000 A 
ATOM     12  C   UNL     1      -3.226  10.812  16.361  0.00  0.00    +0.000 A 
ATOM     13  C   UNL     1      -4.537  10.806  16.808  0.00  0.00    +0.000 A 
ATOM     14  C   UNL     1      -4.889  11.288  18.096  0.00  0.00    +0.000 A 
ATOM     15  C   UNL     1      -6.317  10.959  18.484  0.00  0.00    +0.000 C 
ATOM     16  C   UNL     1      -6.752  11.358  19.877  0.00  0.00    +0.000 C 
ATOM     17  C   UNL     1      -6.675  12.852  19.949  0.00  0.00    +0.000 A 
ATOM     18  C   UNL     1      -7.843  13.626  19.929  0.00  0.00    +0.000 A 
ATOM     19  C   UNL     1      -7.767  15.013  19.998  0.00  0.00    +0.000 A 
ATOM     20  C   UNL     1      -6.519  15.631  20.071  0.00  0.00    +0.000 A 
ATOM     21  C   UNL     1      -5.347  14.864  20.076  0.00  0.00    +0.000 A 
ATOM     22  C   UNL     1      -5.412  13.464  20.023  0.00  0.00    +0.000 A 
ATOM     23  C   UNL     1      -4.966  13.599  22.981  0.00  0.00    +0.000 C 
ATOM     24  C   UNL     1      -5.216  15.012  23.545  0.00  0.00    +0.000 C 
ENDROOT
TORSDOF 0
ENDMDL
