MODEL 1
REMARK VINA RESULT:      -9.1      0.000      0.000
REMARK  Name = 
REMARK  10 active torsions:
REMARK  status: ('A' for Active; 'I' for Inactive)
REMARK    1  A    between atoms: C_1  and  C_2
REMARK    2  A    between atoms: C_2  and  C_3
REMARK    3  A    between atoms: C_3  and  C_4
REMARK    4  A    between atoms: C_4  and  C_5
REMARK    5  A    between atoms: C_4  and  C_8
REMARK    6  A    between atoms: C_4  and  C_22
REMARK    7  A    between atoms: C_5  and  C_6
REMARK    8  A    between atoms: C_6  and  C_7
REMARK    9  A    between atoms: C_13  and  C_14
REMARK   10  A    between atoms: C_27  and  C_28
REMARK                            x       y       z     vdW  Elec       q    Type
REMARK                         _______ _______ _______ _____ _____    ______ ____
ROOT
ATOM      1  C   UNL     1       2.880   4.697  19.206  0.00  0.00    +0.000 C 
ENDROOT
BRANCH   1   2
ATOM      2  C   UNL     1       2.443   6.036  19.882  0.00  0.00    +0.000 A 
ATOM      3  C   UNL     1       2.173   6.155  21.242  0.00  0.00    +0.000 A 
ATOM      4  N   UNL     1       1.568   7.353  21.476  0.00  0.00    +0.000 N 
ATOM      5  C   UNL     1       1.519   8.083  20.316  0.00  0.00    +0.000 A 
ATOM      6  C   UNL     1       0.913   9.325  20.076  0.00  0.00    +0.000 A 
ATOM      7  C   UNL     1       1.081   9.900  18.813  0.00  0.00    +0.000 A 
ATOM      8  C   UNL     1       1.860   9.265  17.846  0.00  0.00    +0.000 A 
ATOM      9  C   UNL     1       2.428   8.007  18.102  0.00  0.00    +0.000 A 
ATOM     10  C   UNL     1       2.205   7.357  19.337  0.00  0.00    +0.000 A 
ATOM     11  H   UNL     1       1.191   7.653  22.363  0.00  0.00    +0.000 HD
BRANCH   7  12
ATOM     12  C   UNL     1       0.439  11.203  18.514  0.00  0.00    +0.000 C 
ATOM     13  N   UNL     1      -0.864  11.356  18.539  0.00  0.00    +0.000 NA
ATOM     14  C   UNL     1      -1.068  12.793  18.197  0.00  0.00    +0.000 C 
ATOM     15  C   UNL     1       0.292  13.466  18.379  0.00  0.00    +0.000 C 
ATOM     16  N   UNL     1       1.178  12.332  18.237  0.00  0.00    +0.000 N 
ATOM     17  H   UNL     1       2.076  12.402  18.698  0.00  0.00    +0.000 HD
ENDBRANCH   7  12
ENDBRANCH   1   2
BRANCH   1  18
ATOM     18  C   UNL     1       4.399   4.765  18.819  0.00  0.00    +0.000 A 
ATOM     19  C   UNL     1       5.422   4.029  19.403  0.00  0.00    +0.000 A 
ATOM     20  N   UNL     1       6.605   4.335  18.802  0.00  0.00    +0.000 N 
ATOM     21  C   UNL     1       6.377   5.151  17.725  0.00  0.00    +0.000 A 
ATOM     22  C   UNL     1       7.272   5.506  16.713  0.00  0.00    +0.000 A 
ATOM     23  C   UNL     1       6.659   5.919  15.524  0.00  0.00    +0.000 A 
ATOM     24  C   UNL     1       5.395   6.508  15.547  0.00  0.00    +0.000 A 
ATOM     25  C   UNL     1       4.552   6.277  16.643  0.00  0.00    +0.000 A 
ATOM     26  C   UNL     1       5.017   5.469  17.710  0.00  0.00    +0.000 A 
ATOM     27  H   UNL     1       7.494   3.904  19.011  0.00  0.00    +0.000 HD
BRANCH  23  28
ATOM     28  C   UNL     1       6.881   4.914  14.436  0.00  0.00    +0.000 C 
ATOM     29  N   UNL     1       5.985   3.988  14.166  0.00  0.00    +0.000 NA
ATOM     30  C   UNL     1       6.295   3.612  12.754  0.00  0.00    +0.000 C 
ATOM     31  C   UNL     1       7.211   4.719  12.231  0.00  0.00    +0.000 C 
ATOM     32  N   UNL     1       7.846   5.118  13.465  0.00  0.00    +0.000 N 
ATOM     33  H   UNL     1       8.255   6.045  13.438  0.00  0.00    +0.000 HD
ENDBRANCH  23  28
ENDBRANCH   1  18
BRANCH   1  34
ATOM     34  C   UNL     1       2.677   3.433  20.120  0.00  0.00    +0.000 C 
BRANCH  34  36
ATOM     35  C   UNL     1       1.203   2.495  21.984  0.00  0.00    +0.000 C 
ATOM     36  C   UNL     1       1.238   3.211  20.640  0.00  0.00    +0.000 C 
ENDBRANCH  34  36
ENDBRANCH   1  34
BRANCH   1  37
ATOM     37  C   UNL     1       2.061   4.554  17.868  0.00  0.00    +0.000 C 
BRANCH  37  38
ATOM     38  C   UNL     1       2.551   3.479  16.886  0.00  0.00    +0.000 C 
ATOM     39  C   UNL     1       2.401   2.097  17.513  0.00  0.00    +0.000 C 
ENDBRANCH  37  38
ENDBRANCH   1  37
TORSDOF 8
ENDMDL
MODEL 2
REMARK VINA RESULT:      -9.0      3.471     10.146
REMARK  Name = 
REMARK  10 active torsions:
REMARK  status: ('A' for Active; 'I' for Inactive)
REMARK    1  A    between atoms: C_1  and  C_2
REMARK    2  A    between atoms: C_2  and  C_3
REMARK    3  A    between atoms: C_3  and  C_4
REMARK    4  A    between atoms: C_4  and  C_5
REMARK    5  A    between atoms: C_4  and  C_8
REMARK    6  A    between atoms: C_4  and  C_22
REMARK    7  A    between atoms: C_5  and  C_6
REMARK    8  A    between atoms: C_6  and  C_7
REMARK    9  A    between atoms: C_13  and  C_14
REMARK   10  A    between atoms: C_27  and  C_28
REMARK                            x       y       z     vdW  Elec       q    Type
REMARK                         _______ _______ _______ _____ _____    ______ ____
ROOT
ATOM      1  C   UNL     1      -0.180  10.558  19.660  0.00  0.00    +0.000 C 
ENDROOT
BRANCH   1   2
ATOM      2  C   UNL     1       0.975   9.684  19.073  0.00  0.00    +0.000 A 
ATOM      3  C   UNL     1       1.733  10.059  17.968  0.00  0.00    +0.000 A 
ATOM      4  N   UNL     1       2.463   8.991  17.542  0.00  0.00    +0.000 N 
ATOM      5  C   UNL     1       2.287   7.936  18.401  0.00  0.00    +0.000 A 
ATOM      6  C   UNL     1       2.774   6.624  18.303  0.00  0.00    +0.000 A 
ATOM      7  C   UNL     1       2.519   5.753  19.365  0.00  0.00    +0.000 A 
ATOM      8  C   UNL     1       1.834   6.199  20.495  0.00  0.00    +0.000 A 
ATOM      9  C   UNL     1       1.329   7.507  20.552  0.00  0.00    +0.000 A 
ATOM     10  C   UNL     1       1.493   8.387  19.459  0.00  0.00    +0.000 A 
ATOM     11  H   UNL     1       3.032   8.968  16.708  0.00  0.00    +0.000 HD
BRANCH   7  12
ATOM     12  C   UNL     1       3.001   4.352  19.291  0.00  0.00    +0.000 C 
ATOM     13  N   UNL     1       4.056   3.945  19.958  0.00  0.00    +0.000 NA
ATOM     14  C   UNL     1       4.171   2.499  19.609  0.00  0.00    +0.000 C 
ATOM     15  C   UNL     1       2.826   2.106  18.999  0.00  0.00    +0.000 C 
ATOM     16  N   UNL     1       2.342   3.393  18.554  0.00  0.00    +0.000 N 
ATOM     17  H   UNL     1       1.337   3.497  18.484  0.00  0.00    +0.000 HD
ENDBRANCH   7  12
ENDBRANCH   1   2
BRANCH   1  18
ATOM     18  C   UNL     1      -1.325  10.709  18.598  0.00  0.00    +0.000 A 
ATOM     19  C   UNL     1      -1.413  10.027  17.392  0.00  0.00    +0.000 A 
ATOM     20  N   UNL     1      -2.549  10.397  16.739  0.00  0.00    +0.000 N 
ATOM     21  C   UNL     1      -3.304  11.204  17.549  0.00  0.00    +0.000 A 
ATOM     22  C   UNL     1      -4.627  11.610  17.362  0.00  0.00    +0.000 A 
ATOM     23  C   UNL     1      -5.280  11.994  18.539  0.00  0.00    +0.000 A 
ATOM     24  C   UNL     1      -4.558  12.515  19.612  0.00  0.00    +0.000 A 
ATOM     25  C   UNL     1      -3.188  12.236  19.715  0.00  0.00    +0.000 A 
ATOM     26  C   UNL     1      -2.569  11.449  18.712  0.00  0.00    +0.000 A 
ATOM     27  H   UNL     1      -2.868  10.014  15.860  0.00  0.00    +0.000 HD
BRANCH  23  28
ATOM     28  C   UNL     1      -6.346  11.007  18.901  0.00  0.00    +0.000 C 
ATOM     29  N   UNL     1      -6.116   9.712  18.880  0.00  0.00    +0.000 NA
ATOM     30  C   UNL     1      -7.156   9.163  19.803  0.00  0.00    +0.000 C 
ATOM     31  C   UNL     1      -7.693  10.371  20.572  0.00  0.00    +0.000 C 
ATOM     32  N   UNL     1      -7.482  11.405  19.586  0.00  0.00    +0.000 N 
ATOM     33  H   UNL     1      -7.458  12.342  19.971  0.00  0.00    +0.000 HD
ENDBRANCH  23  28
ENDBRANCH   1  18
BRANCH   1  34
ATOM     34  C   UNL     1      -0.818   9.964  20.969  0.00  0.00    +0.000 C 
BRANCH  34  36
ATOM     35  C   UNL     1      -0.005   9.542  23.354  0.00  0.00    +0.000 C 
ATOM     36  C   UNL     1      -0.324  10.588  22.294  0.00  0.00    +0.000 C 
ENDBRANCH  34  36
ENDBRANCH   1  34
BRANCH   1  37
ATOM     37  C   UNL     1       0.405  11.996  19.927  0.00  0.00    +0.000 C 
BRANCH  37  38
ATOM     38  C   UNL     1       0.394  12.963  18.734  0.00  0.00    +0.000 C 
ATOM     39  C   UNL     1      -0.137  14.323  19.174  0.00  0.00    +0.000 C 
ENDBRANCH  37  38
ENDBRANCH   1  37
TORSDOF 8
ENDMDL
MODEL 3
REMARK VINA RESULT:      -8.8      1.781      2.273
REMARK  Name = 
REMARK  10 active torsions:
REMARK  status: ('A' for Active; 'I' for Inactive)
REMARK    1  A    between atoms: C_1  and  C_2
REMARK    2  A    between atoms: C_2  and  C_3
REMARK    3  A    between atoms: C_3  and  C_4
REMARK    4  A    between atoms: C_4  and  C_5
REMARK    5  A    between atoms: C_4  and  C_8
REMARK    6  A    between atoms: C_4  and  C_22
REMARK    7  A    between atoms: C_5  and  C_6
REMARK    8  A    between atoms: C_6  and  C_7
REMARK    9  A    between atoms: C_13  and  C_14
REMARK   10  A    between atoms: C_27  and  C_28
REMARK                            x       y       z     vdW  Elec       q    Type
REMARK                         _______ _______ _______ _____ _____    ______ ____
ROOT
ATOM      1  C   UNL     1       2.478   5.627  19.331  0.00  0.00    +0.000 C 
ENDROOT
BRANCH   1   2
ATOM      2  C   UNL     1       1.982   7.083  19.054  0.00  0.00    +0.000 A 
ATOM      3  C   UNL     1       2.213   7.754  17.857  0.00  0.00    +0.000 A 
ATOM      4  N   UNL     1       1.904   9.072  18.016  0.00  0.00    +0.000 N 
ATOM      5  C   UNL     1       1.373   9.277  19.264  0.00  0.00    +0.000 A 
ATOM      6  C   UNL     1       0.999  10.480  19.880  0.00  0.00    +0.000 A 
ATOM      7  C   UNL     1       0.399  10.409  21.140  0.00  0.00    +0.000 A 
ATOM      8  C   UNL     1       0.153   9.172  21.736  0.00  0.00    +0.000 A 
ATOM      9  C   UNL     1       0.568   7.985  21.111  0.00  0.00    +0.000 A 
ATOM     10  C   UNL     1       1.256   8.026  19.878  0.00  0.00    +0.000 A 
ATOM     11  H   UNL     1       2.060   9.795  17.328  0.00  0.00    +0.000 HD
BRANCH   7  12
ATOM     12  C   UNL     1       0.007  11.660  21.833  0.00  0.00    +0.000 C 
ATOM     13  N   UNL     1       0.497  12.827  21.487  0.00  0.00    +0.000 NA
ATOM     14  C   UNL     1      -0.162  13.789  22.417  0.00  0.00    +0.000 C 
ATOM     15  C   UNL     1      -1.349  13.041  23.023  0.00  0.00    +0.000 C 
ATOM     16  N   UNL     1      -0.925  11.670  22.847  0.00  0.00    +0.000 N 
ATOM     17  H   UNL     1      -1.660  10.976  22.785  0.00  0.00    +0.000 HD
ENDBRANCH   7  12
ENDBRANCH   1   2
BRANCH   1  18
ATOM     18  C   UNL     1       4.023   5.531  19.071  0.00  0.00    +0.000 A 
ATOM     19  C   UNL     1       4.927   4.774  19.805  0.00  0.00    +0.000 A 
ATOM     20  N   UNL     1       6.175   4.920  19.282  0.00  0.00    +0.000 N 
ATOM     21  C   UNL     1       6.106   5.642  18.120  0.00  0.00    +0.000 A 
ATOM     22  C   UNL     1       7.105   5.821  17.160  0.00  0.00    +0.000 A 
ATOM     23  C   UNL     1       6.626   6.164  15.890  0.00  0.00    +0.000 A 
ATOM     24  C   UNL     1       5.422   6.855  15.751  0.00  0.00    +0.000 A 
ATOM     25  C   UNL     1       4.480   6.804  16.787  0.00  0.00    +0.000 A 
ATOM     26  C   UNL     1       4.785   6.069  17.959  0.00  0.00    +0.000 A 
ATOM     27  H   UNL     1       7.004   4.440  19.605  0.00  0.00    +0.000 HD
BRANCH  23  28
ATOM     28  C   UNL     1       6.839   5.043  14.921  0.00  0.00    +0.000 C 
ATOM     29  N   UNL     1       5.943   4.091  14.767  0.00  0.00    +0.000 NA
ATOM     30  C   UNL     1       6.240   3.556  13.404  0.00  0.00    +0.000 C 
ATOM     31  C   UNL     1       7.148   4.598  12.749  0.00  0.00    +0.000 C 
ATOM     32  N   UNL     1       7.795   5.136  13.924  0.00  0.00    +0.000 N 
ATOM     33  H   UNL     1       8.200   6.054  13.787  0.00  0.00    +0.000 HD
ENDBRANCH  23  28
ENDBRANCH   1  18
BRANCH   1  34
ATOM     34  C   UNL     1       2.211   5.139  20.802  0.00  0.00    +0.000 C 
BRANCH  34  36
ATOM     35  C   UNL     1       2.193   2.680  21.496  0.00  0.00    +0.000 C 
ATOM     36  C   UNL     1       1.383   3.840  20.933  0.00  0.00    +0.000 C 
ENDBRANCH  34  36
ENDBRANCH   1  34
BRANCH   1  37
ATOM     37  C   UNL     1       1.768   4.680  18.291  0.00  0.00    +0.000 C 
BRANCH  37  38
ATOM     38  C   UNL     1       2.693   3.807  17.431  0.00  0.00    +0.000 C 
ATOM     39  C   UNL     1       2.467   2.334  17.756  0.00  0.00    +0.000 C 
ENDBRANCH  37  38
ENDBRANCH   1  37
TORSDOF 8
ENDMDL
MODEL 4
REMARK VINA RESULT:      -8.7      3.414     10.242
REMARK  Name = 
REMARK  10 active torsions:
REMARK  status: ('A' for Active; 'I' for Inactive)
REMARK    1  A    between atoms: C_1  and  C_2
REMARK    2  A    between atoms: C_2  and  C_3
REMARK    3  A    between atoms: C_3  and  C_4
REMARK    4  A    between atoms: C_4  and  C_5
REMARK    5  A    between atoms: C_4  and  C_8
REMARK    6  A    between atoms: C_4  and  C_22
REMARK    7  A    between atoms: C_5  and  C_6
REMARK    8  A    between atoms: C_6  and  C_7
REMARK    9  A    between atoms: C_13  and  C_14
REMARK   10  A    between atoms: C_27  and  C_28
REMARK                            x       y       z     vdW  Elec       q    Type
REMARK                         _______ _______ _______ _____ _____    ______ ____
ROOT
ATOM      1  C   UNL     1      -0.465  11.173  20.032  0.00  0.00    +0.000 C 
ENDROOT
BRANCH   1   2
ATOM      2  C   UNL     1       0.167   9.751  20.182  0.00  0.00    +0.000 A 
ATOM      3  C   UNL     1      -0.005   8.953  21.309  0.00  0.00    +0.000 A 
ATOM      4  N   UNL     1       0.871   7.911  21.257  0.00  0.00    +0.000 N 
ATOM      5  C   UNL     1       1.557   7.938  20.069  0.00  0.00    +0.000 A 
ATOM      6  C   UNL     1       2.606   7.116  19.633  0.00  0.00    +0.000 A 
ATOM      7  C   UNL     1       3.080   7.300  18.332  0.00  0.00    +0.000 A 
ATOM      8  C   UNL     1       2.494   8.248  17.494  0.00  0.00    +0.000 A 
ATOM      9  C   UNL     1       1.467   9.079  17.967  0.00  0.00    +0.000 A 
ATOM     10  C   UNL     1       1.023   8.980  19.305  0.00  0.00    +0.000 A 
ATOM     11  H   UNL     1       1.013   7.231  21.990  0.00  0.00    +0.000 HD
BRANCH   7  12
ATOM     12  C   UNL     1       4.202   6.463  17.840  0.00  0.00    +0.000 C 
ATOM     13  N   UNL     1       4.701   5.482  18.555  0.00  0.00    +0.000 NA
ATOM     14  C   UNL     1       5.778   4.915  17.693  0.00  0.00    +0.000 C 
ATOM     15  C   UNL     1       5.521   5.458  16.288  0.00  0.00    +0.000 C 
ATOM     16  N   UNL     1       4.752   6.644  16.590  0.00  0.00    +0.000 N 
ATOM     17  H   UNL     1       4.121   6.968  15.868  0.00  0.00    +0.000 HD
ENDBRANCH   7  12
ENDBRANCH   1   2
BRANCH   1  18
ATOM     18  C   UNL     1      -1.578  11.146  18.926  0.00  0.00    +0.000 A 
ATOM     19  C   UNL     1      -1.561  10.374  17.772  0.00  0.00    +0.000 A 
ATOM     20  N   UNL     1      -2.699  10.595  17.057  0.00  0.00    +0.000 N 
ATOM     21  C   UNL     1      -3.550  11.388  17.781  0.00  0.00    +0.000 A 
ATOM     22  C   UNL     1      -4.895  11.662  17.522  0.00  0.00    +0.000 A 
ATOM     23  C   UNL     1      -5.623  12.070  18.646  0.00  0.00    +0.000 A 
ATOM     24  C   UNL     1      -4.989  12.728  19.700  0.00  0.00    +0.000 A 
ATOM     25  C   UNL     1      -3.606  12.578  19.866  0.00  0.00    +0.000 A 
ATOM     26  C   UNL     1      -2.884  11.780  18.945  0.00  0.00    +0.000 A 
ATOM     27  H   UNL     1      -2.951  10.123  16.200  0.00  0.00    +0.000 HD
BRANCH  23  28
ATOM     28  C   UNL     1      -6.614  11.021  19.047  0.00  0.00    +0.000 C 
ATOM     29  N   UNL     1      -6.334   9.739  18.945  0.00  0.00    +0.000 NA
ATOM     30  C   UNL     1      -7.269   9.104  19.922  0.00  0.00    +0.000 C 
ATOM     31  C   UNL     1      -7.788  10.251  20.790  0.00  0.00    +0.000 C 
ATOM     32  N   UNL     1      -7.703  11.337  19.842  0.00  0.00    +0.000 N 
ATOM     33  H   UNL     1      -7.685  12.256  20.268  0.00  0.00    +0.000 HD
ENDBRANCH  23  28
ENDBRANCH   1  18
BRANCH   1  34
ATOM     34  C   UNL     1      -1.120  11.715  21.355  0.00  0.00    +0.000 C 
BRANCH  34  36
ATOM     35  C   UNL     1      -1.186  13.552  23.129  0.00  0.00    +0.000 C 
ATOM     36  C   UNL     1      -0.356  12.861  22.055  0.00  0.00    +0.000 C 
ENDBRANCH  34  36
ENDBRANCH   1  34
BRANCH   1  37
ATOM     37  C   UNL     1       0.669  12.144  19.532  0.00  0.00    +0.000 C 
BRANCH  37  38
ATOM     38  C   UNL     1       0.241  13.225  18.530  0.00  0.00    +0.000 C 
ATOM     39  C   UNL     1       0.944  14.539  18.852  0.00  0.00    +0.000 C 
ENDBRANCH  37  38
ENDBRANCH   1  37
TORSDOF 8
ENDMDL
MODEL 5
REMARK VINA RESULT:      -8.4      3.619     10.472
REMARK  Name = 
REMARK  10 active torsions:
REMARK  status: ('A' for Active; 'I' for Inactive)
REMARK    1  A    between atoms: C_1  and  C_2
REMARK    2  A    between atoms: C_2  and  C_3
REMARK    3  A    between atoms: C_3  and  C_4
REMARK    4  A    between atoms: C_4  and  C_5
REMARK    5  A    between atoms: C_4  and  C_8
REMARK    6  A    between atoms: C_4  and  C_22
REMARK    7  A    between atoms: C_5  and  C_6
REMARK    8  A    between atoms: C_6  and  C_7
REMARK    9  A    between atoms: C_13  and  C_14
REMARK   10  A    between atoms: C_27  and  C_28
REMARK                            x       y       z     vdW  Elec       q    Type
REMARK                         _______ _______ _______ _____ _____    ______ ____
ROOT
ATOM      1  C   UNL     1       0.646  11.129  19.807  0.00  0.00    +0.000 C 
ENDROOT
BRANCH   1   2
ATOM      2  C   UNL     1       1.442   9.992  19.089  0.00  0.00    +0.000 A 
ATOM      3  C   UNL     1       2.022  10.139  17.833  0.00  0.00    +0.000 A 
ATOM      4  N   UNL     1       2.403   8.915  17.369  0.00  0.00    +0.000 N 
ATOM      5  C   UNL     1       2.183   7.964  18.333  0.00  0.00    +0.000 A 
ATOM      6  C   UNL     1       2.347   6.573  18.258  0.00  0.00    +0.000 A 
ATOM      7  C   UNL     1       2.132   5.828  19.420  0.00  0.00    +0.000 A 
ATOM      8  C   UNL     1       1.804   6.464  20.617  0.00  0.00    +0.000 A 
ATOM      9  C   UNL     1       1.614   7.855  20.656  0.00  0.00    +0.000 A 
ATOM     10  C   UNL     1       1.737   8.628  19.480  0.00  0.00    +0.000 A 
ATOM     11  H   UNL     1       2.772   8.730  16.448  0.00  0.00    +0.000 HD
BRANCH   7  12
ATOM     12  C   UNL     1       2.276   4.352  19.377  0.00  0.00    +0.000 C 
ATOM     13  N   UNL     1       3.408   3.757  19.673  0.00  0.00    +0.000 NA
ATOM     14  C   UNL     1       3.108   2.305  19.513  0.00  0.00    +0.000 C 
ATOM     15  C   UNL     1       1.583   2.192  19.485  0.00  0.00    +0.000 C 
ATOM     16  N   UNL     1       1.219   3.526  19.066  0.00  0.00    +0.000 N 
ATOM     17  H   UNL     1       0.302   3.851  19.345  0.00  0.00    +0.000 HD
ENDBRANCH   7  12
ENDBRANCH   1   2
BRANCH   1  18
ATOM     18  C   UNL     1      -0.832  11.158  19.281  0.00  0.00    +0.000 A 
ATOM     19  C   UNL     1      -1.448  10.166  18.529  0.00  0.00    +0.000 A 
ATOM     20  N   UNL     1      -2.736  10.524  18.270  0.00  0.00    +0.000 N 
ATOM     21  C   UNL     1      -3.044  11.668  18.957  0.00  0.00    +0.000 A 
ATOM     22  C   UNL     1      -4.304  12.239  19.153  0.00  0.00    +0.000 A 
ATOM     23  C   UNL     1      -4.384  13.083  20.267  0.00  0.00    +0.000 A 
ATOM     24  C   UNL     1      -3.255  13.764  20.722  0.00  0.00    +0.000 A 
ATOM     25  C   UNL     1      -1.983  13.277  20.391  0.00  0.00    +0.000 A 
ATOM     26  C   UNL     1      -1.878  12.118  19.583  0.00  0.00    +0.000 A 
ATOM     27  H   UNL     1      -3.412   9.956  17.779  0.00  0.00    +0.000 HD
BRANCH  23  28
ATOM     28  C   UNL     1      -5.241  12.475  21.334  0.00  0.00    +0.000 C 
ATOM     29  N   UNL     1      -5.125  12.836  22.594  0.00  0.00    +0.000 NA
ATOM     30  C   UNL     1      -6.450  12.468  23.180  0.00  0.00    +0.000 C 
ATOM     31  C   UNL     1      -7.369  12.223  21.983  0.00  0.00    +0.000 C 
ATOM     32  N   UNL     1      -6.395  11.783  21.011  0.00  0.00    +0.000 N 
ATOM     33  H   UNL     1      -6.706  11.867  20.050  0.00  0.00    +0.000 HD
ENDBRANCH  23  28
ENDBRANCH   1  18
BRANCH   1  34
ATOM     34  C   UNL     1       0.593  10.972  21.371  0.00  0.00    +0.000 C 
BRANCH  34  36
ATOM     35  C   UNL     1      -0.345   9.552  23.276  0.00  0.00    +0.000 C 
ATOM     36  C   UNL     1      -0.622  10.190  21.921  0.00  0.00    +0.000 C 
ENDBRANCH  34  36
ENDBRANCH   1  34
BRANCH   1  37
ATOM     37  C   UNL     1       1.314  12.498  19.406  0.00  0.00    +0.000 C 
BRANCH  37  38
ATOM     38  C   UNL     1       1.870  13.343  20.561  0.00  0.00    +0.000 C 
ATOM     39  C   UNL     1       2.591  14.568  20.008  0.00  0.00    +0.000 C 
ENDBRANCH  37  38
ENDBRANCH   1  37
TORSDOF 8
ENDMDL
MODEL 6
REMARK VINA RESULT:      -8.3      2.791      9.543
REMARK  Name = 
REMARK  10 active torsions:
REMARK  status: ('A' for Active; 'I' for Inactive)
REMARK    1  A    between atoms: C_1  and  C_2
REMARK    2  A    between atoms: C_2  and  C_3
REMARK    3  A    between atoms: C_3  and  C_4
REMARK    4  A    between atoms: C_4  and  C_5
REMARK    5  A    between atoms: C_4  and  C_8
REMARK    6  A    between atoms: C_4  and  C_22
REMARK    7  A    between atoms: C_5  and  C_6
REMARK    8  A    between atoms: C_6  and  C_7
REMARK    9  A    between atoms: C_13  and  C_14
REMARK   10  A    between atoms: C_27  and  C_28
REMARK                            x       y       z     vdW  Elec       q    Type
REMARK                         _______ _______ _______ _____ _____    ______ ____
ROOT
ATOM      1  C   UNL     1      -0.167  11.563  19.498  0.00  0.00    +0.000 C 
ENDROOT
BRANCH   1   2
ATOM      2  C   UNL     1       0.296  10.139  19.945  0.00  0.00    +0.000 A 
ATOM      3  C   UNL     1       0.037   9.611  21.206  0.00  0.00    +0.000 A 
ATOM      4  N   UNL     1       0.786   8.487  21.384  0.00  0.00    +0.000 N 
ATOM      5  C   UNL     1       1.465   8.194  20.229  0.00  0.00    +0.000 A 
ATOM      6  C   UNL     1       2.411   7.185  19.989  0.00  0.00    +0.000 A 
ATOM      7  C   UNL     1       2.898   7.045  18.686  0.00  0.00    +0.000 A 
ATOM      8  C   UNL     1       2.422   7.863  17.662  0.00  0.00    +0.000 A 
ATOM      9  C   UNL     1       1.501   8.886  17.937  0.00  0.00    +0.000 A 
ATOM     10  C   UNL     1       1.054   9.112  19.258  0.00  0.00    +0.000 A 
ATOM     11  H   UNL     1       0.851   7.958  22.242  0.00  0.00    +0.000 HD
BRANCH   7  12
ATOM     12  C   UNL     1       3.913   6.003  18.396  0.00  0.00    +0.000 C 
ATOM     13  N   UNL     1       4.581   5.401  19.352  0.00  0.00    +0.000 NA
ATOM     14  C   UNL     1       5.466   4.443  18.629  0.00  0.00    +0.000 C 
ATOM     15  C   UNL     1       4.899   4.333  17.214  0.00  0.00    +0.000 C 
ATOM     16  N   UNL     1       4.177   5.581  17.112  0.00  0.00    +0.000 N 
ATOM     17  H   UNL     1       3.398   5.599  16.467  0.00  0.00    +0.000 HD
ENDBRANCH   7  12
ENDBRANCH   1   2
BRANCH   1  18
ATOM     18  C   UNL     1       1.082  12.434  19.118  0.00  0.00    +0.000 A 
ATOM     19  C   UNL     1       1.975  12.172  18.087  0.00  0.00    +0.000 A 
ATOM     20  N   UNL     1       2.920  13.151  18.042  0.00  0.00    +0.000 N 
ATOM     21  C   UNL     1       2.596  14.146  18.926  0.00  0.00    +0.000 A 
ATOM     22  C   UNL     1       3.161  15.419  19.031  0.00  0.00    +0.000 A 
ATOM     23  C   UNL     1       2.335  16.363  19.651  0.00  0.00    +0.000 A 
ATOM     24  C   UNL     1       1.387  15.965  20.594  0.00  0.00    +0.000 A 
ATOM     25  C   UNL     1       0.934  14.638  20.590  0.00  0.00    +0.000 A 
ATOM     26  C   UNL     1       1.469  13.731  19.641  0.00  0.00    +0.000 A 
ATOM     27  H   UNL     1       3.658  13.218  17.355  0.00  0.00    +0.000 HD
BRANCH  23  28
ATOM     28  C   UNL     1       1.870  17.391  18.666  0.00  0.00    +0.000 C 
ATOM     29  N   UNL     1       2.423  17.501  17.477  0.00  0.00    +0.000 NA
ATOM     30  C   UNL     1       1.365  18.174  16.666  0.00  0.00    +0.000 C 
ATOM     31  C   UNL     1       0.083  18.052  17.491  0.00  0.00    +0.000 C 
ATOM     32  N   UNL     1       0.647  18.021  18.820  0.00  0.00    +0.000 N 
ATOM     33  H   UNL     1       0.031  17.624  19.520  0.00  0.00    +0.000 HD
ENDBRANCH  23  28
ENDBRANCH   1  18
BRANCH   1  34
ATOM     34  C   UNL     1      -1.135  11.551  18.258  0.00  0.00    +0.000 C 
BRANCH  34  36
ATOM     35  C   UNL     1      -2.245   9.920  16.635  0.00  0.00    +0.000 C 
ATOM     36  C   UNL     1      -1.992  10.275  18.094  0.00  0.00    +0.000 C 
ENDBRANCH  34  36
ENDBRANCH   1  34
BRANCH   1  37
ATOM     37  C   UNL     1      -0.857  12.246  20.738  0.00  0.00    +0.000 C 
BRANCH  37  38
ATOM     38  C   UNL     1      -2.261  12.819  20.500  0.00  0.00    +0.000 C 
ATOM     39  C   UNL     1      -3.073  12.753  21.789  0.00  0.00    +0.000 C 
ENDBRANCH  37  38
ENDBRANCH   1  37
TORSDOF 8
ENDMDL
MODEL 7
REMARK VINA RESULT:      -8.2      3.629     10.534
REMARK  Name = 
REMARK  10 active torsions:
REMARK  status: ('A' for Active; 'I' for Inactive)
REMARK    1  A    between atoms: C_1  and  C_2
REMARK    2  A    between atoms: C_2  and  C_3
REMARK    3  A    between atoms: C_3  and  C_4
REMARK    4  A    between atoms: C_4  and  C_5
REMARK    5  A    between atoms: C_4  and  C_8
REMARK    6  A    between atoms: C_4  and  C_22
REMARK    7  A    between atoms: C_5  and  C_6
REMARK    8  A    between atoms: C_6  and  C_7
REMARK    9  A    between atoms: C_13  and  C_14
REMARK   10  A    between atoms: C_27  and  C_28
REMARK                            x       y       z     vdW  Elec       q    Type
REMARK                         _______ _______ _______ _____ _____    ______ ____
ROOT
ATOM      1  C   UNL     1      -0.828  12.098  19.824  0.00  0.00    +0.000 C 
ENDROOT
BRANCH   1   2
ATOM      2  C   UNL     1      -0.346  10.657  20.191  0.00  0.00    +0.000 A 
ATOM      3  C   UNL     1      -0.615  10.048  21.413  0.00  0.00    +0.000 A 
ATOM      4  N   UNL     1       0.152   8.928  21.534  0.00  0.00    +0.000 N 
ATOM      5  C   UNL     1       0.854   8.719  20.375  0.00  0.00    +0.000 A 
ATOM      6  C   UNL     1       1.821   7.743  20.089  0.00  0.00    +0.000 A 
ATOM      7  C   UNL     1       2.331   7.692  18.789  0.00  0.00    +0.000 A 
ATOM      8  C   UNL     1       1.856   8.563  17.809  0.00  0.00    +0.000 A 
ATOM      9  C   UNL     1       0.912   9.551  18.131  0.00  0.00    +0.000 A 
ATOM     10  C   UNL     1       0.441   9.688  19.456  0.00  0.00    +0.000 A 
ATOM     11  H   UNL     1       0.213   8.349  22.359  0.00  0.00    +0.000 HD
BRANCH   7  12
ATOM     12  C   UNL     1       3.369   6.687  18.453  0.00  0.00    +0.000 C 
ATOM     13  N   UNL     1       3.536   5.597  19.164  0.00  0.00    +0.000 NA
ATOM     14  C   UNL     1       4.653   4.884  18.481  0.00  0.00    +0.000 C 
ATOM     15  C   UNL     1       4.785   5.532  17.103  0.00  0.00    +0.000 C 
ATOM     16  N   UNL     1       4.185   6.824  17.352  0.00  0.00    +0.000 N 
ATOM     17  H   UNL     1       3.780   7.293  16.552  0.00  0.00    +0.000 HD
ENDBRANCH   7  12
ENDBRANCH   1   2
BRANCH   1  18
ATOM     18  C   UNL     1      -2.053  12.016  18.846  0.00  0.00    +0.000 A 
ATOM     19  C   UNL     1      -2.018  11.562  17.534  0.00  0.00    +0.000 A 
ATOM     20  N   UNL     1      -3.269  11.616  16.999  0.00  0.00    +0.000 N 
ATOM     21  C   UNL     1      -4.172  11.957  17.971  0.00  0.00    +0.000 A 
ATOM     22  C   UNL     1      -5.566  11.900  17.906  0.00  0.00    +0.000 A 
ATOM     23  C   UNL     1      -6.196  11.824  19.153  0.00  0.00    +0.000 A 
ATOM     24  C   UNL     1      -5.594  12.375  20.285  0.00  0.00    +0.000 A 
ATOM     25  C   UNL     1      -4.207  12.580  20.291  0.00  0.00    +0.000 A 
ATOM     26  C   UNL     1      -3.457  12.243  19.137  0.00  0.00    +0.000 A 
ATOM     27  H   UNL     1      -3.522  11.300  16.073  0.00  0.00    +0.000 HD
BRANCH  23  28
ATOM     28  C   UNL     1      -6.825  10.480  19.350  0.00  0.00    +0.000 C 
ATOM     29  N   UNL     1      -6.198   9.373  19.013  0.00  0.00    +0.000 NA
ATOM     30  C   UNL     1      -6.862   8.332  19.854  0.00  0.00    +0.000 C 
ATOM     31  C   UNL     1      -7.640   9.106  20.919  0.00  0.00    +0.000 C 
ATOM     32  N   UNL     1      -7.916  10.321  20.188  0.00  0.00    +0.000 N 
ATOM     33  H   UNL     1      -8.138  11.115  20.778  0.00  0.00    +0.000 HD
ENDBRANCH  23  28
ENDBRANCH   1  18
BRANCH   1  34
ATOM     34  C   UNL     1      -1.268  12.952  21.069  0.00  0.00    +0.000 C 
BRANCH  34  36
ATOM     35  C   UNL     1      -1.143  15.276  22.122  0.00  0.00    +0.000 C 
ATOM     36  C   UNL     1      -1.335  14.479  20.838  0.00  0.00    +0.000 C 
ENDBRANCH  34  36
ENDBRANCH   1  34
BRANCH   1  37
ATOM     37  C   UNL     1       0.346  12.805  19.048  0.00  0.00    +0.000 C 
BRANCH  37  38
ATOM     38  C   UNL     1       1.655  12.994  19.828  0.00  0.00    +0.000 C 
ATOM     39  C   UNL     1       2.209  14.393  19.580  0.00  0.00    +0.000 C 
ENDBRANCH  37  38
ENDBRANCH   1  37
TORSDOF 8
ENDMDL
MODEL 8
REMARK VINA RESULT:      -8.1      3.336     10.365
REMARK  Name = 
REMARK  10 active torsions:
REMARK  status: ('A' for Active; 'I' for Inactive)
REMARK    1  A    between atoms: C_1  and  C_2
REMARK    2  A    between atoms: C_2  and  C_3
REMARK    3  A    between atoms: C_3  and  C_4
REMARK    4  A    between atoms: C_4  and  C_5
REMARK    5  A    between atoms: C_4  and  C_8
REMARK    6  A    between atoms: C_4  and  C_22
REMARK    7  A    between atoms: C_5  and  C_6
REMARK    8  A    between atoms: C_6  and  C_7
REMARK    9  A    between atoms: C_13  and  C_14
REMARK   10  A    between atoms: C_27  and  C_28
REMARK                            x       y       z     vdW  Elec       q    Type
REMARK                         _______ _______ _______ _____ _____    ______ ____
ROOT
ATOM      1  C   UNL     1       0.194  10.264  20.221  0.00  0.00    +0.000 C 
ENDROOT
BRANCH   1   2
ATOM      2  C   UNL     1       1.161   9.402  19.347  0.00  0.00    +0.000 A 
ATOM      3  C   UNL     1       1.682   9.832  18.131  0.00  0.00    +0.000 A 
ATOM      4  N   UNL     1       2.261   8.776  17.493  0.00  0.00    +0.000 N 
ATOM      5  C   UNL     1       2.227   7.669  18.302  0.00  0.00    +0.000 A 
ATOM      6  C   UNL     1       2.628   6.354  18.021  0.00  0.00    +0.000 A 
ATOM      7  C   UNL     1       2.568   5.419  19.058  0.00  0.00    +0.000 A 
ATOM      8  C   UNL     1       2.157   5.804  20.334  0.00  0.00    +0.000 A 
ATOM      9  C   UNL     1       1.730   7.119  20.578  0.00  0.00    +0.000 A 
ATOM     10  C   UNL     1       1.695   8.068  19.532  0.00  0.00    +0.000 A 
ATOM     11  H   UNL     1       2.639   8.796  16.557  0.00  0.00    +0.000 HD
BRANCH   7  12
ATOM     12  C   UNL     1       2.964   4.014  18.796  0.00  0.00    +0.000 C 
ATOM     13  N   UNL     1       3.565   3.282  19.704  0.00  0.00    +0.000 NA
ATOM     14  C   UNL     1       3.765   1.964  19.036  0.00  0.00    +0.000 C 
ATOM     15  C   UNL     1       2.844   1.968  17.816  0.00  0.00    +0.000 C 
ATOM     16  N   UNL     1       2.683   3.389  17.601  0.00  0.00    +0.000 N 
ATOM     17  H   UNL     1       1.834   3.680  17.134  0.00  0.00    +0.000 HD
ENDBRANCH   7  12
ENDBRANCH   1   2
BRANCH   1  18
ATOM     18  C   UNL     1      -1.082  10.641  19.389  0.00  0.00    +0.000 A 
ATOM     19  C   UNL     1      -1.586   9.933  18.305  0.00  0.00    +0.000 A 
ATOM     20  N   UNL     1      -2.713  10.543  17.846  0.00  0.00    +0.000 N 
ATOM     21  C   UNL     1      -3.063  11.563  18.691  0.00  0.00    +0.000 A 
ATOM     22  C   UNL     1      -4.259  12.283  18.718  0.00  0.00    +0.000 A 
ATOM     23  C   UNL     1      -4.535  12.890  19.949  0.00  0.00    +0.000 A 
ATOM     24  C   UNL     1      -3.497  13.271  20.799  0.00  0.00    +0.000 A 
ATOM     25  C   UNL     1      -2.244  12.657  20.666  0.00  0.00    +0.000 A 
ATOM     26  C   UNL     1      -2.059  11.680  19.657  0.00  0.00    +0.000 A 
ATOM     27  H   UNL     1      -3.295  10.203  17.093  0.00  0.00    +0.000 HD
BRANCH  23  28
ATOM     28  C   UNL     1      -5.703  12.233  20.616  0.00  0.00    +0.000 C 
ATOM     29  N   UNL     1      -6.498  12.903  21.422  0.00  0.00    +0.000 NA
ATOM     30  C   UNL     1      -7.763  12.108  21.397  0.00  0.00    +0.000 C 
ATOM     31  C   UNL     1      -7.628  11.169  20.198  0.00  0.00    +0.000 C 
ATOM     32  N   UNL     1      -6.192  11.020  20.162  0.00  0.00    +0.000 N 
ATOM     33  H   UNL     1      -5.833  10.707  19.267  0.00  0.00    +0.000 HD
ENDBRANCH  23  28
ENDBRANCH   1  18
BRANCH   1  34
ATOM     34  C   UNL     1      -0.288   9.541  21.531  0.00  0.00    +0.000 C 
BRANCH  34  36
ATOM     35  C   UNL     1      -1.451  10.943  23.322  0.00  0.00    +0.000 C 
ATOM     36  C   UNL     1      -0.133  10.354  22.837  0.00  0.00    +0.000 C 
ENDBRANCH  34  36
ENDBRANCH   1  34
BRANCH   1  37
ATOM     37  C   UNL     1       0.941  11.607  20.567  0.00  0.00    +0.000 C 
BRANCH  37  38
ATOM     38  C   UNL     1       1.291  12.512  19.377  0.00  0.00    +0.000 C 
ATOM     39  C   UNL     1       2.184  13.658  19.842  0.00  0.00    +0.000 C 
ENDBRANCH  37  38
ENDBRANCH   1  37
TORSDOF 8
ENDMDL
MODEL 9
REMARK VINA RESULT:      -8.1      4.232     11.249
REMARK  Name = 
REMARK  10 active torsions:
REMARK  status: ('A' for Active; 'I' for Inactive)
REMARK    1  A    between atoms: C_1  and  C_2
REMARK    2  A    between atoms: C_2  and  C_3
REMARK    3  A    between atoms: C_3  and  C_4
REMARK    4  A    between atoms: C_4  and  C_5
REMARK    5  A    between atoms: C_4  and  C_8
REMARK    6  A    between atoms: C_4  and  C_22
REMARK    7  A    between atoms: C_5  and  C_6
REMARK    8  A    between atoms: C_6  and  C_7
REMARK    9  A    between atoms: C_13  and  C_14
REMARK   10  A    between atoms: C_27  and  C_28
REMARK                            x       y       z     vdW  Elec       q    Type
REMARK                         _______ _______ _______ _____ _____    ______ ____
ROOT
ATOM      1  C   UNL     1      -0.463  12.124  19.979  0.00  0.00    +0.000 C 
ENDROOT
BRANCH   1   2
ATOM      2  C   UNL     1       0.038  10.685  20.326  0.00  0.00    +0.000 A 
ATOM      3  C   UNL     1      -0.064  10.125  21.596  0.00  0.00    +0.000 A 
ATOM      4  N   UNL     1       0.689   8.991  21.648  0.00  0.00    +0.000 N 
ATOM      5  C   UNL     1       1.211   8.724  20.408  0.00  0.00    +0.000 A 
ATOM      6  C   UNL     1       2.107   7.715  20.023  0.00  0.00    +0.000 A 
ATOM      7  C   UNL     1       2.422   7.606  18.666  0.00  0.00    +0.000 A 
ATOM      8  C   UNL     1       1.829   8.456  17.733  0.00  0.00    +0.000 A 
ATOM      9  C   UNL     1       0.962   9.478  18.150  0.00  0.00    +0.000 A 
ATOM     10  C   UNL     1       0.690   9.672  19.522  0.00  0.00    +0.000 A 
ATOM     11  H   UNL     1       0.857   8.439  22.476  0.00  0.00    +0.000 HD
BRANCH   7  12
ATOM     12  C   UNL     1       3.380   6.564  18.221  0.00  0.00    +0.000 C 
ATOM     13  N   UNL     1       4.220   6.771  17.234  0.00  0.00    +0.000 NA
ATOM     14  C   UNL     1       4.984   5.495  17.134  0.00  0.00    +0.000 C 
ATOM     15  C   UNL     1       4.719   4.743  18.438  0.00  0.00    +0.000 C 
ATOM     16  N   UNL     1       3.469   5.342  18.848  0.00  0.00    +0.000 N 
ATOM     17  H   UNL     1       3.270   5.333  19.840  0.00  0.00    +0.000 HD
ENDBRANCH   7  12
ENDBRANCH   1   2
BRANCH   1  18
ATOM     18  C   UNL     1      -0.540  12.991  21.285  0.00  0.00    +0.000 A 
ATOM     19  C   UNL     1       0.296  14.053  21.609  0.00  0.00    +0.000 A 
ATOM     20  N   UNL     1      -0.078  14.578  22.808  0.00  0.00    +0.000 N 
ATOM     21  C   UNL     1      -1.240  13.988  23.228  0.00  0.00    +0.000 A 
ATOM     22  C   UNL     1      -2.076  14.387  24.274  0.00  0.00    +0.000 A 
ATOM     23  C   UNL     1      -3.393  13.927  24.162  0.00  0.00    +0.000 A 
ATOM     24  C   UNL     1      -3.673  12.738  23.488  0.00  0.00    +0.000 A 
ATOM     25  C   UNL     1      -2.755  12.252  22.548  0.00  0.00    +0.000 A 
ATOM     26  C   UNL     1      -1.554  12.971  22.323  0.00  0.00    +0.000 A 
ATOM     27  H   UNL     1       0.341  15.387  23.246  0.00  0.00    +0.000 HD
BRANCH  23  28
ATOM     28  C   UNL     1      -4.330  15.061  23.882  0.00  0.00    +0.000 C 
ATOM     29  N   UNL     1      -5.610  14.853  23.659  0.00  0.00    +0.000 NA
ATOM     30  C   UNL     1      -6.236  16.168  23.992  0.00  0.00    +0.000 C 
ATOM     31  C   UNL     1      -5.165  16.943  24.761  0.00  0.00    +0.000 C 
ATOM     32  N   UNL     1      -3.976  16.366  24.176  0.00  0.00    +0.000 N 
ATOM     33  H   UNL     1      -3.143  16.480  24.741  0.00  0.00    +0.000 HD
ENDBRANCH  23  28
ENDBRANCH   1  18
BRANCH   1  34
ATOM     34  C   UNL     1       0.459  12.884  18.957  0.00  0.00    +0.000 C 
BRANCH  34  36
ATOM     35  C   UNL     1       2.806  12.749  17.955  0.00  0.00    +0.000 C 
ATOM     36  C   UNL     1       1.977  12.792  19.233  0.00  0.00    +0.000 C 
ENDBRANCH  34  36
ENDBRANCH   1  34
BRANCH   1  37
ATOM     37  C   UNL     1      -1.928  11.992  19.417  0.00  0.00    +0.000 C 
BRANCH  37  38
ATOM     38  C   UNL     1      -2.053  11.682  17.919  0.00  0.00    +0.000 C 
ATOM     39  C   UNL     1      -2.675  10.303  17.724  0.00  0.00    +0.000 C 
ENDBRANCH  37  38
ENDBRANCH   1  37
TORSDOF 8
ENDMDL
