MODEL 1
REMARK VINA RESULT:      -9.5      0.000      0.000
REMARK  Name = 
REMARK  5 active torsions:
REMARK  status: ('A' for Active; 'I' for Inactive)
REMARK    1  A    between atoms: C_1  and  C_2
REMARK    2  A    between atoms: C_2  and  C_3
REMARK    3  A    between atoms: C_2  and  C_4
REMARK    4  A    between atoms: C_7  and  C_8
REMARK    5  A    between atoms: C_11  and  O_12
REMARK                            x       y       z     vdW  Elec       q    Type
REMARK                         _______ _______ _______ _____ _____    ______ ____
ROOT
ATOM      1  C   UNL     1       2.907   5.900  20.087  0.00  0.00    +0.000 C 
ATOM      2  C   UNL     1       3.871   5.256  19.108  0.00  0.00    +0.000 A 
ATOM      3  C   UNL     1       5.254   5.163  19.146  0.00  0.00    +0.000 A 
ATOM      4  C   UNL     1       5.890   4.568  18.056  0.00  0.00    +0.000 A 
ATOM      5  C   UNL     1       5.181   4.213  16.902  0.00  0.00    +0.000 A 
ATOM      6  C   UNL     1       3.788   4.202  16.926  0.00  0.00    +0.000 A 
ATOM      7  C   UNL     1       3.158   4.595  18.097  0.00  0.00    +0.000 A 
ATOM      8  C   UNL     1       1.725   4.406  18.524  0.00  0.00    +0.000 C 
ATOM      9  N   UNL     1       1.192   3.065  18.284  0.00  0.00    +0.000 NA
ATOM     10  C   UNL     1       1.674   2.038  19.207  0.00  0.00    +0.000 C 
ATOM     11  C   UNL     1       1.394   2.409  20.655  0.00  0.00    +0.000 C 
ATOM     12  C   UNL     1       2.146   3.678  21.006  0.00  0.00    +0.000 C 
ATOM     13  C   UNL     1       1.790   4.824  20.030  0.00  0.00    +0.000 C 
ATOM     14  H   UNL     1       1.414   2.785  17.332  0.00  0.00    +0.000 HD
ENDROOT
BRANCH   1  18
ATOM     15  C   UNL     1       0.926   9.629  18.882  0.00  0.00    +0.000 A 
ATOM     16  C   UNL     1       1.739   8.935  17.979  0.00  0.00    +0.000 A 
ATOM     17  C   UNL     1       2.437   7.776  18.360  0.00  0.00    +0.000 A 
ATOM     18  C   UNL     1       2.320   7.257  19.664  0.00  0.00    +0.000 A 
ATOM     19  C   UNL     1       1.545   7.992  20.579  0.00  0.00    +0.000 A 
ATOM     20  C   UNL     1       0.850   9.150  20.196  0.00  0.00    +0.000 A 
BRANCH  15  22
ATOM     21  C   UNL     1      -1.284  10.544  18.036  0.00  0.00    +0.000 C 
ATOM     22  C   UNL     1       0.164  10.860  18.427  0.00  0.00    +0.000 C 
ATOM     23  C   UNL     1       0.204  11.969  19.483  0.00  0.00    +0.000 C 
ENDBRANCH  15  22
ENDBRANCH   1  18
BRANCH   4  24
ATOM     24  O   UNL     1       7.215   4.258  18.113  0.00  0.00    +0.000 OA
ATOM     25  H   UNL     1       7.250   3.284  18.169  0.00  0.00    +0.000 HD
ENDBRANCH   4  24
TORSDOF 3
ENDMDL
MODEL 2
REMARK VINA RESULT:      -9.3      0.570      1.177
REMARK  Name = 
REMARK  5 active torsions:
REMARK  status: ('A' for Active; 'I' for Inactive)
REMARK    1  A    between atoms: C_1  and  C_2
REMARK    2  A    between atoms: C_2  and  C_3
REMARK    3  A    between atoms: C_2  and  C_4
REMARK    4  A    between atoms: C_7  and  C_8
REMARK    5  A    between atoms: C_11  and  O_12
REMARK                            x       y       z     vdW  Elec       q    Type
REMARK                         _______ _______ _______ _____ _____    ______ ____
ROOT
ATOM      1  C   UNL     1       2.848   5.992  20.186  0.00  0.00    +0.000 C 
ATOM      2  C   UNL     1       3.752   5.273  19.202  0.00  0.00    +0.000 A 
ATOM      3  C   UNL     1       5.135   5.204  19.146  0.00  0.00    +0.000 A 
ATOM      4  C   UNL     1       5.703   4.518  18.071  0.00  0.00    +0.000 A 
ATOM      5  C   UNL     1       4.920   4.047  17.011  0.00  0.00    +0.000 A 
ATOM      6  C   UNL     1       3.534   4.019  17.139  0.00  0.00    +0.000 A 
ATOM      7  C   UNL     1       2.982   4.510  18.311  0.00  0.00    +0.000 A 
ATOM      8  C   UNL     1       1.588   4.342  18.859  0.00  0.00    +0.000 C 
ATOM      9  N   UNL     1       1.067   2.977  18.784  0.00  0.00    +0.000 NA
ATOM     10  C   UNL     1       1.636   2.047  19.760  0.00  0.00    +0.000 C 
ATOM     11  C   UNL     1       1.454   2.548  21.184  0.00  0.00    +0.000 C 
ATOM     12  C   UNL     1       2.203   3.856  21.360  0.00  0.00    +0.000 C 
ATOM     13  C   UNL     1       1.753   4.900  20.311  0.00  0.00    +0.000 C 
ATOM     14  H   UNL     1       1.225   2.613  17.848  0.00  0.00    +0.000 HD
ENDROOT
BRANCH   1  18
ATOM     15  C   UNL     1       1.313   9.855  18.769  0.00  0.00    +0.000 A 
ATOM     16  C   UNL     1       0.970   9.379  20.040  0.00  0.00    +0.000 A 
ATOM     17  C   UNL     1       1.394   8.117  20.490  0.00  0.00    +0.000 A 
ATOM     18  C   UNL     1       2.204   7.295  19.684  0.00  0.00    +0.000 A 
ATOM     19  C   UNL     1       2.497   7.758  18.388  0.00  0.00    +0.000 A 
ATOM     20  C   UNL     1       2.072   9.018  17.940  0.00  0.00    +0.000 A 
BRANCH  15  22
ATOM     21  C   UNL     1      -0.510  11.615  18.894  0.00  0.00    +0.000 C 
ATOM     22  C   UNL     1       0.863  11.235  18.328  0.00  0.00    +0.000 C 
ATOM     23  C   UNL     1       1.901  12.305  18.681  0.00  0.00    +0.000 C 
ENDBRANCH  15  22
ENDBRANCH   1  18
BRANCH   4  24
ATOM     24  O   UNL     1       7.035   4.235  18.058  0.00  0.00    +0.000 OA
ATOM     25  H   UNL     1       7.208   3.773  18.902  0.00  0.00    +0.000 HD
ENDBRANCH   4  24
TORSDOF 3
ENDMDL
MODEL 3
REMARK VINA RESULT:      -9.1      0.772      1.097
REMARK  Name = 
REMARK  5 active torsions:
REMARK  status: ('A' for Active; 'I' for Inactive)
REMARK    1  A    between atoms: C_1  and  C_2
REMARK    2  A    between atoms: C_2  and  C_3
REMARK    3  A    between atoms: C_2  and  C_4
REMARK    4  A    between atoms: C_7  and  C_8
REMARK    5  A    between atoms: C_11  and  O_12
REMARK                            x       y       z     vdW  Elec       q    Type
REMARK                         _______ _______ _______ _____ _____    ______ ____
ROOT
ATOM      1  C   UNL     1       3.047   5.602  19.881  0.00  0.00    +0.000 C 
ATOM      2  C   UNL     1       4.218   5.264  18.976  0.00  0.00    +0.000 A 
ATOM      3  C   UNL     1       5.575   5.210  19.255  0.00  0.00    +0.000 A 
ATOM      4  C   UNL     1       6.440   4.937  18.193  0.00  0.00    +0.000 A 
ATOM      5  C   UNL     1       5.977   4.867  16.874  0.00  0.00    +0.000 A 
ATOM      6  C   UNL     1       4.607   4.805  16.628  0.00  0.00    +0.000 A 
ATOM      7  C   UNL     1       3.751   4.862  17.716  0.00  0.00    +0.000 A 
ATOM      8  C   UNL     1       2.285   4.523  17.801  0.00  0.00    +0.000 C 
ATOM      9  N   UNL     1       1.912   3.271  17.140  0.00  0.00    +0.000 NA
ATOM     10  C   UNL     1       2.305   2.057  17.856  0.00  0.00    +0.000 C 
ATOM     11  C   UNL     1       1.745   2.034  19.270  0.00  0.00    +0.000 C 
ATOM     12  C   UNL     1       2.318   3.195  20.060  0.00  0.00    +0.000 C 
ATOM     13  C   UNL     1       2.049   4.541  19.348  0.00  0.00    +0.000 C 
ATOM     14  H   UNL     1       2.321   3.254  16.209  0.00  0.00    +0.000 HD
ENDROOT
BRANCH   1  18
ATOM     15  C   UNL     1       1.001   9.451  19.352  0.00  0.00    +0.000 A 
ATOM     16  C   UNL     1       1.803   8.929  18.331  0.00  0.00    +0.000 A 
ATOM     17  C   UNL     1       2.521   7.733  18.500  0.00  0.00    +0.000 A 
ATOM     18  C   UNL     1       2.436   7.002  19.701  0.00  0.00    +0.000 A 
ATOM     19  C   UNL     1       1.672   7.563  20.740  0.00  0.00    +0.000 A 
ATOM     20  C   UNL     1       0.956   8.758  20.569  0.00  0.00    +0.000 A 
BRANCH  15  22
ATOM     21  C   UNL     1       1.100  11.884  18.639  0.00  0.00    +0.000 C 
ATOM     22  C   UNL     1       0.216  10.730  19.122  0.00  0.00    +0.000 C 
ATOM     23  C   UNL     1      -0.950  10.508  18.154  0.00  0.00    +0.000 C 
ENDBRANCH  15  22
ENDBRANCH   1  18
BRANCH   4  24
ATOM     24  O   UNL     1       7.754   4.668  18.425  0.00  0.00    +0.000 OA
ATOM     25  H   UNL     1       8.196   4.777  17.561  0.00  0.00    +0.000 HD
ENDBRANCH   4  24
TORSDOF 3
ENDMDL
MODEL 4
REMARK VINA RESULT:      -8.8      2.175      3.753
REMARK  Name = 
REMARK  5 active torsions:
REMARK  status: ('A' for Active; 'I' for Inactive)
REMARK    1  A    between atoms: C_1  and  C_2
REMARK    2  A    between atoms: C_2  and  C_3
REMARK    3  A    between atoms: C_2  and  C_4
REMARK    4  A    between atoms: C_7  and  C_8
REMARK    5  A    between atoms: C_11  and  O_12
REMARK                            x       y       z     vdW  Elec       q    Type
REMARK                         _______ _______ _______ _____ _____    ______ ____
ROOT
ATOM      1  C   UNL     1       2.726   6.373  17.892  0.00  0.00    +0.000 C 
ATOM      2  C   UNL     1       2.516   4.950  18.375  0.00  0.00    +0.000 A 
ATOM      3  C   UNL     1       1.594   3.998  17.971  0.00  0.00    +0.000 A 
ATOM      4  C   UNL     1       1.587   2.779  18.652  0.00  0.00    +0.000 A 
ATOM      5  C   UNL     1       2.372   2.576  19.793  0.00  0.00    +0.000 A 
ATOM      6  C   UNL     1       3.372   3.491  20.112  0.00  0.00    +0.000 A 
ATOM      7  C   UNL     1       3.515   4.604  19.297  0.00  0.00    +0.000 A 
ATOM      8  C   UNL     1       4.657   5.582  19.202  0.00  0.00    +0.000 C 
ATOM      9  N   UNL     1       5.984   4.964  19.170  0.00  0.00    +0.000 NA
ATOM     10  C   UNL     1       6.334   4.326  17.901  0.00  0.00    +0.000 C 
ATOM     11  C   UNL     1       6.235   5.299  16.738  0.00  0.00    +0.000 C 
ATOM     12  C   UNL     1       4.800   5.768  16.592  0.00  0.00    +0.000 C 
ATOM     13  C   UNL     1       4.278   6.382  17.912  0.00  0.00    +0.000 C 
ATOM     14  H   UNL     1       6.047   4.276  19.916  0.00  0.00    +0.000 HD
ENDROOT
BRANCH   1  18
ATOM     15  C   UNL     1       0.945   9.385  20.545  0.00  0.00    +0.000 A 
ATOM     16  C   UNL     1       1.250   9.703  19.217  0.00  0.00    +0.000 A 
ATOM     17  C   UNL     1       1.881   8.778  18.367  0.00  0.00    +0.000 A 
ATOM     18  C   UNL     1       2.206   7.485  18.819  0.00  0.00    +0.000 A 
ATOM     19  C   UNL     1       1.946   7.194  20.171  0.00  0.00    +0.000 A 
ATOM     20  C   UNL     1       1.317   8.120  21.018  0.00  0.00    +0.000 A 
BRANCH  15  22
ATOM     21  C   UNL     1      -0.836  11.188  20.666  0.00  0.00    +0.000 C 
ATOM     22  C   UNL     1       0.236  10.399  21.425  0.00  0.00    +0.000 C 
ATOM     23  C   UNL     1      -0.366   9.739  22.670  0.00  0.00    +0.000 C 
ENDBRANCH  15  22
ENDBRANCH   1  18
BRANCH   4  24
ATOM     24  O   UNL     1       0.857   1.730  18.183  0.00  0.00    +0.000 OA
ATOM     25  H   UNL     1      -0.067   1.923  18.438  0.00  0.00    +0.000 HD
ENDBRANCH   4  24
TORSDOF 3
ENDMDL
MODEL 5
REMARK VINA RESULT:      -8.8      2.364      3.841
REMARK  Name = 
REMARK  5 active torsions:
REMARK  status: ('A' for Active; 'I' for Inactive)
REMARK    1  A    between atoms: C_1  and  C_2
REMARK    2  A    between atoms: C_2  and  C_3
REMARK    3  A    between atoms: C_2  and  C_4
REMARK    4  A    between atoms: C_7  and  C_8
REMARK    5  A    between atoms: C_11  and  O_12
REMARK                            x       y       z     vdW  Elec       q    Type
REMARK                         _______ _______ _______ _____ _____    ______ ____
ROOT
ATOM      1  C   UNL     1       4.218   5.350  18.181  0.00  0.00    +0.000 C 
ATOM      2  C   UNL     1       5.671   5.666  18.484  0.00  0.00    +0.000 A 
ATOM      3  C   UNL     1       6.481   5.233  19.522  0.00  0.00    +0.000 A 
ATOM      4  C   UNL     1       7.775   5.753  19.589  0.00  0.00    +0.000 A 
ATOM      5  C   UNL     1       8.194   6.780  18.735  0.00  0.00    +0.000 A 
ATOM      6  C   UNL     1       7.415   7.117  17.630  0.00  0.00    +0.000 A 
ATOM      7  C   UNL     1       6.220   6.440  17.451  0.00  0.00    +0.000 A 
ATOM      8  C   UNL     1       5.335   6.363  16.232  0.00  0.00    +0.000 C 
ATOM      9  N   UNL     1       6.051   6.130  14.977  0.00  0.00    +0.000 NA
ATOM     10  C   UNL     1       6.540   4.764  14.793  0.00  0.00    +0.000 C 
ATOM     11  C   UNL     1       5.414   3.747  14.895  0.00  0.00    +0.000 C 
ATOM     12  C   UNL     1       4.813   3.796  16.286  0.00  0.00    +0.000 C 
ATOM     13  C   UNL     1       4.341   5.226  16.639  0.00  0.00    +0.000 C 
ATOM     14  H   UNL     1       6.836   6.774  14.919  0.00  0.00    +0.000 HD
ENDROOT
BRANCH   1  18
ATOM     15  C   UNL     1       1.575   8.719  19.152  0.00  0.00    +0.000 A 
ATOM     16  C   UNL     1       1.797   7.701  20.086  0.00  0.00    +0.000 A 
ATOM     17  C   UNL     1       2.584   6.579  19.776  0.00  0.00    +0.000 A 
ATOM     18  C   UNL     1       3.202   6.454  18.516  0.00  0.00    +0.000 A 
ATOM     19  C   UNL     1       2.927   7.455  17.566  0.00  0.00    +0.000 A 
ATOM     20  C   UNL     1       2.140   8.574  17.878  0.00  0.00    +0.000 A 
BRANCH  15  22
ATOM     21  C   UNL     1      -0.345  10.245  18.500  0.00  0.00    +0.000 C 
ATOM     22  C   UNL     1       0.743   9.931  19.533  0.00  0.00    +0.000 C 
ATOM     23  C   UNL     1       0.128   9.775  20.927  0.00  0.00    +0.000 C 
ENDBRANCH  15  22
ENDBRANCH   1  18
BRANCH   4  24
ATOM     24  O   UNL     1       8.688   5.225  20.450  0.00  0.00    +0.000 OA
ATOM     25  H   UNL     1       9.061   4.449  19.987  0.00  0.00    +0.000 HD
ENDBRANCH   4  24
TORSDOF 3
ENDMDL
MODEL 6
REMARK VINA RESULT:      -8.7      2.281      3.886
REMARK  Name = 
REMARK  5 active torsions:
REMARK  status: ('A' for Active; 'I' for Inactive)
REMARK    1  A    between atoms: C_1  and  C_2
REMARK    2  A    between atoms: C_2  and  C_3
REMARK    3  A    between atoms: C_2  and  C_4
REMARK    4  A    between atoms: C_7  and  C_8
REMARK    5  A    between atoms: C_11  and  O_12
REMARK                            x       y       z     vdW  Elec       q    Type
REMARK                         _______ _______ _______ _____ _____    ______ ____
ROOT
ATOM      1  C   UNL     1       3.313   6.314  17.487  0.00  0.00    +0.000 C 
ATOM      2  C   UNL     1       3.341   4.877  17.973  0.00  0.00    +0.000 A 
ATOM      3  C   UNL     1       2.580   3.787  17.582  0.00  0.00    +0.000 A 
ATOM      4  C   UNL     1       2.778   2.585  18.264  0.00  0.00    +0.000 A 
ATOM      5  C   UNL     1       3.600   2.514  19.395  0.00  0.00    +0.000 A 
ATOM      6  C   UNL     1       4.443   3.580  19.700  0.00  0.00    +0.000 A 
ATOM      7  C   UNL     1       4.394   4.699  18.883  0.00  0.00    +0.000 A 
ATOM      8  C   UNL     1       5.363   5.848  18.773  0.00  0.00    +0.000 C 
ATOM      9  N   UNL     1       6.771   5.453  18.725  0.00  0.00    +0.000 NA
ATOM     10  C   UNL     1       7.205   4.876  17.452  0.00  0.00    +0.000 C 
ATOM     11  C   UNL     1       6.935   5.817  16.289  0.00  0.00    +0.000 C 
ATOM     12  C   UNL     1       5.442   6.048  16.161  0.00  0.00    +0.000 C 
ATOM     13  C   UNL     1       4.843   6.573  17.487  0.00  0.00    +0.000 C 
ATOM     14  H   UNL     1       6.954   4.786  19.471  0.00  0.00    +0.000 HD
ENDROOT
BRANCH   1  18
ATOM     15  C   UNL     1       1.091   9.021  20.136  0.00  0.00    +0.000 A 
ATOM     16  C   UNL     1       1.421   9.416  18.835  0.00  0.00    +0.000 A 
ATOM     17  C   UNL     1       2.189   8.596  17.991  0.00  0.00    +0.000 A 
ATOM     18  C   UNL     1       2.632   7.330  18.419  0.00  0.00    +0.000 A 
ATOM     19  C   UNL     1       2.342   6.965  19.747  0.00  0.00    +0.000 A 
ATOM     20  C   UNL     1       1.576   7.787  20.589  0.00  0.00    +0.000 A 
BRANCH  15  22
ATOM     21  C   UNL     1       0.188   9.452  22.468  0.00  0.00    +0.000 C 
ATOM     22  C   UNL     1       0.235   9.920  21.010  0.00  0.00    +0.000 C 
ATOM     23  C   UNL     1       0.692  11.380  20.931  0.00  0.00    +0.000 C 
ENDBRANCH  15  22
ENDBRANCH   1  18
BRANCH   4  24
ATOM     24  O   UNL     1       2.222   1.430  17.805  0.00  0.00    +0.000 OA
ATOM     25  H   UNL     1       1.711   1.688  17.012  0.00  0.00    +0.000 HD
ENDBRANCH   4  24
TORSDOF 3
ENDMDL
MODEL 7
REMARK VINA RESULT:      -8.5      2.463      3.608
REMARK  Name = 
REMARK  5 active torsions:
REMARK  status: ('A' for Active; 'I' for Inactive)
REMARK    1  A    between atoms: C_1  and  C_2
REMARK    2  A    between atoms: C_2  and  C_3
REMARK    3  A    between atoms: C_2  and  C_4
REMARK    4  A    between atoms: C_7  and  C_8
REMARK    5  A    between atoms: C_11  and  O_12
REMARK                            x       y       z     vdW  Elec       q    Type
REMARK                         _______ _______ _______ _____ _____    ______ ____
ROOT
ATOM      1  C   UNL     1       4.103   5.664  18.230  0.00  0.00    +0.000 C 
ATOM      2  C   UNL     1       5.579   5.829  18.543  0.00  0.00    +0.000 A 
ATOM      3  C   UNL     1       6.320   5.368  19.619  0.00  0.00    +0.000 A 
ATOM      4  C   UNL     1       7.665   5.737  19.682  0.00  0.00    +0.000 A 
ATOM      5  C   UNL     1       8.211   6.657  18.780  0.00  0.00    +0.000 A 
ATOM      6  C   UNL     1       7.491   7.016  17.642  0.00  0.00    +0.000 A 
ATOM      7  C   UNL     1       6.227   6.472  17.478  0.00  0.00    +0.000 A 
ATOM      8  C   UNL     1       5.356   6.426  16.249  0.00  0.00    +0.000 C 
ATOM      9  N   UNL     1       6.055   6.038  15.023  0.00  0.00    +0.000 NA
ATOM     10  C   UNL     1       6.385   4.616  14.927  0.00  0.00    +0.000 C 
ATOM     11  C   UNL     1       5.148   3.743  15.065  0.00  0.00    +0.000 C 
ATOM     12  C   UNL     1       4.538   3.943  16.439  0.00  0.00    +0.000 C 
ATOM     13  C   UNL     1       4.231   5.436  16.700  0.00  0.00    +0.000 C 
ATOM     14  H   UNL     1       6.911   6.582  14.943  0.00  0.00    +0.000 HD
ENDROOT
BRANCH   1  18
ATOM     15  C   UNL     1       1.308   8.976  18.942  0.00  0.00    +0.000 A 
ATOM     16  C   UNL     1       1.985   8.870  17.722  0.00  0.00    +0.000 A 
ATOM     17  C   UNL     1       2.934   7.859  17.494  0.00  0.00    +0.000 A 
ATOM     18  C   UNL     1       3.218   6.897  18.481  0.00  0.00    +0.000 A 
ATOM     19  C   UNL     1       2.573   7.044  19.724  0.00  0.00    +0.000 A 
ATOM     20  C   UNL     1       1.627   8.056  19.949  0.00  0.00    +0.000 A 
BRANCH  15  22
ATOM     21  C   UNL     1      -0.798  10.067  18.042  0.00  0.00    +0.000 C 
ATOM     22  C   UNL     1       0.268  10.063  19.142  0.00  0.00    +0.000 C 
ATOM     23  C   UNL     1      -0.388   9.966  20.523  0.00  0.00    +0.000 C 
ENDBRANCH  15  22
ENDBRANCH   1  18
BRANCH   4  24
ATOM     24  O   UNL     1       8.499   5.159  20.590  0.00  0.00    +0.000 OA
ATOM     25  H   UNL     1       8.736   4.292  20.207  0.00  0.00    +0.000 HD
ENDBRANCH   4  24
TORSDOF 3
ENDMDL
MODEL 8
REMARK VINA RESULT:      -8.5      2.237      3.876
REMARK  Name = 
REMARK  5 active torsions:
REMARK  status: ('A' for Active; 'I' for Inactive)
REMARK    1  A    between atoms: C_1  and  C_2
REMARK    2  A    between atoms: C_2  and  C_3
REMARK    3  A    between atoms: C_2  and  C_4
REMARK    4  A    between atoms: C_7  and  C_8
REMARK    5  A    between atoms: C_11  and  O_12
REMARK                            x       y       z     vdW  Elec       q    Type
REMARK                         _______ _______ _______ _____ _____    ______ ____
ROOT
ATOM      1  C   UNL     1       3.180   6.385  17.698  0.00  0.00    +0.000 C 
ATOM      2  C   UNL     1       3.136   4.901  18.014  0.00  0.00    +0.000 A 
ATOM      3  C   UNL     1       2.432   3.878  17.399  0.00  0.00    +0.000 A 
ATOM      4  C   UNL     1       2.530   2.602  17.957  0.00  0.00    +0.000 A 
ATOM      5  C   UNL     1       3.187   2.387  19.174  0.00  0.00    +0.000 A 
ATOM      6  C   UNL     1       3.984   3.394  19.713  0.00  0.00    +0.000 A 
ATOM      7  C   UNL     1       4.052   4.599  19.032  0.00  0.00    +0.000 A 
ATOM      8  C   UNL     1       5.031   5.735  19.189  0.00  0.00    +0.000 C 
ATOM      9  N   UNL     1       6.431   5.320  19.289  0.00  0.00    +0.000 NA
ATOM     10  C   UNL     1       7.034   4.884  18.029  0.00  0.00    +0.000 C 
ATOM     11  C   UNL     1       6.931   5.958  16.957  0.00  0.00    +0.000 C 
ATOM     12  C   UNL     1       5.470   6.231  16.654  0.00  0.00    +0.000 C 
ATOM     13  C   UNL     1       4.696   6.612  17.937  0.00  0.00    +0.000 C 
ATOM     14  H   UNL     1       6.507   4.569  19.970  0.00  0.00    +0.000 HD
ENDROOT
BRANCH   1  18
ATOM     15  C   UNL     1       1.170   9.195  20.408  0.00  0.00    +0.000 A 
ATOM     16  C   UNL     1       1.512   7.911  20.846  0.00  0.00    +0.000 A 
ATOM     17  C   UNL     1       2.095   6.971  19.979  0.00  0.00    +0.000 A 
ATOM     18  C   UNL     1       2.380   7.300  18.641  0.00  0.00    +0.000 A 
ATOM     19  C   UNL     1       1.982   8.574  18.195  0.00  0.00    +0.000 A 
ATOM     20  C   UNL     1       1.399   9.511  19.063  0.00  0.00    +0.000 A 
BRANCH  15  22
ATOM     21  C   UNL     1      -0.590  10.988  20.767  0.00  0.00    +0.000 C 
ATOM     22  C   UNL     1       0.569  10.194  21.380  0.00  0.00    +0.000 C 
ATOM     23  C   UNL     1       0.125   9.516  22.680  0.00  0.00    +0.000 C 
ENDBRANCH  15  22
ENDBRANCH   1  18
BRANCH   4  24
ATOM     24  O   UNL     1       2.038   1.519  17.295  0.00  0.00    +0.000 OA
ATOM     25  H   UNL     1       2.439   1.556  16.405  0.00  0.00    +0.000 HD
ENDBRANCH   4  24
TORSDOF 3
ENDMDL
MODEL 9
REMARK VINA RESULT:      -8.1      1.370      1.878
REMARK  Name = 
REMARK  5 active torsions:
REMARK  status: ('A' for Active; 'I' for Inactive)
REMARK    1  A    between atoms: C_1  and  C_2
REMARK    2  A    between atoms: C_2  and  C_3
REMARK    3  A    between atoms: C_2  and  C_4
REMARK    4  A    between atoms: C_7  and  C_8
REMARK    5  A    between atoms: C_11  and  O_12
REMARK                            x       y       z     vdW  Elec       q    Type
REMARK                         _______ _______ _______ _____ _____    ______ ____
ROOT
ATOM      1  C   UNL     1       4.055   5.525  19.097  0.00  0.00    +0.000 C 
ATOM      2  C   UNL     1       4.773   5.152  17.813  0.00  0.00    +0.000 A 
ATOM      3  C   UNL     1       6.074   5.408  17.411  0.00  0.00    +0.000 A 
ATOM      4  C   UNL     1       6.444   5.001  16.128  0.00  0.00    +0.000 A 
ATOM      5  C   UNL     1       5.504   4.491  15.225  0.00  0.00    +0.000 A 
ATOM      6  C   UNL     1       4.237   4.131  15.680  0.00  0.00    +0.000 A 
ATOM      7  C   UNL     1       3.947   4.343  17.019  0.00  0.00    +0.000 A 
ATOM      8  C   UNL     1       2.815   3.798  17.852  0.00  0.00    +0.000 C 
ATOM      9  N   UNL     1       2.562   2.368  17.670  0.00  0.00    +0.000 NA
ATOM     10  C   UNL     1       3.544   1.485  18.302  0.00  0.00    +0.000 C 
ATOM     11  C   UNL     1       3.669   1.761  19.792  0.00  0.00    +0.000 C 
ATOM     12  C   UNL     1       4.175   3.175  20.004  0.00  0.00    +0.000 C 
ATOM     13  C   UNL     1       3.265   4.204  19.294  0.00  0.00    +0.000 C 
ATOM     14  H   UNL     1       2.523   2.161  16.675  0.00  0.00    +0.000 HD
ENDROOT
BRANCH   1  18
ATOM     15  C   UNL     1       1.483   9.076  18.854  0.00  0.00    +0.000 A 
ATOM     16  C   UNL     1       1.433   8.240  19.976  0.00  0.00    +0.000 A 
ATOM     17  C   UNL     1       2.197   7.063  20.049  0.00  0.00    +0.000 A 
ATOM     18  C   UNL     1       3.062   6.695  19.001  0.00  0.00    +0.000 A 
ATOM     19  C   UNL     1       3.064   7.512  17.855  0.00  0.00    +0.000 A 
ATOM     20  C   UNL     1       2.300   8.687  17.784  0.00  0.00    +0.000 A 
BRANCH  15  22
ATOM     21  C   UNL     1      -0.665  10.186  18.086  0.00  0.00    +0.000 C 
ATOM     22  C   UNL     1       0.667  10.356  18.824  0.00  0.00    +0.000 C 
ATOM     23  C   UNL     1       0.432  10.906  20.234  0.00  0.00    +0.000 C 
ENDBRANCH  15  22
ENDBRANCH   1  18
BRANCH   4  24
ATOM     24  O   UNL     1       7.750   5.033  15.742  0.00  0.00    +0.000 OA
ATOM     25  H   UNL     1       8.262   4.829  16.549  0.00  0.00    +0.000 HD
ENDBRANCH   4  24
TORSDOF 3
ENDMDL
