MODEL 1
REMARK VINA RESULT:      -7.4      0.000      0.000
REMARK  Name = 
REMARK  2 active torsions:
REMARK  status: ('A' for Active; 'I' for Inactive)
REMARK    1  A    between atoms: N_7  and  C_8
REMARK    2  A    between atoms: C_8  and  C_9
REMARK                            x       y       z     vdW  Elec       q    Type
REMARK                         _______ _______ _______ _____ _____    ______ ____
ROOT
ATOM      1  O   UNL     1       8.065   7.942  17.242  0.00  0.00    +0.000 OA
ATOM      2  C   UNL     1       7.391   6.960  17.527  0.00  0.00    +0.000 C 
ATOM      3  C   UNL     1       7.515   6.202  18.882  0.00  0.00    +0.000 C 
ATOM      4  O   UNL     1       6.540   5.213  19.240  0.00  0.00    +0.000 OA
ATOM      5  C   UNL     1       6.072   4.543  18.074  0.00  0.00    +0.000 C 
ATOM      6  C   UNL     1       4.887   3.611  18.296  0.00  0.00    +0.000 C 
ATOM      7  N   UNL     1       4.082   3.646  17.036  0.00  0.00    +0.000 NA
ATOM      8  C   UNL     1       4.693   4.693  16.178  0.00  0.00    +0.000 C 
ATOM      9  C   UNL     1       5.466   5.576  17.139  0.00  0.00    +0.000 C 
ATOM     10  N   UNL     1       6.497   6.429  16.614  0.00  0.00    +0.000 N 
ATOM     11  H   UNL     1       6.331   7.013  15.803  0.00  0.00    +0.000 HD
ENDROOT
BRANCH   7  12
ATOM     12  C   UNL     1       2.675   3.941  17.371  0.00  0.00    +0.000 C 
BRANCH  12  13
ATOM     13  C   UNL     1       2.339   3.817  18.844  0.00  0.00    +0.000 A 
ATOM     14  C   UNL     1       2.080   2.535  19.367  0.00  0.00    +0.000 A 
ATOM     15  C   UNL     1       1.862   2.342  20.733  0.00  0.00    +0.000 A 
ATOM     16  C   UNL     1       1.914   3.424  21.605  0.00  0.00    +0.000 A 
ATOM     17  C   UNL     1       2.143   4.705  21.106  0.00  0.00    +0.000 A 
ATOM     18  C   UNL     1       2.336   4.906  19.733  0.00  0.00    +0.000 A 
ATOM     19 BR   UNL     1       2.550   6.707  19.162  0.00  0.00    +0.000 Br
ENDBRANCH  12  13
ENDBRANCH   7  12
TORSDOF 2
ENDMDL
MODEL 2
REMARK VINA RESULT:      -7.1      2.529      3.186
REMARK  Name = 
REMARK  2 active torsions:
REMARK  status: ('A' for Active; 'I' for Inactive)
REMARK    1  A    between atoms: N_7  and  C_8
REMARK    2  A    between atoms: C_8  and  C_9
REMARK                            x       y       z     vdW  Elec       q    Type
REMARK                         _______ _______ _______ _____ _____    ______ ____
ROOT
ATOM      1  O   UNL     1       8.606   5.449  13.566  0.00  0.00    +0.000 OA
ATOM      2  C   UNL     1       7.587   5.274  14.221  0.00  0.00    +0.000 C 
ATOM      3  C   UNL     1       6.353   4.487  13.689  0.00  0.00    +0.000 C 
ATOM      4  O   UNL     1       5.294   4.123  14.585  0.00  0.00    +0.000 OA
ATOM      5  C   UNL     1       5.140   5.122  15.589  0.00  0.00    +0.000 C 
ATOM      6  C   UNL     1       4.186   4.758  16.721  0.00  0.00    +0.000 C 
ATOM      7  N   UNL     1       4.713   5.431  17.948  0.00  0.00    +0.000 NA
ATOM      8  C   UNL     1       6.020   6.026  17.570  0.00  0.00    +0.000 C 
ATOM      9  C   UNL     1       6.455   5.253  16.340  0.00  0.00    +0.000 C 
ATOM     10  N   UNL     1       7.455   5.828  15.482  0.00  0.00    +0.000 N 
ATOM     11  H   UNL     1       8.312   6.211  15.862  0.00  0.00    +0.000 HD
ENDROOT
BRANCH   7  12
ATOM     12  C   UNL     1       4.838   4.433  19.029  0.00  0.00    +0.000 C 
BRANCH  12  13
ATOM     13  C   UNL     1       3.519   3.977  19.620  0.00  0.00    +0.000 A 
ATOM     14  C   UNL     1       2.783   4.890  20.402  0.00  0.00    +0.000 A 
ATOM     15  C   UNL     1       1.516   4.564  20.892  0.00  0.00    +0.000 A 
ATOM     16  C   UNL     1       0.954   3.327  20.598  0.00  0.00    +0.000 A 
ATOM     17  C   UNL     1       1.676   2.399  19.849  0.00  0.00    +0.000 A 
ATOM     18  C   UNL     1       2.957   2.712  19.378  0.00  0.00    +0.000 A 
ATOM     19 BR   UNL     1       3.877   1.334  18.444  0.00  0.00    +0.000 Br
ENDBRANCH  12  13
ENDBRANCH   7  12
TORSDOF 2
ENDMDL
MODEL 3
REMARK VINA RESULT:      -7.1      2.060      2.752
REMARK  Name = 
REMARK  2 active torsions:
REMARK  status: ('A' for Active; 'I' for Inactive)
REMARK    1  A    between atoms: N_7  and  C_8
REMARK    2  A    between atoms: C_8  and  C_9
REMARK                            x       y       z     vdW  Elec       q    Type
REMARK                         _______ _______ _______ _____ _____    ______ ____
ROOT
ATOM      1  O   UNL     1       8.578   4.007  17.791  0.00  0.00    +0.000 OA
ATOM      2  C   UNL     1       7.580   4.700  17.640  0.00  0.00    +0.000 C 
ATOM      3  C   UNL     1       7.303   5.530  16.352  0.00  0.00    +0.000 C 
ATOM      4  O   UNL     1       6.015   6.127  16.148  0.00  0.00    +0.000 OA
ATOM      5  C   UNL     1       5.455   6.518  17.398  0.00  0.00    +0.000 C 
ATOM      6  C   UNL     1       4.004   6.981  17.340  0.00  0.00    +0.000 C 
ATOM      7  N   UNL     1       3.386   6.588  18.644  0.00  0.00    +0.000 NA
ATOM      8  C   UNL     1       4.401   5.779  19.363  0.00  0.00    +0.000 C 
ATOM      9  C   UNL     1       5.339   5.285  18.278  0.00  0.00    +0.000 C 
ATOM     10  N   UNL     1       6.648   4.825  18.655  0.00  0.00    +0.000 N 
ATOM     11  H   UNL     1       6.774   4.174  19.420  0.00  0.00    +0.000 HD
ENDROOT
BRANCH   7  12
ATOM     12  C   UNL     1       2.145   5.833  18.381  0.00  0.00    +0.000 C 
BRANCH  12  13
ATOM     13  C   UNL     1       1.982   4.579  19.216  0.00  0.00    +0.000 A 
ATOM     14  C   UNL     1       1.563   4.714  20.555  0.00  0.00    +0.000 A 
ATOM     15  C   UNL     1       1.300   3.593  21.346  0.00  0.00    +0.000 A 
ATOM     16  C   UNL     1       1.434   2.317  20.812  0.00  0.00    +0.000 A 
ATOM     17  C   UNL     1       1.872   2.160  19.498  0.00  0.00    +0.000 A 
ATOM     18  C   UNL     1       2.163   3.280  18.710  0.00  0.00    +0.000 A 
ATOM     19 BR   UNL     1       2.837   2.937  16.965  0.00  0.00    +0.000 Br
ENDBRANCH  12  13
ENDBRANCH   7  12
TORSDOF 2
ENDMDL
MODEL 4
REMARK VINA RESULT:      -7.0      2.345      2.957
REMARK  Name = 
REMARK  2 active torsions:
REMARK  status: ('A' for Active; 'I' for Inactive)
REMARK    1  A    between atoms: N_7  and  C_8
REMARK    2  A    between atoms: C_8  and  C_9
REMARK                            x       y       z     vdW  Elec       q    Type
REMARK                         _______ _______ _______ _____ _____    ______ ____
ROOT
ATOM      1  O   UNL     1       5.845   3.695  12.929  0.00  0.00    +0.000 OA
ATOM      2  C   UNL     1       6.159   4.030  14.064  0.00  0.00    +0.000 C 
ATOM      3  C   UNL     1       7.328   5.012  14.374  0.00  0.00    +0.000 C 
ATOM      4  O   UNL     1       7.488   5.539  15.698  0.00  0.00    +0.000 OA
ATOM      5  C   UNL     1       7.077   4.574  16.661  0.00  0.00    +0.000 C 
ATOM      6  C   UNL     1       7.007   5.083  18.096  0.00  0.00    +0.000 C 
ATOM      7  N   UNL     1       5.899   4.325  18.756  0.00  0.00    +0.000 NA
ATOM      8  C   UNL     1       5.244   3.527  17.690  0.00  0.00    +0.000 C 
ATOM      9  C   UNL     1       5.622   4.225  16.398  0.00  0.00    +0.000 C 
ATOM     10  N   UNL     1       5.506   3.499  15.163  0.00  0.00    +0.000 N 
ATOM     11  H   UNL     1       4.667   2.978  14.938  0.00  0.00    +0.000 HD
ENDROOT
BRANCH   7  12
ATOM     12  C   UNL     1       4.974   5.283  19.394  0.00  0.00    +0.000 C 
BRANCH  12  13
ATOM     13  C   UNL     1       3.624   4.703  19.765  0.00  0.00    +0.000 A 
ATOM     14  C   UNL     1       3.590   3.483  20.470  0.00  0.00    +0.000 A 
ATOM     15  C   UNL     1       2.384   2.947  20.927  0.00  0.00    +0.000 A 
ATOM     16  C   UNL     1       1.191   3.625  20.703  0.00  0.00    +0.000 A 
ATOM     17  C   UNL     1       1.200   4.820  19.986  0.00  0.00    +0.000 A 
ATOM     18  C   UNL     1       2.403   5.348  19.503  0.00  0.00    +0.000 A 
ATOM     19 BR   UNL     1       2.277   6.935  18.463  0.00  0.00    +0.000 Br
ENDBRANCH  12  13
ENDBRANCH   7  12
TORSDOF 2
ENDMDL
MODEL 5
REMARK VINA RESULT:      -7.0      1.507      2.165
REMARK  Name = 
REMARK  2 active torsions:
REMARK  status: ('A' for Active; 'I' for Inactive)
REMARK    1  A    between atoms: N_7  and  C_8
REMARK    2  A    between atoms: C_8  and  C_9
REMARK                            x       y       z     vdW  Elec       q    Type
REMARK                         _______ _______ _______ _____ _____    ______ ____
ROOT
ATOM      1  O   UNL     1       8.015   7.308  16.653  0.00  0.00    +0.000 OA
ATOM      2  C   UNL     1       7.285   6.490  17.198  0.00  0.00    +0.000 C 
ATOM      3  C   UNL     1       7.351   6.165  18.720  0.00  0.00    +0.000 C 
ATOM      4  O   UNL     1       6.320   5.376  19.329  0.00  0.00    +0.000 OA
ATOM      5  C   UNL     1       5.830   4.413  18.401  0.00  0.00    +0.000 C 
ATOM      6  C   UNL     1       4.593   3.647  18.857  0.00  0.00    +0.000 C 
ATOM      7  N   UNL     1       3.807   3.345  17.621  0.00  0.00    +0.000 NA
ATOM      8  C   UNL     1       4.484   4.057  16.509  0.00  0.00    +0.000 C 
ATOM      9  C   UNL     1       5.292   5.148  17.186  0.00  0.00    +0.000 C 
ATOM     10  N   UNL     1       6.375   5.755  16.459  0.00  0.00    +0.000 N 
ATOM     11  H   UNL     1       6.251   6.078  15.508  0.00  0.00    +0.000 HD
ENDROOT
BRANCH   7  12
ATOM     12  C   UNL     1       2.414   3.794  17.815  0.00  0.00    +0.000 C 
BRANCH  12  13
ATOM     13  C   UNL     1       2.256   4.967  18.761  0.00  0.00    +0.000 A 
ATOM     14  C   UNL     1       2.519   6.263  18.273  0.00  0.00    +0.000 A 
ATOM     15  C   UNL     1       2.297   7.392  19.065  0.00  0.00    +0.000 A 
ATOM     16  C   UNL     1       1.794   7.251  20.353  0.00  0.00    +0.000 A 
ATOM     17  C   UNL     1       1.552   5.977  20.865  0.00  0.00    +0.000 A 
ATOM     18  C   UNL     1       1.798   4.841  20.084  0.00  0.00    +0.000 A 
ATOM     19 BR   UNL     1       1.514   3.158  20.922  0.00  0.00    +0.000 Br
ENDBRANCH  12  13
ENDBRANCH   7  12
TORSDOF 2
ENDMDL
MODEL 6
REMARK VINA RESULT:      -6.9      2.124      2.670
REMARK  Name = 
REMARK  2 active torsions:
REMARK  status: ('A' for Active; 'I' for Inactive)
REMARK    1  A    between atoms: N_7  and  C_8
REMARK    2  A    between atoms: C_8  and  C_9
REMARK                            x       y       z     vdW  Elec       q    Type
REMARK                         _______ _______ _______ _____ _____    ______ ____
ROOT
ATOM      1  O   UNL     1       8.434   5.237  13.798  0.00  0.00    +0.000 OA
ATOM      2  C   UNL     1       7.420   5.196  14.483  0.00  0.00    +0.000 C 
ATOM      3  C   UNL     1       6.153   4.382  14.088  0.00  0.00    +0.000 C 
ATOM      4  O   UNL     1       5.098   4.192  15.041  0.00  0.00    +0.000 OA
ATOM      5  C   UNL     1       4.994   5.332  15.888  0.00  0.00    +0.000 C 
ATOM      6  C   UNL     1       4.047   5.173  17.072  0.00  0.00    +0.000 C 
ATOM      7  N   UNL     1       4.616   6.002  18.179  0.00  0.00    +0.000 NA
ATOM      8  C   UNL     1       5.935   6.488  17.702  0.00  0.00    +0.000 C 
ATOM      9  C   UNL     1       6.324   5.527  16.595  0.00  0.00    +0.000 C 
ATOM     10  N   UNL     1       7.328   5.935  15.650  0.00  0.00    +0.000 N 
ATOM     11  H   UNL     1       8.203   6.340  15.958  0.00  0.00    +0.000 HD
ENDROOT
BRANCH   7  12
ATOM     12  C   UNL     1       4.727   5.171  19.394  0.00  0.00    +0.000 C 
BRANCH  12  13
ATOM     13  C   UNL     1       3.453   4.446  19.780  0.00  0.00    +0.000 A 
ATOM     14  C   UNL     1       3.459   3.037  19.791  0.00  0.00    +0.000 A 
ATOM     15  C   UNL     1       2.349   2.313  20.232  0.00  0.00    +0.000 A 
ATOM     16  C   UNL     1       1.218   2.981  20.685  0.00  0.00    +0.000 A 
ATOM     17  C   UNL     1       1.180   4.374  20.658  0.00  0.00    +0.000 A 
ATOM     18  C   UNL     1       2.281   5.104  20.192  0.00  0.00    +0.000 A 
ATOM     19 BR   UNL     1       2.077   6.993  20.120  0.00  0.00    +0.000 Br
ENDBRANCH  12  13
ENDBRANCH   7  12
TORSDOF 2
ENDMDL
MODEL 7
REMARK VINA RESULT:      -6.8      0.960      1.067
REMARK  Name = 
REMARK  2 active torsions:
REMARK  status: ('A' for Active; 'I' for Inactive)
REMARK    1  A    between atoms: N_7  and  C_8
REMARK    2  A    between atoms: C_8  and  C_9
REMARK                            x       y       z     vdW  Elec       q    Type
REMARK                         _______ _______ _______ _____ _____    ______ ____
ROOT
ATOM      1  O   UNL     1       8.580   8.492  17.779  0.00  0.00    +0.000 OA
ATOM      2  C   UNL     1       7.796   7.562  17.918  0.00  0.00    +0.000 C 
ATOM      3  C   UNL     1       7.928   6.492  19.042  0.00  0.00    +0.000 C 
ATOM      4  O   UNL     1       6.854   5.574  19.286  0.00  0.00    +0.000 OA
ATOM      5  C   UNL     1       6.187   5.266  18.066  0.00  0.00    +0.000 C 
ATOM      6  C   UNL     1       4.902   4.461  18.217  0.00  0.00    +0.000 C 
ATOM      7  N   UNL     1       4.000   4.896  17.106  0.00  0.00    +0.000 NA
ATOM      8  C   UNL     1       4.680   6.034  16.437  0.00  0.00    +0.000 C 
ATOM      9  C   UNL     1       5.659   6.559  17.469  0.00  0.00    +0.000 C 
ATOM     10  N   UNL     1       6.754   7.379  17.026  0.00  0.00    +0.000 N 
ATOM     11  H   UNL     1       6.604   8.156  16.394  0.00  0.00    +0.000 HD
ENDROOT
BRANCH   7  12
ATOM     12  C   UNL     1       2.689   5.274  17.670  0.00  0.00    +0.000 C 
BRANCH  12  13
ATOM     13  C   UNL     1       2.165   4.330  18.733  0.00  0.00    +0.000 A 
ATOM     14  C   UNL     1       2.037   2.964  18.413  0.00  0.00    +0.000 A 
ATOM     15  C   UNL     1       1.654   2.029  19.378  0.00  0.00    +0.000 A 
ATOM     16  C   UNL     1       1.408   2.437  20.684  0.00  0.00    +0.000 A 
ATOM     17  C   UNL     1       1.504   3.787  21.016  0.00  0.00    +0.000 A 
ATOM     18  C   UNL     1       1.861   4.732  20.046  0.00  0.00    +0.000 A 
ATOM     19 BR   UNL     1       1.871   6.552  20.597  0.00  0.00    +0.000 Br
ENDBRANCH  12  13
ENDBRANCH   7  12
TORSDOF 2
ENDMDL
MODEL 8
REMARK VINA RESULT:      -6.7      1.870      2.412
REMARK  Name = 
REMARK  2 active torsions:
REMARK  status: ('A' for Active; 'I' for Inactive)
REMARK    1  A    between atoms: N_7  and  C_8
REMARK    2  A    between atoms: C_8  and  C_9
REMARK                            x       y       z     vdW  Elec       q    Type
REMARK                         _______ _______ _______ _____ _____    ______ ____
ROOT
ATOM      1  O   UNL     1       8.622   3.948  17.811  0.00  0.00    +0.000 OA
ATOM      2  C   UNL     1       7.637   4.641  17.593  0.00  0.00    +0.000 C 
ATOM      3  C   UNL     1       7.458   5.490  16.299  0.00  0.00    +0.000 C 
ATOM      4  O   UNL     1       6.188   6.088  16.006  0.00  0.00    +0.000 OA
ATOM      5  C   UNL     1       5.533   6.461  17.214  0.00  0.00    +0.000 C 
ATOM      6  C   UNL     1       4.089   6.922  17.051  0.00  0.00    +0.000 C 
ATOM      7  N   UNL     1       3.373   6.511  18.297  0.00  0.00    +0.000 NA
ATOM      8  C   UNL     1       4.332   5.692  19.081  0.00  0.00    +0.000 C 
ATOM      9  C   UNL     1       5.352   5.215  18.064  0.00  0.00    +0.000 C 
ATOM     10  N   UNL     1       6.629   4.751  18.535  0.00  0.00    +0.000 N 
ATOM     11  H   UNL     1       6.697   4.089  19.299  0.00  0.00    +0.000 HD
ENDROOT
BRANCH   7  12
ATOM     12  C   UNL     1       2.158   5.757  17.929  0.00  0.00    +0.000 C 
BRANCH  12  13
ATOM     13  C   UNL     1       1.815   4.617  18.866  0.00  0.00    +0.000 A 
ATOM     14  C   UNL     1       1.867   3.300  18.367  0.00  0.00    +0.000 A 
ATOM     15  C   UNL     1       1.659   2.202  19.205  0.00  0.00    +0.000 A 
ATOM     16  C   UNL     1       1.411   2.396  20.559  0.00  0.00    +0.000 A 
ATOM     17  C   UNL     1       1.330   3.691  21.068  0.00  0.00    +0.000 A 
ATOM     18  C   UNL     1       1.511   4.796  20.227  0.00  0.00    +0.000 A 
ATOM     19 BR   UNL     1       1.288   6.510  21.019  0.00  0.00    +0.000 Br
ENDBRANCH  12  13
ENDBRANCH   7  12
TORSDOF 2
ENDMDL
MODEL 9
REMARK VINA RESULT:      -6.7      2.872      5.711
REMARK  Name = 
REMARK  2 active torsions:
REMARK  status: ('A' for Active; 'I' for Inactive)
REMARK    1  A    between atoms: N_7  and  C_8
REMARK    2  A    between atoms: C_8  and  C_9
REMARK                            x       y       z     vdW  Elec       q    Type
REMARK                         _______ _______ _______ _____ _____    ______ ____
ROOT
ATOM      1  O   UNL     1       0.246   1.867  18.448  0.00  0.00    +0.000 OA
ATOM      2  C   UNL     1       1.249   2.551  18.599  0.00  0.00    +0.000 C 
ATOM      3  C   UNL     1       2.648   1.956  18.939  0.00  0.00    +0.000 C 
ATOM      4  O   UNL     1       3.815   2.787  18.871  0.00  0.00    +0.000 OA
ATOM      5  C   UNL     1       3.486   4.122  19.240  0.00  0.00    +0.000 C 
ATOM      6  C   UNL     1       4.592   5.146  19.014  0.00  0.00    +0.000 C 
ATOM      7  N   UNL     1       3.911   6.435  18.681  0.00  0.00    +0.000 NA
ATOM      8  C   UNL     1       2.465   6.123  18.554  0.00  0.00    +0.000 C 
ATOM      9  C   UNL     1       2.413   4.630  18.291  0.00  0.00    +0.000 C 
ATOM     10  N   UNL     1       1.179   3.932  18.526  0.00  0.00    +0.000 N 
ATOM     11  H   UNL     1       0.300   4.287  18.169  0.00  0.00    +0.000 HD
ENDROOT
BRANCH   7  12
ATOM     12  C   UNL     1       4.483   6.973  17.431  0.00  0.00    +0.000 C 
BRANCH  12  13
ATOM     13  C   UNL     1       5.349   5.995  16.662  0.00  0.00    +0.000 A 
ATOM     14  C   UNL     1       4.722   5.102  15.770  0.00  0.00    +0.000 A 
ATOM     15  C   UNL     1       5.471   4.245  14.961  0.00  0.00    +0.000 A 
ATOM     16  C   UNL     1       6.859   4.274  15.014  0.00  0.00    +0.000 A 
ATOM     17  C   UNL     1       7.499   5.132  15.907  0.00  0.00    +0.000 A 
ATOM     18  C   UNL     1       6.752   5.974  16.739  0.00  0.00    +0.000 A 
ATOM     19 BR   UNL     1       7.734   7.032  17.977  0.00  0.00    +0.000 Br
ENDBRANCH  12  13
ENDBRANCH   7  12
TORSDOF 2
ENDMDL
