MODEL 1
REMARK VINA RESULT:      -8.6      0.000      0.000
REMARK  Name = 
REMARK  5 active torsions:
REMARK  status: ('A' for Active; 'I' for Inactive)
REMARK    1  A    between atoms: C_1  and  C_2
REMARK    2  A    between atoms: C_2  and  N_3
REMARK    3  A    between atoms: C_12  and  S_13
REMARK    4  A    between atoms: S_13  and  N_16
REMARK    5  A    between atoms: N_16  and  C_17
REMARK                            x       y       z     vdW  Elec       q    Type
REMARK                         _______ _______ _______ _____ _____    ______ ____
ROOT
ATOM      1  N   UNL     1       3.290   4.108  18.609  0.00  0.00    +0.000 N 
ATOM      2  C   UNL     1       3.994   4.669  17.561  0.00  0.00    +0.000 A 
ATOM      3  C   UNL     1       4.757   4.079  16.539  0.00  0.00    +0.000 A 
ATOM      4  C   UNL     1       5.388   4.918  15.616  0.00  0.00    +0.000 A 
ATOM      5  C   UNL     1       5.261   6.299  15.704  0.00  0.00    +0.000 A 
ATOM      6  C   UNL     1       4.488   6.878  16.717  0.00  0.00    +0.000 A 
ATOM      7  C   UNL     1       3.841   6.054  17.663  0.00  0.00    +0.000 A 
ATOM      8  C   UNL     1       2.994   6.316  18.786  0.00  0.00    +0.000 A 
ATOM      9  C   UNL     1       2.486   7.501  19.362  0.00  0.00    +0.000 A 
ATOM     10  C   UNL     1       1.638   7.411  20.474  0.00  0.00    +0.000 A 
ATOM     11  C   UNL     1       1.270   6.172  20.998  0.00  0.00    +0.000 A 
ATOM     12  C   UNL     1       1.777   4.989  20.450  0.00  0.00    +0.000 A 
ATOM     13  C   UNL     1       2.642   5.084  19.345  0.00  0.00    +0.000 A 
ENDROOT
BRANCH  10  14
ATOM     14  S   UNL     1       0.914   8.890  21.143  0.00  0.00    +0.000 S 
ATOM     15  O   UNL     1      -0.500   8.647  21.322  0.00  0.00    +0.000 OA
ATOM     16  O   UNL     1       1.744   9.350  22.235  0.00  0.00    +0.000 OA
BRANCH  14  17
ATOM     17  N   UNL     1       1.027   9.992  19.853  0.00  0.00    +0.000 N 
ATOM     18  H   UNL     1       1.769   9.662  19.229  0.00  0.00    +0.000 HD
BRANCH  17  19
ATOM     19  C   UNL     1      -0.205  10.351  19.212  0.00  0.00    +0.000 A 
ATOM     20  C   UNL     1      -0.542   9.736  18.011  0.00  0.00    +0.000 A 
ATOM     21  C   UNL     1      -1.721  10.105  17.365  0.00  0.00    +0.000 A 
ATOM     22  C   UNL     1      -2.512  11.084  17.948  0.00  0.00    +0.000 A 
ATOM     23 CL   UNL     1      -3.985  11.569  17.217  0.00  0.00    +0.000 Cl
ATOM     24  N   UNL     1      -2.222  11.715  19.101  0.00  0.00    +0.000 NA
ATOM     25  C   UNL     1      -1.068  11.345  19.696  0.00  0.00    +0.000 A 
ATOM     26 CL   UNL     1      -0.766  12.163  21.181  0.00  0.00    +0.000 Cl
ENDBRANCH  17  19
ENDBRANCH  14  17
ENDBRANCH  10  14
BRANCH   1  28
ATOM     27  C   UNL     1       4.332   2.308  19.956  0.00  0.00    +0.000 C 
ATOM     28  C   UNL     1       3.286   2.687  18.923  0.00  0.00    +0.000 C 
ENDBRANCH   1  28
TORSDOF 4
ENDMDL
MODEL 2
REMARK VINA RESULT:      -8.5      4.145      8.300
REMARK  Name = 
REMARK  5 active torsions:
REMARK  status: ('A' for Active; 'I' for Inactive)
REMARK    1  A    between atoms: C_1  and  C_2
REMARK    2  A    between atoms: C_2  and  N_3
REMARK    3  A    between atoms: C_12  and  S_13
REMARK    4  A    between atoms: S_13  and  N_16
REMARK    5  A    between atoms: N_16  and  C_17
REMARK                            x       y       z     vdW  Elec       q    Type
REMARK                         _______ _______ _______ _____ _____    ______ ____
ROOT
ATOM      1  N   UNL     1       0.563  11.321  19.521  0.00  0.00    +0.000 N 
ATOM      2  C   UNL     1      -0.060  11.282  20.754  0.00  0.00    +0.000 A 
ATOM      3  C   UNL     1      -0.794  12.258  21.451  0.00  0.00    +0.000 A 
ATOM      4  C   UNL     1      -1.291  11.934  22.716  0.00  0.00    +0.000 A 
ATOM      5  C   UNL     1      -1.069  10.678  23.270  0.00  0.00    +0.000 A 
ATOM      6  C   UNL     1      -0.349   9.708  22.563  0.00  0.00    +0.000 A 
ATOM      7  C   UNL     1       0.165  10.010  21.284  0.00  0.00    +0.000 A 
ATOM      8  C   UNL     1       0.916   9.265  20.321  0.00  0.00    +0.000 A 
ATOM      9  C   UNL     1       1.417   7.944  20.292  0.00  0.00    +0.000 A 
ATOM     10  C   UNL     1       2.109   7.501  19.156  0.00  0.00    +0.000 A 
ATOM     11  C   UNL     1       2.283   8.334  18.051  0.00  0.00    +0.000 A 
ATOM     12  C   UNL     1       1.808   9.649  18.070  0.00  0.00    +0.000 A 
ATOM     13  C   UNL     1       1.130  10.096  19.218  0.00  0.00    +0.000 A 
ENDROOT
BRANCH  10  14
ATOM     14  S   UNL     1       2.655   5.812  19.070  0.00  0.00    +0.000 S 
ATOM     15  O   UNL     1       2.551   5.247  20.397  0.00  0.00    +0.000 OA
ATOM     16  O   UNL     1       2.019   5.185  17.931  0.00  0.00    +0.000 OA
BRANCH  14  17
ATOM     17  N   UNL     1       4.321   5.960  18.767  0.00  0.00    +0.000 N 
ATOM     18  H   UNL     1       4.817   5.622  19.597  0.00  0.00    +0.000 HD
BRANCH  17  19
ATOM     19  C   UNL     1       4.789   5.443  17.513  0.00  0.00    +0.000 A 
ATOM     20  C   UNL     1       5.069   6.334  16.482  0.00  0.00    +0.000 A 
ATOM     21  C   UNL     1       5.491   5.836  15.250  0.00  0.00    +0.000 A 
ATOM     22  C   UNL     1       5.608   4.462  15.100  0.00  0.00    +0.000 A 
ATOM     23 CL   UNL     1       6.144   3.786  13.618  0.00  0.00    +0.000 Cl
ATOM     24  N   UNL     1       5.338   3.563  16.064  0.00  0.00    +0.000 NA
ATOM     25  C   UNL     1       4.919   4.074  17.241  0.00  0.00    +0.000 A 
ATOM     26 CL   UNL     1       4.619   2.879  18.443  0.00  0.00    +0.000 Cl
ENDBRANCH  17  19
ENDBRANCH  14  17
ENDBRANCH  10  14
BRANCH   1  28
ATOM     27  C   UNL     1       1.927  13.304  18.933  0.00  0.00    +0.000 C 
ATOM     28  C   UNL     1       0.656  12.512  18.690  0.00  0.00    +0.000 C 
ENDBRANCH   1  28
TORSDOF 4
ENDMDL
MODEL 3
REMARK VINA RESULT:      -8.4      4.280      8.204
REMARK  Name = 
REMARK  5 active torsions:
REMARK  status: ('A' for Active; 'I' for Inactive)
REMARK    1  A    between atoms: C_1  and  C_2
REMARK    2  A    between atoms: C_2  and  N_3
REMARK    3  A    between atoms: C_12  and  S_13
REMARK    4  A    between atoms: S_13  and  N_16
REMARK    5  A    between atoms: N_16  and  C_17
REMARK                            x       y       z     vdW  Elec       q    Type
REMARK                         _______ _______ _______ _____ _____    ______ ____
ROOT
ATOM      1  N   UNL     1       0.895  10.595  19.392  0.00  0.00    +0.000 N 
ATOM      2  C   UNL     1       0.360  10.503  20.663  0.00  0.00    +0.000 A 
ATOM      3  C   UNL     1      -0.392  11.420  21.418  0.00  0.00    +0.000 A 
ATOM      4  C   UNL     1      -0.781  11.052  22.709  0.00  0.00    +0.000 A 
ATOM      5  C   UNL     1      -0.437   9.811  23.231  0.00  0.00    +0.000 A 
ATOM      6  C   UNL     1       0.298   8.898  22.467  0.00  0.00    +0.000 A 
ATOM      7  C   UNL     1       0.705   9.245  21.160  0.00  0.00    +0.000 A 
ATOM      8  C   UNL     1       1.440   8.562  20.140  0.00  0.00    +0.000 A 
ATOM      9  C   UNL     1       2.027   7.279  20.062  0.00  0.00    +0.000 A 
ATOM     10  C   UNL     1       2.670   6.894  18.878  0.00  0.00    +0.000 A 
ATOM     11  C   UNL     1       2.714   7.746  17.774  0.00  0.00    +0.000 A 
ATOM     12  C   UNL     1       2.152   9.025  17.841  0.00  0.00    +0.000 A 
ATOM     13  C   UNL     1       1.523   9.415  19.037  0.00  0.00    +0.000 A 
ENDROOT
BRANCH  10  14
ATOM     14  S   UNL     1       3.323   5.247  18.734  0.00  0.00    +0.000 S 
ATOM     15  O   UNL     1       3.136   4.586  20.007  0.00  0.00    +0.000 OA
ATOM     16  O   UNL     1       2.831   4.668  17.504  0.00  0.00    +0.000 OA
BRANCH  14  17
ATOM     17  N   UNL     1       4.998   5.507  18.598  0.00  0.00    +0.000 N 
ATOM     18  H   UNL     1       5.453   4.996  19.360  0.00  0.00    +0.000 HD
BRANCH  17  19
ATOM     19  C   UNL     1       5.568   5.313  17.296  0.00  0.00    +0.000 A 
ATOM     20  C   UNL     1       5.088   4.278  16.499  0.00  0.00    +0.000 A 
ATOM     21  C   UNL     1       5.662   4.061  15.247  0.00  0.00    +0.000 A 
ATOM     22  C   UNL     1       6.701   4.888  14.848  0.00  0.00    +0.000 A 
ATOM     23 CL   UNL     1       7.435   4.690  13.311  0.00  0.00    +0.000 Cl
ATOM     24  N   UNL     1       7.206   5.893  15.588  0.00  0.00    +0.000 NA
ATOM     25  C   UNL     1       6.639   6.070  16.800  0.00  0.00    +0.000 A 
ATOM     26 CL   UNL     1       7.305   7.387  17.686  0.00  0.00    +0.000 Cl
ENDBRANCH  17  19
ENDBRANCH  14  17
ENDBRANCH  10  14
BRANCH   1  28
ATOM     27  C   UNL     1       2.067  12.685  18.761  0.00  0.00    +0.000 C 
ATOM     28  C   UNL     1       0.851  11.797  18.572  0.00  0.00    +0.000 C 
ENDBRANCH   1  28
TORSDOF 4
ENDMDL
MODEL 4
REMARK VINA RESULT:      -8.2      1.339      2.972
REMARK  Name = 
REMARK  5 active torsions:
REMARK  status: ('A' for Active; 'I' for Inactive)
REMARK    1  A    between atoms: C_1  and  C_2
REMARK    2  A    between atoms: C_2  and  N_3
REMARK    3  A    between atoms: C_12  and  S_13
REMARK    4  A    between atoms: S_13  and  N_16
REMARK    5  A    between atoms: N_16  and  C_17
REMARK                            x       y       z     vdW  Elec       q    Type
REMARK                         _______ _______ _______ _____ _____    ______ ____
ROOT
ATOM      1  N   UNL     1       3.623   5.544  18.223  0.00  0.00    +0.000 N 
ATOM      2  C   UNL     1       3.427   4.586  19.199  0.00  0.00    +0.000 A 
ATOM      3  C   UNL     1       3.924   3.276  19.322  0.00  0.00    +0.000 A 
ATOM      4  C   UNL     1       3.524   2.518  20.426  0.00  0.00    +0.000 A 
ATOM      5  C   UNL     1       2.664   3.047  21.381  0.00  0.00    +0.000 A 
ATOM      6  C   UNL     1       2.186   4.356  21.259  0.00  0.00    +0.000 A 
ATOM      7  C   UNL     1       2.572   5.143  20.152  0.00  0.00    +0.000 A 
ATOM      8  C   UNL     1       2.279   6.482  19.742  0.00  0.00    +0.000 A 
ATOM      9  C   UNL     1       1.497   7.518  20.299  0.00  0.00    +0.000 A 
ATOM     10  C   UNL     1       1.437   8.756  19.644  0.00  0.00    +0.000 A 
ATOM     11  C   UNL     1       2.157   8.984  18.472  0.00  0.00    +0.000 A 
ATOM     12  C   UNL     1       2.923   7.964  17.899  0.00  0.00    +0.000 A 
ATOM     13  C   UNL     1       2.967   6.718  18.548  0.00  0.00    +0.000 A 
ENDROOT
BRANCH  10  14
ATOM     14  S   UNL     1       0.537  10.095  20.389  0.00  0.00    +0.000 S 
ATOM     15  O   UNL     1      -0.698   9.557  20.916  0.00  0.00    +0.000 OA
ATOM     16  O   UNL     1       1.448  10.848  21.223  0.00  0.00    +0.000 OA
BRANCH  14  17
ATOM     17  N   UNL     1       0.087  11.046  19.055  0.00  0.00    +0.000 N 
ATOM     18  H   UNL     1       0.730  10.828  18.288  0.00  0.00    +0.000 HD
BRANCH  17  19
ATOM     19  C   UNL     1      -1.307  11.044  18.712  0.00  0.00    +0.000 A 
ATOM     20  C   UNL     1      -1.755  10.165  17.730  0.00  0.00    +0.000 A 
ATOM     21  C   UNL     1      -3.101  10.181  17.367  0.00  0.00    +0.000 A 
ATOM     22  C   UNL     1      -3.943  11.085  17.999  0.00  0.00    +0.000 A 
ATOM     23 CL   UNL     1      -5.613  11.141  17.616  0.00  0.00    +0.000 Cl
ATOM     24  N   UNL     1      -3.553  11.960  18.944  0.00  0.00    +0.000 NA
ATOM     25  C   UNL     1      -2.242  11.929  19.265  0.00  0.00    +0.000 A 
ATOM     26 CL   UNL     1      -1.809  13.048  20.500  0.00  0.00    +0.000 Cl
ENDBRANCH  17  19
ENDBRANCH  14  17
ENDBRANCH  10  14
BRANCH   1  28
ATOM     27  C   UNL     1       5.813   5.776  17.086  0.00  0.00    +0.000 C 
ATOM     28  C   UNL     1       4.369   5.318  16.994  0.00  0.00    +0.000 C 
ENDBRANCH   1  28
TORSDOF 4
ENDMDL
MODEL 5
REMARK VINA RESULT:      -8.1      1.156      1.783
REMARK  Name = 
REMARK  5 active torsions:
REMARK  status: ('A' for Active; 'I' for Inactive)
REMARK    1  A    between atoms: C_1  and  C_2
REMARK    2  A    between atoms: C_2  and  N_3
REMARK    3  A    between atoms: C_12  and  S_13
REMARK    4  A    between atoms: S_13  and  N_16
REMARK    5  A    between atoms: N_16  and  C_17
REMARK                            x       y       z     vdW  Elec       q    Type
REMARK                         _______ _______ _______ _____ _____    ______ ____
ROOT
ATOM      1  N   UNL     1       3.528   4.030  18.448  0.00  0.00    +0.000 N 
ATOM      2  C   UNL     1       4.170   4.696  17.422  0.00  0.00    +0.000 A 
ATOM      3  C   UNL     1       4.956   4.218  16.358  0.00  0.00    +0.000 A 
ATOM      4  C   UNL     1       5.507   5.147  15.473  0.00  0.00    +0.000 A 
ATOM      5  C   UNL     1       5.281   6.509  15.636  0.00  0.00    +0.000 A 
ATOM      6  C   UNL     1       4.486   6.976  16.689  0.00  0.00    +0.000 A 
ATOM      7  C   UNL     1       3.919   6.058  17.599  0.00  0.00    +0.000 A 
ATOM      8  C   UNL     1       3.076   6.198  18.746  0.00  0.00    +0.000 A 
ATOM      9  C   UNL     1       2.493   7.312  19.392  0.00  0.00    +0.000 A 
ATOM     10  C   UNL     1       1.674   7.101  20.509  0.00  0.00    +0.000 A 
ATOM     11  C   UNL     1       1.407   5.813  20.972  0.00  0.00    +0.000 A 
ATOM     12  C   UNL     1       1.988   4.701  20.354  0.00  0.00    +0.000 A 
ATOM     13  C   UNL     1       2.825   4.917  19.244  0.00  0.00    +0.000 A 
ENDROOT
BRANCH  10  14
ATOM     14  S   UNL     1       0.856   8.486  21.266  0.00  0.00    +0.000 S 
ATOM     15  O   UNL     1      -0.499   8.085  21.573  0.00  0.00    +0.000 OA
ATOM     16  O   UNL     1       1.730   9.031  22.282  0.00  0.00    +0.000 OA
BRANCH  14  17
ATOM     17  N   UNL     1       0.723   9.600  19.989  0.00  0.00    +0.000 N 
ATOM     18  H   UNL     1       0.712   9.068  19.114  0.00  0.00    +0.000 HD
BRANCH  17  19
ATOM     19  C   UNL     1      -0.300  10.598  20.118  0.00  0.00    +0.000 A 
ATOM     20  C   UNL     1      -0.383  11.326  21.301  0.00  0.00    +0.000 A 
ATOM     21  C   UNL     1      -1.396  12.273  21.447  0.00  0.00    +0.000 A 
ATOM     22  C   UNL     1      -2.292  12.445  20.401  0.00  0.00    +0.000 A 
ATOM     23 CL   UNL     1      -3.547  13.608  20.507  0.00  0.00    +0.000 Cl
ATOM     24  N   UNL     1      -2.258  11.757  19.245  0.00  0.00    +0.000 NA
ATOM     25  C   UNL     1      -1.274  10.839  19.139  0.00  0.00    +0.000 A 
ATOM     26 CL   UNL     1      -1.262  10.013  17.628  0.00  0.00    +0.000 Cl
ENDBRANCH  17  19
ENDBRANCH  14  17
ENDBRANCH  10  14
BRANCH   1  28
ATOM     27  C   UNL     1       2.395   1.834  18.255  0.00  0.00    +0.000 C 
ATOM     28  C   UNL     1       3.634   2.599  18.686  0.00  0.00    +0.000 C 
ENDBRANCH   1  28
TORSDOF 4
ENDMDL
MODEL 6
REMARK VINA RESULT:      -8.0      2.467      2.872
REMARK  Name = 
REMARK  5 active torsions:
REMARK  status: ('A' for Active; 'I' for Inactive)
REMARK    1  A    between atoms: C_1  and  C_2
REMARK    2  A    between atoms: C_2  and  N_3
REMARK    3  A    between atoms: C_12  and  S_13
REMARK    4  A    between atoms: S_13  and  N_16
REMARK    5  A    between atoms: N_16  and  C_17
REMARK                            x       y       z     vdW  Elec       q    Type
REMARK                         _______ _______ _______ _____ _____    ______ ____
ROOT
ATOM      1  N   UNL     1       3.389   4.981  19.212  0.00  0.00    +0.000 N 
ATOM      2  C   UNL     1       4.123   5.031  18.042  0.00  0.00    +0.000 A 
ATOM      3  C   UNL     1       4.927   4.065  17.413  0.00  0.00    +0.000 A 
ATOM      4  C   UNL     1       5.580   4.417  16.228  0.00  0.00    +0.000 A 
ATOM      5  C   UNL     1       5.434   5.688  15.684  0.00  0.00    +0.000 A 
ATOM      6  C   UNL     1       4.619   6.638  16.308  0.00  0.00    +0.000 A 
ATOM      7  C   UNL     1       3.950   6.309  17.507  0.00  0.00    +0.000 A 
ATOM      8  C   UNL     1       3.062   7.025  18.371  0.00  0.00    +0.000 A 
ATOM      9  C   UNL     1       2.521   8.330  18.340  0.00  0.00    +0.000 A 
ATOM     10  C   UNL     1       1.636   8.726  19.352  0.00  0.00    +0.000 A 
ATOM     11  C   UNL     1       1.265   7.844  20.368  0.00  0.00    +0.000 A 
ATOM     12  C   UNL     1       1.804   6.555  20.422  0.00  0.00    +0.000 A 
ATOM     13  C   UNL     1       2.706   6.167  19.415  0.00  0.00    +0.000 A 
ENDROOT
BRANCH  10  14
ATOM     14  S   UNL     1       0.872  10.329  19.267  0.00  0.00    +0.000 S 
ATOM     15  O   UNL     1       1.713  11.175  18.449  0.00  0.00    +0.000 OA
ATOM     16  O   UNL     1      -0.532  10.149  18.971  0.00  0.00    +0.000 OA
BRANCH  14  17
ATOM     17  N   UNL     1       1.037  10.919  20.853  0.00  0.00    +0.000 N 
ATOM     18  H   UNL     1       1.807  11.595  20.853  0.00  0.00    +0.000 HD
BRANCH  17  19
ATOM     19  C   UNL     1      -0.168  11.354  21.499  0.00  0.00    +0.000 A 
ATOM     20  C   UNL     1      -0.845  12.456  20.986  0.00  0.00    +0.000 A 
ATOM     21  C   UNL     1      -1.997  12.906  21.629  0.00  0.00    +0.000 A 
ATOM     22  C   UNL     1      -2.420  12.235  22.768  0.00  0.00    +0.000 A 
ATOM     23 CL   UNL     1      -3.841  12.723  23.593  0.00  0.00    +0.000 Cl
ATOM     24  N   UNL     1      -1.792  11.174  23.307  0.00  0.00    +0.000 NA
ATOM     25  C   UNL     1      -0.673  10.770  22.669  0.00  0.00    +0.000 A 
ATOM     26 CL   UNL     1       0.068   9.390  23.385  0.00  0.00    +0.000 Cl
ENDBRANCH  17  19
ENDBRANCH  14  17
ENDBRANCH  10  14
BRANCH   1  28
ATOM     27  C   UNL     1       2.306   2.838  19.823  0.00  0.00    +0.000 C 
ATOM     28  C   UNL     1       3.392   3.852  20.131  0.00  0.00    +0.000 C 
ENDBRANCH   1  28
TORSDOF 4
ENDMDL
MODEL 7
REMARK VINA RESULT:      -7.9      4.021      8.298
REMARK  Name = 
REMARK  5 active torsions:
REMARK  status: ('A' for Active; 'I' for Inactive)
REMARK    1  A    between atoms: C_1  and  C_2
REMARK    2  A    between atoms: C_2  and  N_3
REMARK    3  A    between atoms: C_12  and  S_13
REMARK    4  A    between atoms: S_13  and  N_16
REMARK    5  A    between atoms: N_16  and  C_17
REMARK                            x       y       z     vdW  Elec       q    Type
REMARK                         _______ _______ _______ _____ _____    ______ ____
ROOT
ATOM      1  N   UNL     1       0.132  11.039  19.550  0.00  0.00    +0.000 N 
ATOM      2  C   UNL     1      -0.430  11.085  20.811  0.00  0.00    +0.000 A 
ATOM      3  C   UNL     1      -1.244  12.053  21.426  0.00  0.00    +0.000 A 
ATOM      4  C   UNL     1      -1.647  11.836  22.747  0.00  0.00    +0.000 A 
ATOM      5  C   UNL     1      -1.257  10.691  23.433  0.00  0.00    +0.000 A 
ATOM      6  C   UNL     1      -0.460   9.726  22.808  0.00  0.00    +0.000 A 
ATOM      7  C   UNL     1      -0.037   9.921  21.475  0.00  0.00    +0.000 A 
ATOM      8  C   UNL     1       0.755   9.149  20.567  0.00  0.00    +0.000 A 
ATOM      9  C   UNL     1       1.404   7.899  20.668  0.00  0.00    +0.000 A 
ATOM     10  C   UNL     1       2.095   7.397  19.557  0.00  0.00    +0.000 A 
ATOM     11  C   UNL     1       2.125   8.100  18.352  0.00  0.00    +0.000 A 
ATOM     12  C   UNL     1       1.502   9.346  18.241  0.00  0.00    +0.000 A 
ATOM     13  C   UNL     1       0.825   9.856  19.363  0.00  0.00    +0.000 A 
ENDROOT
BRANCH  10  14
ATOM     14  S   UNL     1       2.830   5.781  19.642  0.00  0.00    +0.000 S 
ATOM     15  O   UNL     1       4.259   5.953  19.781  0.00  0.00    +0.000 OA
ATOM     16  O   UNL     1       2.071   4.984  20.582  0.00  0.00    +0.000 OA
BRANCH  14  17
ATOM     17  N   UNL     1       2.595   5.167  18.074  0.00  0.00    +0.000 N 
ATOM     18  H   UNL     1       1.810   5.677  17.657  0.00  0.00    +0.000 HD
BRANCH  17  19
ATOM     19  C   UNL     1       3.765   5.056  17.252  0.00  0.00    +0.000 A 
ATOM     20  C   UNL     1       4.299   6.208  16.683  0.00  0.00    +0.000 A 
ATOM     21  C   UNL     1       5.415   6.104  15.855  0.00  0.00    +0.000 A 
ATOM     22  C   UNL     1       5.948   4.844  15.624  0.00  0.00    +0.000 A 
ATOM     23 CL   UNL     1       7.333   4.647  14.634  0.00  0.00    +0.000 Cl
ATOM     24  N   UNL     1       5.459   3.701  16.142  0.00  0.00    +0.000 NA
ATOM     25  C   UNL     1       4.371   3.833  16.929  0.00  0.00    +0.000 A 
ATOM     26 CL   UNL     1       3.811   2.344  17.586  0.00  0.00    +0.000 Cl
ENDBRANCH  17  19
ENDBRANCH  14  17
ENDBRANCH  10  14
BRANCH   1  28
ATOM     27  C   UNL     1      -1.266  12.141  17.825  0.00  0.00    +0.000 C 
ATOM     28  C   UNL     1       0.051  12.120  18.579  0.00  0.00    +0.000 C 
ENDBRANCH   1  28
TORSDOF 4
ENDMDL
MODEL 8
REMARK VINA RESULT:      -7.9      1.133      1.383
REMARK  Name = 
REMARK  5 active torsions:
REMARK  status: ('A' for Active; 'I' for Inactive)
REMARK    1  A    between atoms: C_1  and  C_2
REMARK    2  A    between atoms: C_2  and  N_3
REMARK    3  A    between atoms: C_12  and  S_13
REMARK    4  A    between atoms: S_13  and  N_16
REMARK    5  A    between atoms: N_16  and  C_17
REMARK                            x       y       z     vdW  Elec       q    Type
REMARK                         _______ _______ _______ _____ _____    ______ ____
ROOT
ATOM      1  N   UNL     1       3.135   4.204  18.683  0.00  0.00    +0.000 N 
ATOM      2  C   UNL     1       3.875   4.782  17.669  0.00  0.00    +0.000 A 
ATOM      3  C   UNL     1       4.630   4.207  16.633  0.00  0.00    +0.000 A 
ATOM      4  C   UNL     1       5.305   5.059  15.754  0.00  0.00    +0.000 A 
ATOM      5  C   UNL     1       5.228   6.440  15.899  0.00  0.00    +0.000 A 
ATOM      6  C   UNL     1       4.461   7.004  16.925  0.00  0.00    +0.000 A 
ATOM      7  C   UNL     1       3.771   6.166  17.827  0.00  0.00    +0.000 A 
ATOM      8  C   UNL     1       2.919   6.412  18.950  0.00  0.00    +0.000 A 
ATOM      9  C   UNL     1       2.446   7.592  19.568  0.00  0.00    +0.000 A 
ATOM     10  C   UNL     1       1.579   7.487  20.664  0.00  0.00    +0.000 A 
ATOM     11  C   UNL     1       1.158   6.241  21.131  0.00  0.00    +0.000 A 
ATOM     12  C   UNL     1       1.630   5.065  20.540  0.00  0.00    +0.000 A 
ATOM     13  C   UNL     1       2.514   5.173  19.452  0.00  0.00    +0.000 A 
ENDROOT
BRANCH  10  14
ATOM     14  S   UNL     1       0.901   8.963  21.386  0.00  0.00    +0.000 S 
ATOM     15  O   UNL     1      -0.527   8.774  21.516  0.00  0.00    +0.000 OA
ATOM     16  O   UNL     1       1.720   9.333  22.520  0.00  0.00    +0.000 OA
BRANCH  14  17
ATOM     17  N   UNL     1       1.098  10.119  20.155  0.00  0.00    +0.000 N 
ATOM     18  H   UNL     1       1.874   9.811  19.563  0.00  0.00    +0.000 HD
BRANCH  17  19
ATOM     19  C   UNL     1      -0.092  10.515  19.457  0.00  0.00    +0.000 A 
ATOM     20  C   UNL     1      -0.982  11.381  20.084  0.00  0.00    +0.000 A 
ATOM     21  C   UNL     1      -2.157  11.743  19.427  0.00  0.00    +0.000 A 
ATOM     22  C   UNL     1      -2.395  11.213  18.167  0.00  0.00    +0.000 A 
ATOM     23 CL   UNL     1      -3.809  11.634  17.294  0.00  0.00    +0.000 Cl
ATOM     24  N   UNL     1      -1.571  10.364  17.526  0.00  0.00    +0.000 NA
ATOM     25  C   UNL     1      -0.448  10.022  18.194  0.00  0.00    +0.000 A 
ATOM     26 CL   UNL     1       0.581   8.960  17.313  0.00  0.00    +0.000 Cl
ENDBRANCH  17  19
ENDBRANCH  14  17
ENDBRANCH  10  14
BRANCH   1  28
ATOM     27  C   UNL     1       4.242   2.270  19.768  0.00  0.00    +0.000 C 
ATOM     28  C   UNL     1       3.075   2.773  18.937  0.00  0.00    +0.000 C 
ENDBRANCH   1  28
TORSDOF 4
ENDMDL
MODEL 9
REMARK VINA RESULT:      -7.9      1.611      2.183
REMARK  Name = 
REMARK  5 active torsions:
REMARK  status: ('A' for Active; 'I' for Inactive)
REMARK    1  A    between atoms: C_1  and  C_2
REMARK    2  A    between atoms: C_2  and  N_3
REMARK    3  A    between atoms: C_12  and  S_13
REMARK    4  A    between atoms: S_13  and  N_16
REMARK    5  A    between atoms: N_16  and  C_17
REMARK                            x       y       z     vdW  Elec       q    Type
REMARK                         _______ _______ _______ _____ _____    ______ ____
ROOT
ATOM      1  N   UNL     1       3.463   4.194  18.759  0.00  0.00    +0.000 N 
ATOM      2  C   UNL     1       4.117   4.742  17.672  0.00  0.00    +0.000 A 
ATOM      3  C   UNL     1       4.922   4.151  16.682  0.00  0.00    +0.000 A 
ATOM      4  C   UNL     1       5.481   4.977  15.704  0.00  0.00    +0.000 A 
ATOM      5  C   UNL     1       5.243   6.346  15.705  0.00  0.00    +0.000 A 
ATOM      6  C   UNL     1       4.428   6.924  16.685  0.00  0.00    +0.000 A 
ATOM      7  C   UNL     1       3.853   6.113  17.687  0.00  0.00    +0.000 A 
ATOM      8  C   UNL     1       2.992   6.378  18.798  0.00  0.00    +0.000 A 
ATOM      9  C   UNL     1       2.391   7.553  19.302  0.00  0.00    +0.000 A 
ATOM     10  C   UNL     1       1.556   7.466  20.424  0.00  0.00    +0.000 A 
ATOM     11  C   UNL     1       1.291   6.237  21.029  0.00  0.00    +0.000 A 
ATOM     12  C   UNL     1       1.890   5.067  20.553  0.00  0.00    +0.000 A 
ATOM     13  C   UNL     1       2.742   5.160  19.437  0.00  0.00    +0.000 A 
ENDROOT
BRANCH  10  14
ATOM     14  S   UNL     1       0.718   8.922  21.004  0.00  0.00    +0.000 S 
ATOM     15  O   UNL     1      -0.489   8.497  21.677  0.00  0.00    +0.000 OA
ATOM     16  O   UNL     1       1.686   9.775  21.659  0.00  0.00    +0.000 OA
BRANCH  14  17
ATOM     17  N   UNL     1       0.200   9.667  19.567  0.00  0.00    +0.000 N 
ATOM     18  H   UNL     1      -0.813   9.534  19.497  0.00  0.00    +0.000 HD
BRANCH  17  19
ATOM     19  C   UNL     1       0.664  11.006  19.341  0.00  0.00    +0.000 A 
ATOM     20  C   UNL     1       1.775  11.204  18.527  0.00  0.00    +0.000 A 
ATOM     21  C   UNL     1       2.252  12.499  18.330  0.00  0.00    +0.000 A 
ATOM     22  C   UNL     1       1.599  13.545  18.966  0.00  0.00    +0.000 A 
ATOM     23 CL   UNL     1       2.120  15.163  18.749  0.00  0.00    +0.000 Cl
ATOM     24  N   UNL     1       0.529  13.401  19.771  0.00  0.00    +0.000 NA
ATOM     25  C   UNL     1       0.098  12.134  19.951  0.00  0.00    +0.000 A 
ATOM     26 CL   UNL     1      -1.289  12.017  20.963  0.00  0.00    +0.000 Cl
ENDBRANCH  17  19
ENDBRANCH  14  17
ENDBRANCH  10  14
BRANCH   1  28
ATOM     27  C   UNL     1       2.461   1.932  18.607  0.00  0.00    +0.000 C 
ATOM     28  C   UNL     1       3.575   2.800  19.163  0.00  0.00    +0.000 C 
ENDBRANCH   1  28
TORSDOF 4
ENDMDL
