MODEL 1
REMARK VINA RESULT:      -7.6      0.000      0.000
REMARK  Name = 
REMARK  4 active torsions:
REMARK  status: ('A' for Active; 'I' for Inactive)
REMARK    1  A    between atoms: C_1  and  C_2
REMARK    2  A    between atoms: N_4  and  C_5
REMARK    3  A    between atoms: C_13  and  C_14
REMARK    4  A    between atoms: C_17  and  C_18
REMARK                            x       y       z     vdW  Elec       q    Type
REMARK                         _______ _______ _______ _____ _____    ______ ____
ROOT
ATOM      1  C   UNL     1       2.586   5.460  19.175  0.00  0.00    +0.000 A 
ATOM      2  C   UNL     1       1.708   5.145  20.304  0.00  0.00    +0.000 A 
ATOM      3  C   UNL     1       1.899   4.094  21.117  0.00  0.00    +0.000 A 
ATOM      4  C   UNL     1       2.986   3.229  20.883  0.00  0.00    +0.000 A 
ATOM      5  N   UNL     1       3.402   2.171  21.536  0.00  0.00    +0.000 NA
ATOM      6  C   UNL     1       4.485   1.783  20.816  0.00  0.00    +0.000 A 
ATOM      7  N   UNL     1       4.772   2.524  19.744  0.00  0.00    +0.000 NA
ATOM      8  N   UNL     1       3.805   3.488  19.780  0.00  0.00    +0.000 N 
ATOM      9  C   UNL     1       3.613   4.597  18.912  0.00  0.00    +0.000 A 
ENDROOT
BRANCH   9  10
ATOM     10  C   UNL     1       4.549   4.789  17.776  0.00  0.00    +0.000 A 
ATOM     11  C   UNL     1       4.351   4.102  16.570  0.00  0.00    +0.000 A 
ATOM     12  C   UNL     1       5.240   4.266  15.500  0.00  0.00    +0.000 A 
ATOM     13  C   UNL     1       6.340   5.122  15.619  0.00  0.00    +0.000 A 
ATOM     14  C   UNL     1       6.533   5.828  16.812  0.00  0.00    +0.000 A 
ATOM     15  C   UNL     1       5.643   5.661  17.883  0.00  0.00    +0.000 A 
BRANCH  13  16
ATOM     16  C   UNL     1       7.261   5.280  14.525  0.00  0.00    +0.000 C 
ATOM     17  N   UNL     1       7.996   5.428  13.639  0.00  0.00    +0.000 NA
ENDBRANCH  13  16
ENDBRANCH   9  10
BRANCH   1  21
ATOM     18  C   UNL     1       1.906   8.900  17.784  0.00  0.00    +0.000 C 
ATOM     19  C   UNL     1       2.083   7.893  18.889  0.00  0.00    +0.000 C 
ATOM     20  O   UNL     1       1.963   8.249  20.055  0.00  0.00    +0.000 OA
ATOM     21  N   UNL     1       2.362   6.611  18.427  0.00  0.00    +0.000 N 
ATOM     22  H   UNL     1       2.441   6.513  17.420  0.00  0.00    +0.000 HD
ENDBRANCH   1  21
TORSDOF 3
ENDMDL
MODEL 2
REMARK VINA RESULT:      -7.6      0.043      1.054
REMARK  Name = 
REMARK  4 active torsions:
REMARK  status: ('A' for Active; 'I' for Inactive)
REMARK    1  A    between atoms: C_1  and  C_2
REMARK    2  A    between atoms: N_4  and  C_5
REMARK    3  A    between atoms: C_13  and  C_14
REMARK    4  A    between atoms: C_17  and  C_18
REMARK                            x       y       z     vdW  Elec       q    Type
REMARK                         _______ _______ _______ _____ _____    ______ ____
ROOT
ATOM      1  C   UNL     1       2.618   5.456  19.178  0.00  0.00    +0.000 A 
ATOM      2  C   UNL     1       1.734   5.163  20.309  0.00  0.00    +0.000 A 
ATOM      3  C   UNL     1       1.910   4.117  21.131  0.00  0.00    +0.000 A 
ATOM      4  C   UNL     1       2.985   3.234  20.907  0.00  0.00    +0.000 A 
ATOM      5  N   UNL     1       3.385   2.176  21.569  0.00  0.00    +0.000 NA
ATOM      6  C   UNL     1       4.463   1.767  20.853  0.00  0.00    +0.000 A 
ATOM      7  N   UNL     1       4.762   2.494  19.776  0.00  0.00    +0.000 NA
ATOM      8  N   UNL     1       3.808   3.473  19.802  0.00  0.00    +0.000 N 
ATOM      9  C   UNL     1       3.633   4.577  18.925  0.00  0.00    +0.000 A 
ENDROOT
BRANCH   9  10
ATOM     10  C   UNL     1       4.573   4.746  17.788  0.00  0.00    +0.000 A 
ATOM     11  C   UNL     1       5.677   5.602  17.900  0.00  0.00    +0.000 A 
ATOM     12  C   UNL     1       6.557   5.777  16.824  0.00  0.00    +0.000 A 
ATOM     13  C   UNL     1       6.348   5.097  15.620  0.00  0.00    +0.000 A 
ATOM     14  C   UNL     1       5.260   4.224  15.507  0.00  0.00    +0.000 A 
ATOM     15  C   UNL     1       4.378   4.051  16.584  0.00  0.00    +0.000 A 
BRANCH  13  16
ATOM     16  C   UNL     1       7.245   5.287  14.511  0.00  0.00    +0.000 C 
ATOM     17  N   UNL     1       7.980   5.453  13.629  0.00  0.00    +0.000 NA
ENDBRANCH  13  16
ENDBRANCH   9  10
BRANCH   1  21
ATOM     18  C   UNL     1       1.965   8.888  17.757  0.00  0.00    +0.000 C 
ATOM     19  C   UNL     1       2.113   7.887  18.870  0.00  0.00    +0.000 C 
ATOM     20  O   UNL     1       1.957   8.246  20.030  0.00  0.00    +0.000 OA
ATOM     21  N   UNL     1       2.412   6.604  18.420  0.00  0.00    +0.000 N 
ATOM     22  H   UNL     1       2.520   6.503  17.416  0.00  0.00    +0.000 HD
ENDBRANCH   1  21
TORSDOF 3
ENDMDL
MODEL 3
REMARK VINA RESULT:      -7.4      2.549      6.035
REMARK  Name = 
REMARK  4 active torsions:
REMARK  status: ('A' for Active; 'I' for Inactive)
REMARK    1  A    between atoms: C_1  and  C_2
REMARK    2  A    between atoms: N_4  and  C_5
REMARK    3  A    between atoms: C_13  and  C_14
REMARK    4  A    between atoms: C_17  and  C_18
REMARK                            x       y       z     vdW  Elec       q    Type
REMARK                         _______ _______ _______ _____ _____    ______ ____
ROOT
ATOM      1  C   UNL     1       3.698   4.491  17.299  0.00  0.00    +0.000 A 
ATOM      2  C   UNL     1       4.666   3.650  16.590  0.00  0.00    +0.000 A 
ATOM      3  C   UNL     1       5.907   4.055  16.280  0.00  0.00    +0.000 A 
ATOM      4  C   UNL     1       6.318   5.356  16.633  0.00  0.00    +0.000 A 
ATOM      5  N   UNL     1       7.465   5.971  16.475  0.00  0.00    +0.000 NA
ATOM      6  C   UNL     1       7.226   7.192  17.017  0.00  0.00    +0.000 A 
ATOM      7  N   UNL     1       5.997   7.389  17.498  0.00  0.00    +0.000 NA
ATOM      8  N   UNL     1       5.389   6.187  17.267  0.00  0.00    +0.000 N 
ATOM      9  C   UNL     1       4.073   5.769  17.601  0.00  0.00    +0.000 A 
ENDROOT
BRANCH   9  10
ATOM     10  C   UNL     1       3.169   6.728  18.286  0.00  0.00    +0.000 A 
ATOM     11  C   UNL     1       2.695   7.862  17.612  0.00  0.00    +0.000 A 
ATOM     12  C   UNL     1       1.855   8.778  18.260  0.00  0.00    +0.000 A 
ATOM     13  C   UNL     1       1.476   8.573  19.590  0.00  0.00    +0.000 A 
ATOM     14  C   UNL     1       1.927   7.432  20.263  0.00  0.00    +0.000 A 
ATOM     15  C   UNL     1       2.769   6.517  19.615  0.00  0.00    +0.000 A 
BRANCH  13  16
ATOM     16  C   UNL     1       0.624   9.521  20.259  0.00  0.00    +0.000 C 
ATOM     17  N   UNL     1      -0.079  10.277  20.787  0.00  0.00    +0.000 NA
ENDBRANCH  13  16
ENDBRANCH   9  10
BRANCH   1  21
ATOM     18  C   UNL     1       0.704   2.707  18.743  0.00  0.00    +0.000 C 
ATOM     19  C   UNL     1       2.170   3.033  18.640  0.00  0.00    +0.000 C 
ATOM     20  O   UNL     1       2.967   2.475  19.384  0.00  0.00    +0.000 OA
ATOM     21  N   UNL     1       2.458   3.968  17.651  0.00  0.00    +0.000 N 
ATOM     22  H   UNL     1       1.659   4.334  17.144  0.00  0.00    +0.000 HD
ENDBRANCH   1  21
TORSDOF 3
ENDMDL
MODEL 4
REMARK VINA RESULT:      -7.4      2.544      6.048
REMARK  Name = 
REMARK  4 active torsions:
REMARK  status: ('A' for Active; 'I' for Inactive)
REMARK    1  A    between atoms: C_1  and  C_2
REMARK    2  A    between atoms: N_4  and  C_5
REMARK    3  A    between atoms: C_13  and  C_14
REMARK    4  A    between atoms: C_17  and  C_18
REMARK                            x       y       z     vdW  Elec       q    Type
REMARK                         _______ _______ _______ _____ _____    ______ ____
ROOT
ATOM      1  C   UNL     1       3.693   4.507  17.295  0.00  0.00    +0.000 A 
ATOM      2  C   UNL     1       4.652   3.664  16.576  0.00  0.00    +0.000 A 
ATOM      3  C   UNL     1       5.894   4.063  16.262  0.00  0.00    +0.000 A 
ATOM      4  C   UNL     1       6.316   5.358  16.621  0.00  0.00    +0.000 A 
ATOM      5  N   UNL     1       7.466   5.967  16.462  0.00  0.00    +0.000 NA
ATOM      6  C   UNL     1       7.237   7.186  17.013  0.00  0.00    +0.000 A 
ATOM      7  N   UNL     1       6.012   7.388  17.501  0.00  0.00    +0.000 NA
ATOM      8  N   UNL     1       5.395   6.192  17.265  0.00  0.00    +0.000 N 
ATOM      9  C   UNL     1       4.077   5.781  17.603  0.00  0.00    +0.000 A 
ENDROOT
BRANCH   9  10
ATOM     10  C   UNL     1       3.183   6.741  18.298  0.00  0.00    +0.000 A 
ATOM     11  C   UNL     1       2.798   6.517  19.627  0.00  0.00    +0.000 A 
ATOM     12  C   UNL     1       1.941   7.411  20.282  0.00  0.00    +0.000 A 
ATOM     13  C   UNL     1       1.458   8.544  19.619  0.00  0.00    +0.000 A 
ATOM     14  C   UNL     1       1.856   8.786  18.299  0.00  0.00    +0.000 A 
ATOM     15  C   UNL     1       2.711   7.889  17.643  0.00  0.00    +0.000 A 
BRANCH  13  16
ATOM     16  C   UNL     1       0.568   9.456  20.288  0.00  0.00    +0.000 C 
ATOM     17  N   UNL     1      -0.152  10.201  20.809  0.00  0.00    +0.000 NA
ENDBRANCH  13  16
ENDBRANCH   9  10
BRANCH   1  21
ATOM     18  C   UNL     1       0.693   2.743  18.750  0.00  0.00    +0.000 C 
ATOM     19  C   UNL     1       2.159   3.065  18.646  0.00  0.00    +0.000 C 
ATOM     20  O   UNL     1       2.953   2.511  19.396  0.00  0.00    +0.000 OA
ATOM     21  N   UNL     1       2.451   3.990  17.649  0.00  0.00    +0.000 N 
ATOM     22  H   UNL     1       1.653   4.354  17.138  0.00  0.00    +0.000 HD
ENDBRANCH   1  21
TORSDOF 3
ENDMDL
MODEL 5
REMARK VINA RESULT:      -7.2      2.058      4.720
REMARK  Name = 
REMARK  4 active torsions:
REMARK  status: ('A' for Active; 'I' for Inactive)
REMARK    1  A    between atoms: C_1  and  C_2
REMARK    2  A    between atoms: N_4  and  C_5
REMARK    3  A    between atoms: C_13  and  C_14
REMARK    4  A    between atoms: C_17  and  C_18
REMARK                            x       y       z     vdW  Elec       q    Type
REMARK                         _______ _______ _______ _____ _____    ______ ____
ROOT
ATOM      1  C   UNL     1       2.164   6.571  20.339  0.00  0.00    +0.000 A 
ATOM      2  C   UNL     1       1.363   7.421  21.222  0.00  0.00    +0.000 A 
ATOM      3  C   UNL     1       0.899   8.628  20.863  0.00  0.00    +0.000 A 
ATOM      4  C   UNL     1       1.197   9.129  19.581  0.00  0.00    +0.000 A 
ATOM      5  N   UNL     1       0.846  10.244  18.987  0.00  0.00    +0.000 NA
ATOM      6  C   UNL     1       1.450  10.140  17.776  0.00  0.00    +0.000 A 
ATOM      7  N   UNL     1       2.168   9.034  17.572  0.00  0.00    +0.000 NA
ATOM      8  N   UNL     1       2.003   8.350  18.744  0.00  0.00    +0.000 N 
ATOM      9  C   UNL     1       2.499   7.071  19.113  0.00  0.00    +0.000 A 
ENDROOT
BRANCH   9  10
ATOM     10  C   UNL     1       3.336   6.320  18.143  0.00  0.00    +0.000 A 
ATOM     11  C   UNL     1       4.516   6.884  17.638  0.00  0.00    +0.000 A 
ATOM     12  C   UNL     1       5.301   6.187  16.710  0.00  0.00    +0.000 A 
ATOM     13  C   UNL     1       4.918   4.914  16.275  0.00  0.00    +0.000 A 
ATOM     14  C   UNL     1       3.753   4.335  16.791  0.00  0.00    +0.000 A 
ATOM     15  C   UNL     1       2.967   5.035  17.717  0.00  0.00    +0.000 A 
BRANCH  13  16
ATOM     16  C   UNL     1       5.717   4.203  15.312  0.00  0.00    +0.000 C 
ATOM     17  N   UNL     1       6.371   3.649  14.530  0.00  0.00    +0.000 NA
ENDBRANCH  13  16
ENDBRANCH   9  10
BRANCH   1  21
ATOM     18  C   UNL     1       2.522   2.938  21.291  0.00  0.00    +0.000 C 
ATOM     19  C   UNL     1       1.777   4.137  20.770  0.00  0.00    +0.000 C 
ATOM     20  O   UNL     1       0.609   4.018  20.422  0.00  0.00    +0.000 OA
ATOM     21  N   UNL     1       2.541   5.300  20.760  0.00  0.00    +0.000 N 
ATOM     22  H   UNL     1       3.502   5.199  21.073  0.00  0.00    +0.000 HD
ENDBRANCH   1  21
TORSDOF 3
ENDMDL
MODEL 6
REMARK VINA RESULT:      -7.1      2.106      4.673
REMARK  Name = 
REMARK  4 active torsions:
REMARK  status: ('A' for Active; 'I' for Inactive)
REMARK    1  A    between atoms: C_1  and  C_2
REMARK    2  A    between atoms: N_4  and  C_5
REMARK    3  A    between atoms: C_13  and  C_14
REMARK    4  A    between atoms: C_17  and  C_18
REMARK                            x       y       z     vdW  Elec       q    Type
REMARK                         _______ _______ _______ _____ _____    ______ ____
ROOT
ATOM      1  C   UNL     1       2.114   6.668  20.376  0.00  0.00    +0.000 A 
ATOM      2  C   UNL     1       1.310   7.517  21.258  0.00  0.00    +0.000 A 
ATOM      3  C   UNL     1       0.839   8.720  20.894  0.00  0.00    +0.000 A 
ATOM      4  C   UNL     1       1.131   9.217  19.608  0.00  0.00    +0.000 A 
ATOM      5  N   UNL     1       0.773  10.327  19.011  0.00  0.00    +0.000 NA
ATOM      6  C   UNL     1       1.374  10.221  17.799  0.00  0.00    +0.000 A 
ATOM      7  N   UNL     1       2.098   9.118  17.598  0.00  0.00    +0.000 NA
ATOM      8  N   UNL     1       1.939   8.439  18.773  0.00  0.00    +0.000 N 
ATOM      9  C   UNL     1       2.443   7.164  19.147  0.00  0.00    +0.000 A 
ENDROOT
BRANCH   9  10
ATOM     10  C   UNL     1       3.282   6.413  18.179  0.00  0.00    +0.000 A 
ATOM     11  C   UNL     1       2.915   5.123  17.772  0.00  0.00    +0.000 A 
ATOM     12  C   UNL     1       3.712   4.404  16.872  0.00  0.00    +0.000 A 
ATOM     13  C   UNL     1       4.888   4.966  16.362  0.00  0.00    +0.000 A 
ATOM     14  C   UNL     1       5.250   6.262  16.747  0.00  0.00    +0.000 A 
ATOM     15  C   UNL     1       4.453   6.979  17.650  0.00  0.00    +0.000 A 
BRANCH  13  16
ATOM     16  C   UNL     1       5.713   4.222  15.448  0.00  0.00    +0.000 C 
ATOM     17  N   UNL     1       6.363   3.608  14.708  0.00  0.00    +0.000 NA
ENDBRANCH  13  16
ENDBRANCH   9  10
BRANCH   1  21
ATOM     18  C   UNL     1       2.502   3.037  21.324  0.00  0.00    +0.000 C 
ATOM     19  C   UNL     1       1.752   4.227  20.789  0.00  0.00    +0.000 C 
ATOM     20  O   UNL     1       0.595   4.091  20.410  0.00  0.00    +0.000 OA
ATOM     21  N   UNL     1       2.499   5.401  20.803  0.00  0.00    +0.000 N 
ATOM     22  H   UNL     1       3.452   5.312  21.139  0.00  0.00    +0.000 HD
ENDBRANCH   1  21
TORSDOF 3
ENDMDL
MODEL 7
REMARK VINA RESULT:      -7.1      2.625      5.153
REMARK  Name = 
REMARK  4 active torsions:
REMARK  status: ('A' for Active; 'I' for Inactive)
REMARK    1  A    between atoms: C_1  and  C_2
REMARK    2  A    between atoms: N_4  and  C_5
REMARK    3  A    between atoms: C_13  and  C_14
REMARK    4  A    between atoms: C_17  and  C_18
REMARK                            x       y       z     vdW  Elec       q    Type
REMARK                         _______ _______ _______ _____ _____    ______ ____
ROOT
ATOM      1  C   UNL     1       4.569   4.928  18.875  0.00  0.00    +0.000 A 
ATOM      2  C   UNL     1       5.018   3.537  18.971  0.00  0.00    +0.000 A 
ATOM      3  C   UNL     1       4.181   2.502  19.145  0.00  0.00    +0.000 A 
ATOM      4  C   UNL     1       2.797   2.744  19.258  0.00  0.00    +0.000 A 
ATOM      5  N   UNL     1       1.786   1.921  19.399  0.00  0.00    +0.000 NA
ATOM      6  C   UNL     1       0.723   2.762  19.449  0.00  0.00    +0.000 A 
ATOM      7  N   UNL     1       0.999   4.064  19.358  0.00  0.00    +0.000 NA
ATOM      8  N   UNL     1       2.359   4.071  19.217  0.00  0.00    +0.000 N 
ATOM      9  C   UNL     1       3.235   5.174  19.033  0.00  0.00    +0.000 A 
ENDROOT
BRANCH   9  10
ATOM     10  C   UNL     1       2.664   6.544  18.992  0.00  0.00    +0.000 A 
ATOM     11  C   UNL     1       2.144   7.132  20.154  0.00  0.00    +0.000 A 
ATOM     12  C   UNL     1       1.589   8.417  20.117  0.00  0.00    +0.000 A 
ATOM     13  C   UNL     1       1.546   9.136  18.918  0.00  0.00    +0.000 A 
ATOM     14  C   UNL     1       2.083   8.565  17.758  0.00  0.00    +0.000 A 
ATOM     15  C   UNL     1       2.636   7.278  17.796  0.00  0.00    +0.000 A 
BRANCH  13  16
ATOM     16  C   UNL     1       0.964  10.452  18.878  0.00  0.00    +0.000 C 
ATOM     17  N   UNL     1       0.498  11.513  18.825  0.00  0.00    +0.000 NA
ENDBRANCH  13  16
ENDBRANCH   9  10
BRANCH   1  21
ATOM     18  C   UNL     1       7.059   7.408  17.505  0.00  0.00    +0.000 C 
ATOM     19  C   UNL     1       6.115   6.240  17.410  0.00  0.00    +0.000 C 
ATOM     20  O   UNL     1       5.976   5.661  16.340  0.00  0.00    +0.000 OA
ATOM     21  N   UNL     1       5.494   5.934  18.617  0.00  0.00    +0.000 N 
ATOM     22  H   UNL     1       5.724   6.541  19.397  0.00  0.00    +0.000 HD
ENDBRANCH   1  21
TORSDOF 3
ENDMDL
MODEL 8
REMARK VINA RESULT:      -7.1      2.627      5.108
REMARK  Name = 
REMARK  4 active torsions:
REMARK  status: ('A' for Active; 'I' for Inactive)
REMARK    1  A    between atoms: C_1  and  C_2
REMARK    2  A    between atoms: N_4  and  C_5
REMARK    3  A    between atoms: C_13  and  C_14
REMARK    4  A    between atoms: C_17  and  C_18
REMARK                            x       y       z     vdW  Elec       q    Type
REMARK                         _______ _______ _______ _____ _____    ______ ____
ROOT
ATOM      1  C   UNL     1       4.550   4.960  18.908  0.00  0.00    +0.000 A 
ATOM      2  C   UNL     1       5.012   3.574  19.009  0.00  0.00    +0.000 A 
ATOM      3  C   UNL     1       4.185   2.533  19.190  0.00  0.00    +0.000 A 
ATOM      4  C   UNL     1       2.800   2.762  19.304  0.00  0.00    +0.000 A 
ATOM      5  N   UNL     1       1.797   1.930  19.452  0.00  0.00    +0.000 NA
ATOM      6  C   UNL     1       0.725   2.761  19.500  0.00  0.00    +0.000 A 
ATOM      7  N   UNL     1       0.990   4.065  19.402  0.00  0.00    +0.000 NA
ATOM      8  N   UNL     1       2.348   4.084  19.259  0.00  0.00    +0.000 N 
ATOM      9  C   UNL     1       3.214   5.195  19.067  0.00  0.00    +0.000 A 
ENDROOT
BRANCH   9  10
ATOM     10  C   UNL     1       2.629   6.559  19.021  0.00  0.00    +0.000 A 
ATOM     11  C   UNL     1       2.580   7.270  17.814  0.00  0.00    +0.000 A 
ATOM     12  C   UNL     1       2.045   8.565  17.769  0.00  0.00    +0.000 A 
ATOM     13  C   UNL     1       1.549   9.166  18.930  0.00  0.00    +0.000 A 
ATOM     14  C   UNL     1       1.574   8.455  20.135  0.00  0.00    +0.000 A 
ATOM     15  C   UNL     1       2.112   7.160  20.179  0.00  0.00    +0.000 A 
BRANCH  13  16
ATOM     16  C   UNL     1       1.011  10.501  18.886  0.00  0.00    +0.000 C 
ATOM     17  N   UNL     1       0.558  11.568  18.847  0.00  0.00    +0.000 NA
ENDBRANCH  13  16
ENDBRANCH   9  10
BRANCH   1  21
ATOM     18  C   UNL     1       7.020   7.453  17.523  0.00  0.00    +0.000 C 
ATOM     19  C   UNL     1       6.091   6.272  17.437  0.00  0.00    +0.000 C 
ATOM     20  O   UNL     1       5.966   5.678  16.373  0.00  0.00    +0.000 OA
ATOM     21  N   UNL     1       5.465   5.975  18.643  0.00  0.00    +0.000 N 
ATOM     22  H   UNL     1       5.682   6.594  19.417  0.00  0.00    +0.000 HD
ENDBRANCH   1  21
TORSDOF 3
ENDMDL
MODEL 9
REMARK VINA RESULT:      -6.8      2.762      5.439
REMARK  Name = 
REMARK  4 active torsions:
REMARK  status: ('A' for Active; 'I' for Inactive)
REMARK    1  A    between atoms: C_1  and  C_2
REMARK    2  A    between atoms: N_4  and  C_5
REMARK    3  A    between atoms: C_13  and  C_14
REMARK    4  A    between atoms: C_17  and  C_18
REMARK                            x       y       z     vdW  Elec       q    Type
REMARK                         _______ _______ _______ _____ _____    ______ ____
ROOT
ATOM      1  C   UNL     1       4.458   5.176  17.790  0.00  0.00    +0.000 A 
ATOM      2  C   UNL     1       4.937   3.826  17.482  0.00  0.00    +0.000 A 
ATOM      3  C   UNL     1       4.175   2.728  17.602  0.00  0.00    +0.000 A 
ATOM      4  C   UNL     1       2.848   2.854  18.058  0.00  0.00    +0.000 A 
ATOM      5  N   UNL     1       1.907   1.958  18.230  0.00  0.00    +0.000 NA
ATOM      6  C   UNL     1       0.868   2.702  18.688  0.00  0.00    +0.000 A 
ATOM      7  N   UNL     1       1.098   4.009  18.826  0.00  0.00    +0.000 NA
ATOM      8  N   UNL     1       2.392   4.130  18.403  0.00  0.00    +0.000 N 
ATOM      9  C   UNL     1       3.189   5.300  18.279  0.00  0.00    +0.000 A 
ENDROOT
BRANCH   9  10
ATOM     10  C   UNL     1       2.603   6.610  18.662  0.00  0.00    +0.000 A 
ATOM     11  C   UNL     1       2.322   6.897  20.004  0.00  0.00    +0.000 A 
ATOM     12  C   UNL     1       1.753   8.125  20.368  0.00  0.00    +0.000 A 
ATOM     13  C   UNL     1       1.459   9.085  19.394  0.00  0.00    +0.000 A 
ATOM     14  C   UNL     1       1.757   8.815  18.054  0.00  0.00    +0.000 A 
ATOM     15  C   UNL     1       2.324   7.585  17.691  0.00  0.00    +0.000 A 
BRANCH  13  16
ATOM     16  C   UNL     1       0.863  10.341  19.767  0.00  0.00    +0.000 C 
ATOM     17  N   UNL     1       0.386  11.349  20.088  0.00  0.00    +0.000 NA
ENDBRANCH  13  16
ENDBRANCH   9  10
BRANCH   1  21
ATOM     18  C   UNL     1       7.212   7.735  17.480  0.00  0.00    +0.000 C 
ATOM     19  C   UNL     1       6.636   6.404  17.881  0.00  0.00    +0.000 C 
ATOM     20  O   UNL     1       7.350   5.580  18.439  0.00  0.00    +0.000 OA
ATOM     21  N   UNL     1       5.288   6.270  17.565  0.00  0.00    +0.000 N 
ATOM     22  H   UNL     1       4.867   7.059  17.086  0.00  0.00    +0.000 HD
ENDBRANCH   1  21
TORSDOF 3
ENDMDL
