MODEL 1
REMARK VINA RESULT:      -8.4      0.000      0.000
REMARK  Name = 
REMARK  3 active torsions:
REMARK  status: ('A' for Active; 'I' for Inactive)
REMARK    1  A    between atoms: C_1  and  N_2
REMARK    2  A    between atoms: N_2  and  S_3
REMARK    3  A    between atoms: S_3  and  C_6
REMARK                            x       y       z     vdW  Elec       q    Type
REMARK                         _______ _______ _______ _____ _____    ______ ____
ROOT
ATOM      1  C   UNL     1       5.314   5.250  16.854  0.00  0.00    +0.000 C 
ATOM      2  C   UNL     1       5.042   3.826  17.374  0.00  0.00    +0.000 C 
ATOM      3  C   UNL     1       3.651   3.696  18.019  0.00  0.00    +0.000 C 
ATOM      4  C   UNL     1       3.380   4.813  19.038  0.00  0.00    +0.000 C 
ATOM      5  N   UNL     1       3.608   6.068  18.330  0.00  0.00    +0.000 N 
ATOM      6  C   UNL     1       2.848   7.179  18.661  0.00  0.00    +0.000 A 
ATOM      7  C   UNL     1       2.658   8.157  17.686  0.00  0.00    +0.000 A 
ATOM      8  C   UNL     1       1.835   9.235  17.948  0.00  0.00    +0.000 A 
ATOM      9  C   UNL     1       1.231   9.325  19.198  0.00  0.00    +0.000 A 
ATOM     10  C   UNL     1       0.398  10.407  19.517  0.00  0.00    +0.000 A 
ATOM     11  C   UNL     1      -0.150  10.477  20.784  0.00  0.00    +0.000 A 
ATOM     12 CL   UNL     1      -1.151  11.794  21.234  0.00  0.00    +0.000 Cl
ATOM     13  C   UNL     1       0.141   9.459  21.668  0.00  0.00    +0.000 A 
ATOM     14  N   UNL     1       0.924   8.391  21.367  0.00  0.00    +0.000 NA
ATOM     15  C   UNL     1       1.471   8.312  20.150  0.00  0.00    +0.000 A 
ATOM     16  N   UNL     1       2.244   7.262  19.859  0.00  0.00    +0.000 NA
ATOM     17  C   UNL     1       5.002   6.285  17.927  0.00  0.00    +0.000 C 
ENDROOT
BRANCH   1  18
ATOM     18  S   UNL     1       6.994   5.424  16.276  0.00  0.00    +0.000 S 
ATOM     19  O   UNL     1       7.729   4.234  16.638  0.00  0.00    +0.000 OA
ATOM     20  O   UNL     1       7.483   6.748  16.593  0.00  0.00    +0.000 OA
BRANCH  18  22
ATOM     21  C   UNL     1       6.376   4.008  14.108  0.00  0.00    +0.000 C 
ATOM     22  N   UNL     1       6.801   5.339  14.588  0.00  0.00    +0.000 NA
ATOM     23  H   UNL     1       6.144   6.053  14.270  0.00  0.00    +0.000 HD
ENDBRANCH  18  22
ENDBRANCH   1  18
TORSDOF 2
ENDMDL
MODEL 2
REMARK VINA RESULT:      -8.3      1.097      1.376
REMARK  Name = 
REMARK  3 active torsions:
REMARK  status: ('A' for Active; 'I' for Inactive)
REMARK    1  A    between atoms: C_1  and  N_2
REMARK    2  A    between atoms: N_2  and  S_3
REMARK    3  A    between atoms: S_3  and  C_6
REMARK                            x       y       z     vdW  Elec       q    Type
REMARK                         _______ _______ _______ _____ _____    ______ ____
ROOT
ATOM      1  C   UNL     1       4.898   5.462  16.506  0.00  0.00    +0.000 C 
ATOM      2  C   UNL     1       4.538   4.008  16.865  0.00  0.00    +0.000 C 
ATOM      3  C   UNL     1       3.155   3.897  17.528  0.00  0.00    +0.000 C 
ATOM      4  C   UNL     1       2.982   4.903  18.677  0.00  0.00    +0.000 C 
ATOM      5  N   UNL     1       3.283   6.214  18.113  0.00  0.00    +0.000 N 
ATOM      6  C   UNL     1       2.609   7.326  18.591  0.00  0.00    +0.000 A 
ATOM      7  C   UNL     1       2.468   8.422  17.740  0.00  0.00    +0.000 A 
ATOM      8  C   UNL     1       1.727   9.515  18.148  0.00  0.00    +0.000 A 
ATOM      9  C   UNL     1       1.155   9.498  19.416  0.00  0.00    +0.000 A 
ATOM     10  C   UNL     1       0.406  10.589  19.881  0.00  0.00    +0.000 A 
ATOM     11  C   UNL     1      -0.111  10.546  21.162  0.00  0.00    +0.000 A 
ATOM     12 CL   UNL     1      -1.008  11.865  21.789  0.00  0.00    +0.000 Cl
ATOM     13  C   UNL     1       0.126   9.414  21.914  0.00  0.00    +0.000 A 
ATOM     14  N   UNL     1       0.827   8.339  21.470  0.00  0.00    +0.000 NA
ATOM     15  C   UNL     1       1.343   8.367  20.238  0.00  0.00    +0.000 A 
ATOM     16  N   UNL     1       2.036   7.309  19.806  0.00  0.00    +0.000 NA
ATOM     17  C   UNL     1       4.680   6.382  17.698  0.00  0.00    +0.000 C 
ENDROOT
BRANCH   1  18
ATOM     18  S   UNL     1       6.575   5.590  15.905  0.00  0.00    +0.000 S 
ATOM     19  O   UNL     1       7.169   6.784  16.459  0.00  0.00    +0.000 OA
ATOM     20  O   UNL     1       6.606   5.309  14.486  0.00  0.00    +0.000 OA
BRANCH  18  22
ATOM     21  C   UNL     1       7.858   4.647  18.040  0.00  0.00    +0.000 C 
ATOM     22  N   UNL     1       7.339   4.295  16.702  0.00  0.00    +0.000 NA
ATOM     23  H   UNL     1       6.704   3.498  16.771  0.00  0.00    +0.000 HD
ENDBRANCH  18  22
ENDBRANCH   1  18
TORSDOF 2
ENDMDL
MODEL 3
REMARK VINA RESULT:      -8.1      1.068      1.470
REMARK  Name = 
REMARK  3 active torsions:
REMARK  status: ('A' for Active; 'I' for Inactive)
REMARK    1  A    between atoms: C_1  and  N_2
REMARK    2  A    between atoms: N_2  and  S_3
REMARK    3  A    between atoms: S_3  and  C_6
REMARK                            x       y       z     vdW  Elec       q    Type
REMARK                         _______ _______ _______ _____ _____    ______ ____
ROOT
ATOM      1  C   UNL     1       5.009   5.372  16.695  0.00  0.00    +0.000 C 
ATOM      2  C   UNL     1       4.647   3.925  17.077  0.00  0.00    +0.000 C 
ATOM      3  C   UNL     1       3.241   3.819  17.691  0.00  0.00    +0.000 C 
ATOM      4  C   UNL     1       3.018   4.850  18.807  0.00  0.00    +0.000 C 
ATOM      5  N   UNL     1       3.330   6.150  18.223  0.00  0.00    +0.000 N 
ATOM      6  C   UNL     1       2.631   7.268  18.648  0.00  0.00    +0.000 A 
ATOM      7  C   UNL     1       2.514   8.341  17.766  0.00  0.00    +0.000 A 
ATOM      8  C   UNL     1       1.750   9.438  18.119  0.00  0.00    +0.000 A 
ATOM      9  C   UNL     1       1.132   9.447  19.365  0.00  0.00    +0.000 A 
ATOM     10  C   UNL     1       0.359  10.542  19.775  0.00  0.00    +0.000 A 
ATOM     11  C   UNL     1      -0.206  10.527  21.037  0.00  0.00    +0.000 A 
ATOM     12 CL   UNL     1      -1.135  11.854  21.598  0.00  0.00    +0.000 Cl
ATOM     13  C   UNL     1       0.012   9.415  21.825  0.00  0.00    +0.000 A 
ATOM     14  N   UNL     1       0.736   8.336  21.434  0.00  0.00    +0.000 NA
ATOM     15  C   UNL     1       1.298   8.338  20.221  0.00  0.00    +0.000 A 
ATOM     16  N   UNL     1       2.013   7.275  19.842  0.00  0.00    +0.000 NA
ATOM     17  C   UNL     1       4.740   6.319  17.856  0.00  0.00    +0.000 C 
ENDROOT
BRANCH   1  18
ATOM     18  S   UNL     1       6.706   5.499  16.154  0.00  0.00    +0.000 S 
ATOM     19  O   UNL     1       6.721   5.610  14.714  0.00  0.00    +0.000 OA
ATOM     20  O   UNL     1       7.514   4.523  16.853  0.00  0.00    +0.000 OA
BRANCH  18  22
ATOM     21  C   UNL     1       7.881   7.002  18.013  0.00  0.00    +0.000 C 
ATOM     22  N   UNL     1       7.149   7.038  16.730  0.00  0.00    +0.000 NA
ATOM     23  H   UNL     1       7.699   7.534  16.027  0.00  0.00    +0.000 HD
ENDBRANCH  18  22
ENDBRANCH   1  18
TORSDOF 2
ENDMDL
MODEL 4
REMARK VINA RESULT:      -7.6      2.241      2.790
REMARK  Name = 
REMARK  3 active torsions:
REMARK  status: ('A' for Active; 'I' for Inactive)
REMARK    1  A    between atoms: C_1  and  N_2
REMARK    2  A    between atoms: N_2  and  S_3
REMARK    3  A    between atoms: S_3  and  C_6
REMARK                            x       y       z     vdW  Elec       q    Type
REMARK                         _______ _______ _______ _____ _____    ______ ____
ROOT
ATOM      1  C   UNL     1       3.340   4.333  19.217  0.00  0.00    +0.000 C 
ATOM      2  C   UNL     1       2.439   3.519  20.163  0.00  0.00    +0.000 C 
ATOM      3  C   UNL     1       1.114   4.238  20.469  0.00  0.00    +0.000 C 
ATOM      4  C   UNL     1       1.333   5.699  20.891  0.00  0.00    +0.000 C 
ATOM      5  N   UNL     1       2.126   6.310  19.831  0.00  0.00    +0.000 N 
ATOM      6  C   UNL     1       1.932   7.648  19.527  0.00  0.00    +0.000 A 
ATOM      7  C   UNL     1       2.239   8.078  18.236  0.00  0.00    +0.000 A 
ATOM      8  C   UNL     1       1.976   9.384  17.869  0.00  0.00    +0.000 A 
ATOM      9  C   UNL     1       1.428  10.245  18.813  0.00  0.00    +0.000 A 
ATOM     10  C   UNL     1       1.157  11.583  18.493  0.00  0.00    +0.000 A 
ATOM     11  C   UNL     1       0.650  12.415  19.473  0.00  0.00    +0.000 A 
ATOM     12 CL   UNL     1       0.329  14.066  19.142  0.00  0.00    +0.000 Cl
ATOM     13  C   UNL     1       0.419  11.873  20.721  0.00  0.00    +0.000 A 
ATOM     14  N   UNL     1       0.652  10.574  21.040  0.00  0.00    +0.000 NA
ATOM     15  C   UNL     1       1.153   9.758  20.108  0.00  0.00    +0.000 A 
ATOM     16  N   UNL     1       1.384   8.481  20.428  0.00  0.00    +0.000 NA
ATOM     17  C   UNL     1       3.484   5.767  19.709  0.00  0.00    +0.000 C 
ENDROOT
BRANCH   1  18
ATOM     18  S   UNL     1       4.942   3.568  19.021  0.00  0.00    +0.000 S 
ATOM     19  O   UNL     1       4.965   2.349  19.795  0.00  0.00    +0.000 OA
ATOM     20  O   UNL     1       5.978   4.570  19.144  0.00  0.00    +0.000 OA
BRANCH  18  22
ATOM     21  C   UNL     1       4.875   4.189  16.432  0.00  0.00    +0.000 C 
ATOM     22  N   UNL     1       4.901   3.068  17.395  0.00  0.00    +0.000 NA
ATOM     23  H   UNL     1       5.690   2.451  17.194  0.00  0.00    +0.000 HD
ENDBRANCH  18  22
ENDBRANCH   1  18
TORSDOF 2
ENDMDL
MODEL 5
REMARK VINA RESULT:      -7.5      1.538      1.812
REMARK  Name = 
REMARK  3 active torsions:
REMARK  status: ('A' for Active; 'I' for Inactive)
REMARK    1  A    between atoms: C_1  and  N_2
REMARK    2  A    between atoms: N_2  and  S_3
REMARK    3  A    between atoms: S_3  and  C_6
REMARK                            x       y       z     vdW  Elec       q    Type
REMARK                         _______ _______ _______ _____ _____    ______ ____
ROOT
ATOM      1  C   UNL     1       3.970   5.019  18.279  0.00  0.00    +0.000 C 
ATOM      2  C   UNL     1       3.422   3.693  18.838  0.00  0.00    +0.000 C 
ATOM      3  C   UNL     1       2.017   3.851  19.442  0.00  0.00    +0.000 C 
ATOM      4  C   UNL     1       1.935   5.038  20.414  0.00  0.00    +0.000 C 
ATOM      5  N   UNL     1       2.413   6.200  19.672  0.00  0.00    +0.000 N 
ATOM      6  C   UNL     1       1.868   7.445  19.941  0.00  0.00    +0.000 A 
ATOM      7  C   UNL     1       1.890   8.402  18.927  0.00  0.00    +0.000 A 
ATOM      8  C   UNL     1       1.278   9.625  19.127  0.00  0.00    +0.000 A 
ATOM      9  C   UNL     1       0.670   9.875  20.353  0.00  0.00    +0.000 A 
ATOM     10  C   UNL     1       0.049  11.106  20.609  0.00  0.00    +0.000 A 
ATOM     11  C   UNL     1      -0.508  11.326  21.854  0.00  0.00    +0.000 A 
ATOM     12 CL   UNL     1      -1.253  12.824  22.228  0.00  0.00    +0.000 Cl
ATOM     13  C   UNL     1      -0.436  10.307  22.781  0.00  0.00    +0.000 A 
ATOM     14  N   UNL     1       0.140   9.101  22.541  0.00  0.00    +0.000 NA
ATOM     15  C   UNL     1       0.693   8.873  21.346  0.00  0.00    +0.000 A 
ATOM     16  N   UNL     1       1.261   7.686  21.115  0.00  0.00    +0.000 NA
ATOM     17  C   UNL     1       3.832   6.135  19.306  0.00  0.00    +0.000 C 
ENDROOT
BRANCH   1  18
ATOM     18  S   UNL     1       5.668   4.853  17.749  0.00  0.00    +0.000 S 
ATOM     19  O   UNL     1       6.445   4.345  18.856  0.00  0.00    +0.000 OA
ATOM     20  O   UNL     1       6.066   6.034  17.015  0.00  0.00    +0.000 OA
BRANCH  18  22
ATOM     21  C   UNL     1       5.943   3.946  15.261  0.00  0.00    +0.000 C 
ATOM     22  N   UNL     1       5.570   3.567  16.639  0.00  0.00    +0.000 NA
ATOM     23  H   UNL     1       6.143   2.782  16.955  0.00  0.00    +0.000 HD
ENDBRANCH  18  22
ENDBRANCH   1  18
TORSDOF 2
ENDMDL
MODEL 6
REMARK VINA RESULT:      -7.4      2.936      4.058
REMARK  Name = 
REMARK  3 active torsions:
REMARK  status: ('A' for Active; 'I' for Inactive)
REMARK    1  A    between atoms: C_1  and  N_2
REMARK    2  A    between atoms: N_2  and  S_3
REMARK    3  A    between atoms: S_3  and  C_6
REMARK                            x       y       z     vdW  Elec       q    Type
REMARK                         _______ _______ _______ _____ _____    ______ ____
ROOT
ATOM      1  C   UNL     1       3.939   4.367  19.643  0.00  0.00    +0.000 C 
ATOM      2  C   UNL     1       4.944   4.536  18.489  0.00  0.00    +0.000 C 
ATOM      3  C   UNL     1       5.123   6.008  18.082  0.00  0.00    +0.000 C 
ATOM      4  C   UNL     1       3.777   6.717  17.868  0.00  0.00    +0.000 C 
ATOM      5  N   UNL     1       3.015   6.513  19.095  0.00  0.00    +0.000 N 
ATOM      6  C   UNL     1       2.143   7.501  19.521  0.00  0.00    +0.000 A 
ATOM      7  C   UNL     1       1.856   7.579  20.884  0.00  0.00    +0.000 A 
ATOM      8  C   UNL     1       1.061   8.605  21.359  0.00  0.00    +0.000 A 
ATOM      9  C   UNL     1       0.548   9.526  20.452  0.00  0.00    +0.000 A 
ATOM     10  C   UNL     1      -0.275  10.576  20.884  0.00  0.00    +0.000 A 
ATOM     11  C   UNL     1      -0.796  11.446  19.944  0.00  0.00    +0.000 A 
ATOM     12 CL   UNL     1      -1.831  12.729  20.415  0.00  0.00    +0.000 Cl
ATOM     13  C   UNL     1      -0.459  11.242  18.622  0.00  0.00    +0.000 A 
ATOM     14  N   UNL     1       0.357  10.246  18.190  0.00  0.00    +0.000 NA
ATOM     15  C   UNL     1       0.861   9.389  19.084  0.00  0.00    +0.000 A 
ATOM     16  N   UNL     1       1.660   8.408  18.654  0.00  0.00    +0.000 NA
ATOM     17  C   UNL     1       2.647   5.115  19.347  0.00  0.00    +0.000 C 
ENDROOT
BRANCH   1  18
ATOM     18  S   UNL     1       3.610   2.644  19.977  0.00  0.00    +0.000 S 
ATOM     19  O   UNL     1       4.872   1.958  20.128  0.00  0.00    +0.000 OA
ATOM     20  O   UNL     1       2.583   2.162  19.080  0.00  0.00    +0.000 OA
BRANCH  18  22
ATOM     21  C   UNL     1       1.466   2.615  21.555  0.00  0.00    +0.000 C 
ATOM     22  N   UNL     1       2.940   2.705  21.540  0.00  0.00    +0.000 NA
ATOM     23  H   UNL     1       3.343   1.972  22.126  0.00  0.00    +0.000 HD
ENDBRANCH  18  22
ENDBRANCH   1  18
TORSDOF 2
ENDMDL
MODEL 7
REMARK VINA RESULT:      -7.4      1.318      1.374
REMARK  Name = 
REMARK  3 active torsions:
REMARK  status: ('A' for Active; 'I' for Inactive)
REMARK    1  A    between atoms: C_1  and  N_2
REMARK    2  A    between atoms: N_2  and  S_3
REMARK    3  A    between atoms: S_3  and  C_6
REMARK                            x       y       z     vdW  Elec       q    Type
REMARK                         _______ _______ _______ _____ _____    ______ ____
ROOT
ATOM      1  C   UNL     1       4.468   4.695  17.686  0.00  0.00    +0.000 C 
ATOM      2  C   UNL     1       4.042   3.375  18.353  0.00  0.00    +0.000 C 
ATOM      3  C   UNL     1       2.675   3.488  19.050  0.00  0.00    +0.000 C 
ATOM      4  C   UNL     1       2.592   4.723  19.961  0.00  0.00    +0.000 C 
ATOM      5  N   UNL     1       2.945   5.865  19.125  0.00  0.00    +0.000 N 
ATOM      6  C   UNL     1       2.347   7.091  19.367  0.00  0.00    +0.000 A 
ATOM      7  C   UNL     1       2.239   7.988  18.305  0.00  0.00    +0.000 A 
ATOM      8  C   UNL     1       1.570   9.184  18.483  0.00  0.00    +0.000 A 
ATOM      9  C   UNL     1       1.037   9.470  19.736  0.00  0.00    +0.000 A 
ATOM     10  C   UNL     1       0.363  10.676  19.971  0.00  0.00    +0.000 A 
ATOM     11  C   UNL     1      -0.117  10.937  21.241  0.00  0.00    +0.000 A 
ATOM     12 CL   UNL     1      -0.923  12.409  21.588  0.00  0.00    +0.000 Cl
ATOM     13  C   UNL     1       0.082   9.978  22.213  0.00  0.00    +0.000 A 
ATOM     14  N   UNL     1       0.710   8.794  21.996  0.00  0.00    +0.000 NA
ATOM     15  C   UNL     1       1.190   8.530  20.776  0.00  0.00    +0.000 A 
ATOM     16  N   UNL     1       1.811   7.365  20.568  0.00  0.00    +0.000 NA
ATOM     17  C   UNL     1       4.336   5.859  18.659  0.00  0.00    +0.000 C 
ENDROOT
BRANCH   1  18
ATOM     18  S   UNL     1       6.131   4.594  17.041  0.00  0.00    +0.000 S 
ATOM     19  O   UNL     1       6.132   3.686  15.919  0.00  0.00    +0.000 OA
ATOM     20  O   UNL     1       7.069   4.458  18.135  0.00  0.00    +0.000 OA
BRANCH  18  22
ATOM     21  C   UNL     1       5.322   6.501  15.368  0.00  0.00    +0.000 C 
ATOM     22  N   UNL     1       6.347   6.142  16.369  0.00  0.00    +0.000 NA
ATOM     23  H   UNL     1       6.378   6.848  17.107  0.00  0.00    +0.000 HD
ENDBRANCH  18  22
ENDBRANCH   1  18
TORSDOF 2
ENDMDL
MODEL 8
REMARK VINA RESULT:      -7.3      2.864      3.921
REMARK  Name = 
REMARK  3 active torsions:
REMARK  status: ('A' for Active; 'I' for Inactive)
REMARK    1  A    between atoms: C_1  and  N_2
REMARK    2  A    between atoms: N_2  and  S_3
REMARK    3  A    between atoms: S_3  and  C_6
REMARK                            x       y       z     vdW  Elec       q    Type
REMARK                         _______ _______ _______ _____ _____    ______ ____
ROOT
ATOM      1  C   UNL     1       3.372   4.453  18.722  0.00  0.00    +0.000 C 
ATOM      2  C   UNL     1       4.451   4.746  17.664  0.00  0.00    +0.000 C 
ATOM      3  C   UNL     1       4.851   6.231  17.634  0.00  0.00    +0.000 C 
ATOM      4  C   UNL     1       3.627   7.158  17.575  0.00  0.00    +0.000 C 
ATOM      5  N   UNL     1       2.779   6.778  18.700  0.00  0.00    +0.000 N 
ATOM      6  C   UNL     1       2.028   7.751  19.338  0.00  0.00    +0.000 A 
ATOM      7  C   UNL     1       1.682   7.540  20.673  0.00  0.00    +0.000 A 
ATOM      8  C   UNL     1       1.009   8.526  21.370  0.00  0.00    +0.000 A 
ATOM      9  C   UNL     1       0.675   9.702  20.707  0.00  0.00    +0.000 A 
ATOM     10  C   UNL     1      -0.020  10.726  21.367  0.00  0.00    +0.000 A 
ATOM     11  C   UNL     1      -0.366  11.862  20.659  0.00  0.00    +0.000 A 
ATOM     12 CL   UNL     1      -1.241  13.130  21.411  0.00  0.00    +0.000 Cl
ATOM     13  C   UNL     1       0.010  11.934  19.334  0.00  0.00    +0.000 A 
ATOM     14  N   UNL     1       0.706  10.963  18.687  0.00  0.00    +0.000 NA
ATOM     15  C   UNL     1       1.040   9.853  19.353  0.00  0.00    +0.000 A 
ATOM     16  N   UNL     1       1.720   8.899  18.711  0.00  0.00    +0.000 NA
ATOM     17  C   UNL     1       2.211   5.429  18.594  0.00  0.00    +0.000 C 
ENDROOT
BRANCH   1  18
ATOM     18  S   UNL     1       2.795   2.766  18.617  0.00  0.00    +0.000 S 
ATOM     19  O   UNL     1       3.814   1.899  19.161  0.00  0.00    +0.000 OA
ATOM     20  O   UNL     1       2.210   2.533  17.315  0.00  0.00    +0.000 OA
BRANCH  18  22
ATOM     21  C   UNL     1       2.000   2.646  21.156  0.00  0.00    +0.000 C 
ATOM     22  N   UNL     1       1.533   2.749  19.758  0.00  0.00    +0.000 NA
ATOM     23  H   UNL     1       0.943   3.575  19.645  0.00  0.00    +0.000 HD
ENDBRANCH  18  22
ENDBRANCH   1  18
TORSDOF 2
ENDMDL
MODEL 9
REMARK VINA RESULT:      -7.3      2.379      2.906
REMARK  Name = 
REMARK  3 active torsions:
REMARK  status: ('A' for Active; 'I' for Inactive)
REMARK    1  A    between atoms: C_1  and  N_2
REMARK    2  A    between atoms: N_2  and  S_3
REMARK    3  A    between atoms: S_3  and  C_6
REMARK                            x       y       z     vdW  Elec       q    Type
REMARK                         _______ _______ _______ _____ _____    ______ ____
ROOT
ATOM      1  C   UNL     1       3.409   4.515  19.054  0.00  0.00    +0.000 C 
ATOM      2  C   UNL     1       2.581   3.641  20.015  0.00  0.00    +0.000 C 
ATOM      3  C   UNL     1       1.244   4.299  20.397  0.00  0.00    +0.000 C 
ATOM      4  C   UNL     1       1.426   5.756  20.851  0.00  0.00    +0.000 C 
ATOM      5  N   UNL     1       2.149   6.426  19.775  0.00  0.00    +0.000 N 
ATOM      6  C   UNL     1       1.892   7.763  19.518  0.00  0.00    +0.000 A 
ATOM      7  C   UNL     1       2.125   8.238  18.229  0.00  0.00    +0.000 A 
ATOM      8  C   UNL     1       1.798   9.543  17.910  0.00  0.00    +0.000 A 
ATOM      9  C   UNL     1       1.260  10.356  18.900  0.00  0.00    +0.000 A 
ATOM     10  C   UNL     1       0.925  11.691  18.630  0.00  0.00    +0.000 A 
ATOM     11  C   UNL     1       0.429  12.476  19.654  0.00  0.00    +0.000 A 
ATOM     12 CL   UNL     1       0.032  14.122  19.384  0.00  0.00    +0.000 Cl
ATOM     13  C   UNL     1       0.274  11.892  20.895  0.00  0.00    +0.000 A 
ATOM     14  N   UNL     1       0.569  10.595  21.167  0.00  0.00    +0.000 NA
ATOM     15  C   UNL     1       1.059   9.824  20.191  0.00  0.00    +0.000 A 
ATOM     16  N   UNL     1       1.352   8.549  20.465  0.00  0.00    +0.000 NA
ATOM     17  C   UNL     1       3.519   5.939  19.580  0.00  0.00    +0.000 C 
ENDROOT
BRANCH   1  18
ATOM     18  S   UNL     1       5.028   3.818  18.769  0.00  0.00    +0.000 S 
ATOM     19  O   UNL     1       5.269   3.788  17.345  0.00  0.00    +0.000 OA
ATOM     20  O   UNL     1       5.206   2.646  19.598  0.00  0.00    +0.000 OA
BRANCH  18  22
ATOM     21  C   UNL     1       7.120   5.431  18.434  0.00  0.00    +0.000 C 
ATOM     22  N   UNL     1       6.051   5.035  19.374  0.00  0.00    +0.000 NA
ATOM     23  H   UNL     1       5.505   5.853  19.648  0.00  0.00    +0.000 HD
ENDBRANCH  18  22
ENDBRANCH   1  18
TORSDOF 2
ENDMDL
