MODEL 1
REMARK VINA RESULT:      -8.2      0.000      0.000
REMARK  Name = 
REMARK  12 active torsions:
REMARK  status: ('A' for Active; 'I' for Inactive)
REMARK    1  A    between atoms: C_1  and  O_2
REMARK    2  A    between atoms: O_2  and  C_3
REMARK    3  A    between atoms: C_6  and  N_7
REMARK    4  A    between atoms: C_8  and  C_10
REMARK    5  A    between atoms: C_10  and  C_11
REMARK    6  A    between atoms: C_11  and  C_12
REMARK    7  A    between atoms: C_12  and  C_13
REMARK    8  A    between atoms: N_17  and  C_18
REMARK    9  A    between atoms: C_18  and  C_19
REMARK   10  A    between atoms: C_19  and  C_20
REMARK   11  A    between atoms: C_20  and  C_21
REMARK   12  A    between atoms: C_20  and  C_22
REMARK                            x       y       z     vdW  Elec       q    Type
REMARK                         _______ _______ _______ _____ _____    ______ ____
ROOT
ATOM      1  C   UNL     1       2.854   7.324  18.250  0.00  0.00    +0.000 A 
ATOM      2  N   UNL     1       3.784   7.788  17.434  0.00  0.00    +0.000 NA
ATOM      3  N   UNL     1       4.530   6.739  16.970  0.00  0.00    +0.000 NA
ATOM      4  C   UNL     1       4.068   5.637  17.512  0.00  0.00    +0.000 A 
ATOM      5  N   UNL     1       4.525   4.329  17.296  0.00  0.00    +0.000 N 
ATOM      6  C   UNL     1       3.859   3.255  17.923  0.00  0.00    +0.000 A 
ATOM      7  O   UNL     1       4.167   2.083  17.708  0.00  0.00    +0.000 OA
ATOM      8  C   UNL     1       2.789   3.635  18.836  0.00  0.00    +0.000 A 
ATOM      9  S   UNL     1       1.914   2.486  19.731  0.00  0.00    +0.000 S 
ATOM     10  C   UNL     1       0.975   3.708  20.473  0.00  0.00    +0.000 A 
ATOM     11  C   UNL     1       1.314   4.977  20.038  0.00  0.00    +0.000 A 
ATOM     12  C   UNL     1       2.356   4.924  19.079  0.00  0.00    +0.000 A 
ATOM     13  N   UNL     1       3.011   5.953  18.359  0.00  0.00    +0.000 N 
ENDROOT
BRANCH   1  14
ATOM     14  C   UNL     1       1.838   8.203  18.902  0.00  0.00    +0.000 C 
BRANCH  14  15
ATOM     15  C   UNL     1       1.374   9.302  17.947  0.00  0.00    +0.000 C 
BRANCH  15  16
ATOM     16  C   UNL     1       1.519  10.715  18.509  0.00  0.00    +0.000 C 
BRANCH  16  18
ATOM     17  N   UNL     1      -0.874  10.586  18.018  0.00  0.00    +0.000 N 
ATOM     18  C   UNL     1       0.153  11.373  18.519  0.00  0.00    +0.000 C 
ATOM     19  O   UNL     1       0.068  12.550  18.866  0.00  0.00    +0.000 OA
ATOM     20  H   UNL     1      -0.632   9.675  17.646  0.00  0.00    +0.000 HD
BRANCH  17  24
ATOM     21  C   UNL     1      -4.941  11.704  17.510  0.00  0.00    +0.000 A 
ATOM     22  C   UNL     1      -4.191  11.254  16.422  0.00  0.00    +0.000 A 
ATOM     23  C   UNL     1      -2.846  10.914  16.582  0.00  0.00    +0.000 A 
ATOM     24  C   UNL     1      -2.211  11.015  17.819  0.00  0.00    +0.000 A 
ATOM     25  C   UNL     1      -2.932  11.542  18.895  0.00  0.00    +0.000 A 
ATOM     26  C   UNL     1      -4.290  11.879  18.741  0.00  0.00    +0.000 A 
ATOM     27 CL   UNL     1      -5.148  12.469  20.124  0.00  0.00    +0.000 Cl
BRANCH  21  29
ATOM     28  C   UNL     1      -6.558  13.345  16.983  0.00  0.00    +0.000 C 
ATOM     29  O   UNL     1      -6.273  12.013  17.414  0.00  0.00    +0.000 OA
ENDBRANCH  21  29
ENDBRANCH  17  24
ENDBRANCH  16  18
ENDBRANCH  15  16
ENDBRANCH  14  15
ENDBRANCH   1  14
BRANCH   5  30
ATOM     30  C   UNL     1       5.594   4.045  16.340  0.00  0.00    +0.000 C 
BRANCH  30  31
ATOM     31  C   UNL     1       5.158   3.993  14.870  0.00  0.00    +0.000 C 
BRANCH  31  32
ATOM     32  C   UNL     1       6.278   3.748  13.841  0.00  0.00    +0.000 C 
ATOM     33  C   UNL     1       5.747   3.494  12.431  0.00  0.00    +0.000 C 
ATOM     34  C   UNL     1       7.217   4.959  13.821  0.00  0.00    +0.000 C 
ENDBRANCH  31  32
ENDBRANCH  30  31
ENDBRANCH   5  30
TORSDOF 9
ENDMDL
MODEL 2
REMARK VINA RESULT:      -8.0      0.969      1.205
REMARK  Name = 
REMARK  12 active torsions:
REMARK  status: ('A' for Active; 'I' for Inactive)
REMARK    1  A    between atoms: C_1  and  O_2
REMARK    2  A    between atoms: O_2  and  C_3
REMARK    3  A    between atoms: C_6  and  N_7
REMARK    4  A    between atoms: C_8  and  C_10
REMARK    5  A    between atoms: C_10  and  C_11
REMARK    6  A    between atoms: C_11  and  C_12
REMARK    7  A    between atoms: C_12  and  C_13
REMARK    8  A    between atoms: N_17  and  C_18
REMARK    9  A    between atoms: C_18  and  C_19
REMARK   10  A    between atoms: C_19  and  C_20
REMARK   11  A    between atoms: C_20  and  C_21
REMARK   12  A    between atoms: C_20  and  C_22
REMARK                            x       y       z     vdW  Elec       q    Type
REMARK                         _______ _______ _______ _____ _____    ______ ____
ROOT
ATOM      1  C   UNL     1       3.081   7.121  18.246  0.00  0.00    +0.000 A 
ATOM      2  N   UNL     1       4.028   7.508  17.411  0.00  0.00    +0.000 NA
ATOM      3  N   UNL     1       4.682   6.402  16.938  0.00  0.00    +0.000 NA
ATOM      4  C   UNL     1       4.145   5.342  17.494  0.00  0.00    +0.000 A 
ATOM      5  N   UNL     1       4.494   4.001  17.276  0.00  0.00    +0.000 N 
ATOM      6  C   UNL     1       3.759   2.985  17.920  0.00  0.00    +0.000 A 
ATOM      7  O   UNL     1       3.969   1.792  17.705  0.00  0.00    +0.000 OA
ATOM      8  C   UNL     1       2.739   3.451  18.851  0.00  0.00    +0.000 A 
ATOM      9  S   UNL     1       1.794   2.376  19.768  0.00  0.00    +0.000 S 
ATOM     10  C   UNL     1       0.967   3.670  20.521  0.00  0.00    +0.000 A 
ATOM     11  C   UNL     1       1.396   4.908  20.073  0.00  0.00    +0.000 A 
ATOM     12  C   UNL     1       2.413   4.770  19.095  0.00  0.00    +0.000 A 
ATOM     13  N   UNL     1       3.132   5.742  18.359  0.00  0.00    +0.000 N 
ENDROOT
BRANCH   1  14
ATOM     14  C   UNL     1       2.149   8.079  18.913  0.00  0.00    +0.000 C 
BRANCH  14  15
ATOM     15  C   UNL     1       1.526   9.033  17.894  0.00  0.00    +0.000 C 
BRANCH  15  16
ATOM     16  C   UNL     1       1.184  10.409  18.461  0.00  0.00    +0.000 C 
BRANCH  16  18
ATOM     17  N   UNL     1      -1.067  11.239  17.977  0.00  0.00    +0.000 N 
ATOM     18  C   UNL     1      -0.292  10.437  18.805  0.00  0.00    +0.000 C 
ATOM     19  O   UNL     1      -0.674   9.847  19.814  0.00  0.00    +0.000 OA
ATOM     20  H   UNL     1      -0.592  11.771  17.258  0.00  0.00    +0.000 HD
BRANCH  17  24
ATOM     21  C   UNL     1      -5.204  11.915  18.660  0.00  0.00    +0.000 A 
ATOM     22  C   UNL     1      -4.772  11.325  17.471  0.00  0.00    +0.000 A 
ATOM     23  C   UNL     1      -3.409  11.129  17.234  0.00  0.00    +0.000 A 
ATOM     24  C   UNL     1      -2.445  11.515  18.163  0.00  0.00    +0.000 A 
ATOM     25  C   UNL     1      -2.865  12.181  19.319  0.00  0.00    +0.000 A 
ATOM     26  C   UNL     1      -4.236  12.374  19.567  0.00  0.00    +0.000 A 
ATOM     27 CL   UNL     1      -4.698  13.150  21.044  0.00  0.00    +0.000 Cl
BRANCH  21  29
ATOM     28  C   UNL     1      -7.158  10.995  19.620  0.00  0.00    +0.000 C 
ATOM     29  O   UNL     1      -6.530  12.094  18.959  0.00  0.00    +0.000 OA
ENDBRANCH  21  29
ENDBRANCH  17  24
ENDBRANCH  16  18
ENDBRANCH  15  16
ENDBRANCH  14  15
ENDBRANCH   1  14
BRANCH   5  30
ATOM     30  C   UNL     1       5.520   3.631  16.302  0.00  0.00    +0.000 C 
BRANCH  30  31
ATOM     31  C   UNL     1       5.060   3.633  14.838  0.00  0.00    +0.000 C 
BRANCH  31  32
ATOM     32  C   UNL     1       5.923   4.452  13.859  0.00  0.00    +0.000 C 
ATOM     33  C   UNL     1       7.211   4.975  14.495  0.00  0.00    +0.000 C 
ATOM     34  C   UNL     1       6.271   3.583  12.646  0.00  0.00    +0.000 C 
ENDBRANCH  31  32
ENDBRANCH  30  31
ENDBRANCH   5  30
TORSDOF 9
ENDMDL
MODEL 3
REMARK VINA RESULT:      -8.0      3.663      4.346
REMARK  Name = 
REMARK  12 active torsions:
REMARK  status: ('A' for Active; 'I' for Inactive)
REMARK    1  A    between atoms: C_1  and  O_2
REMARK    2  A    between atoms: O_2  and  C_3
REMARK    3  A    between atoms: C_6  and  N_7
REMARK    4  A    between atoms: C_8  and  C_10
REMARK    5  A    between atoms: C_10  and  C_11
REMARK    6  A    between atoms: C_11  and  C_12
REMARK    7  A    between atoms: C_12  and  C_13
REMARK    8  A    between atoms: N_17  and  C_18
REMARK    9  A    between atoms: C_18  and  C_19
REMARK   10  A    between atoms: C_19  and  C_20
REMARK   11  A    between atoms: C_20  and  C_21
REMARK   12  A    between atoms: C_20  and  C_22
REMARK                            x       y       z     vdW  Elec       q    Type
REMARK                         _______ _______ _______ _____ _____    ______ ____
ROOT
ATOM      1  C   UNL     1       1.953   7.249  20.006  0.00  0.00    +0.000 A 
ATOM      2  N   UNL     1       2.272   8.181  19.126  0.00  0.00    +0.000 NA
ATOM      3  N   UNL     1       3.061   7.622  18.156  0.00  0.00    +0.000 NA
ATOM      4  C   UNL     1       3.235   6.356  18.450  0.00  0.00    +0.000 A 
ATOM      5  N   UNL     1       3.958   5.406  17.714  0.00  0.00    +0.000 N 
ATOM      6  C   UNL     1       3.984   4.067  18.156  0.00  0.00    +0.000 A 
ATOM      7  O   UNL     1       4.536   3.178  17.509  0.00  0.00    +0.000 OA
ATOM      8  C   UNL     1       3.313   3.819  19.426  0.00  0.00    +0.000 A 
ATOM      9  S   UNL     1       3.292   2.282  20.151  0.00  0.00    +0.000 S 
ATOM     10  C   UNL     1       2.395   2.870  21.484  0.00  0.00    +0.000 A 
ATOM     11  C   UNL     1       2.104   4.219  21.374  0.00  0.00    +0.000 A 
ATOM     12  C   UNL     1       2.628   4.757  20.172  0.00  0.00    +0.000 A 
ATOM     13  N   UNL     1       2.570   6.066  19.636  0.00  0.00    +0.000 N 
ENDROOT
BRANCH   1  14
ATOM     14  C   UNL     1       1.063   7.513  21.176  0.00  0.00    +0.000 C 
BRANCH  14  15
ATOM     15  C   UNL     1       1.282   8.924  21.720  0.00  0.00    +0.000 C 
BRANCH  15  16
ATOM     16  C   UNL     1       0.338   9.970  21.129  0.00  0.00    +0.000 C 
BRANCH  16  18
ATOM     17  N   UNL     1      -1.100  11.798  21.888  0.00  0.00    +0.000 N 
ATOM     18  C   UNL     1      -0.369  10.680  22.267  0.00  0.00    +0.000 C 
ATOM     19  O   UNL     1      -0.176  10.290  23.417  0.00  0.00    +0.000 OA
ATOM     20  H   UNL     1      -1.065  12.078  20.914  0.00  0.00    +0.000 HD
BRANCH  17  24
ATOM     21  C   UNL     1      -3.148  14.546  24.398  0.00  0.00    +0.000 A 
ATOM     22  C   UNL     1      -1.794  14.726  24.111  0.00  0.00    +0.000 A 
ATOM     23  C   UNL     1      -1.113  13.807  23.309  0.00  0.00    +0.000 A 
ATOM     24  C   UNL     1      -1.753  12.689  22.778  0.00  0.00    +0.000 A 
ATOM     25  C   UNL     1      -3.087  12.457  23.128  0.00  0.00    +0.000 A 
ATOM     26  C   UNL     1      -3.779  13.384  23.929  0.00  0.00    +0.000 A 
ATOM     27 CL   UNL     1      -5.447  13.075  24.279  0.00  0.00    +0.000 Cl
BRANCH  21  29
ATOM     28  C   UNL     1      -3.441  16.797  25.054  0.00  0.00    +0.000 C 
ATOM     29  O   UNL     1      -3.871  15.438  25.147  0.00  0.00    +0.000 OA
ENDBRANCH  21  29
ENDBRANCH  17  24
ENDBRANCH  16  18
ENDBRANCH  15  16
ENDBRANCH  14  15
ENDBRANCH   1  14
BRANCH   5  30
ATOM     30  C   UNL     1       4.581   5.747  16.436  0.00  0.00    +0.000 C 
BRANCH  30  31
ATOM     31  C   UNL     1       5.980   6.370  16.537  0.00  0.00    +0.000 C 
BRANCH  31  32
ATOM     32  C   UNL     1       7.162   5.426  16.254  0.00  0.00    +0.000 C 
ATOM     33  C   UNL     1       7.592   4.624  17.482  0.00  0.00    +0.000 C 
ATOM     34  C   UNL     1       6.777   4.461  15.126  0.00  0.00    +0.000 C 
ENDBRANCH  31  32
ENDBRANCH  30  31
ENDBRANCH   5  30
TORSDOF 9
ENDMDL
MODEL 4
REMARK VINA RESULT:      -7.9      3.506      4.098
REMARK  Name = 
REMARK  12 active torsions:
REMARK  status: ('A' for Active; 'I' for Inactive)
REMARK    1  A    between atoms: C_1  and  O_2
REMARK    2  A    between atoms: O_2  and  C_3
REMARK    3  A    between atoms: C_6  and  N_7
REMARK    4  A    between atoms: C_8  and  C_10
REMARK    5  A    between atoms: C_10  and  C_11
REMARK    6  A    between atoms: C_11  and  C_12
REMARK    7  A    between atoms: C_12  and  C_13
REMARK    8  A    between atoms: N_17  and  C_18
REMARK    9  A    between atoms: C_18  and  C_19
REMARK   10  A    between atoms: C_19  and  C_20
REMARK   11  A    between atoms: C_20  and  C_21
REMARK   12  A    between atoms: C_20  and  C_22
REMARK                            x       y       z     vdW  Elec       q    Type
REMARK                         _______ _______ _______ _____ _____    ______ ____
ROOT
ATOM      1  C   UNL     1       1.971   7.532  19.765  0.00  0.00    +0.000 A 
ATOM      2  N   UNL     1       2.319   8.445  18.876  0.00  0.00    +0.000 NA
ATOM      3  N   UNL     1       3.171   7.877  17.967  0.00  0.00    +0.000 NA
ATOM      4  C   UNL     1       3.354   6.623  18.308  0.00  0.00    +0.000 A 
ATOM      5  N   UNL     1       4.135   5.669  17.641  0.00  0.00    +0.000 N 
ATOM      6  C   UNL     1       4.164   4.344  18.124  0.00  0.00    +0.000 A 
ATOM      7  O   UNL     1       4.768   3.449  17.534  0.00  0.00    +0.000 OA
ATOM      8  C   UNL     1       3.430   4.117  19.362  0.00  0.00    +0.000 A 
ATOM      9  S   UNL     1       3.400   2.602  20.130  0.00  0.00    +0.000 S 
ATOM     10  C   UNL     1       2.420   3.208  21.394  0.00  0.00    +0.000 A 
ATOM     11  C   UNL     1       2.108   4.546  21.229  0.00  0.00    +0.000 A 
ATOM     12  C   UNL     1       2.686   5.061  20.042  0.00  0.00    +0.000 A 
ATOM     13  N   UNL     1       2.631   6.353  19.465  0.00  0.00    +0.000 N 
ENDROOT
BRANCH   1  14
ATOM     14  C   UNL     1       1.014   7.810  20.877  0.00  0.00    +0.000 C 
BRANCH  14  15
ATOM     15  C   UNL     1       0.338   9.168  20.689  0.00  0.00    +0.000 C 
BRANCH  15  16
ATOM     16  C   UNL     1       0.819  10.241  21.664  0.00  0.00    +0.000 C 
BRANCH  16  18
ATOM     17  N   UNL     1      -0.955  11.925  21.752  0.00  0.00    +0.000 N 
ATOM     18  C   UNL     1      -0.387  10.822  22.376  0.00  0.00    +0.000 C 
ATOM     19  O   UNL     1      -0.710  10.355  23.468  0.00  0.00    +0.000 OA
ATOM     20  H   UNL     1      -0.501  12.280  20.919  0.00  0.00    +0.000 HD
BRANCH  17  24
ATOM     21  C   UNL     1      -4.152  14.132  23.470  0.00  0.00    +0.000 A 
ATOM     22  C   UNL     1      -4.344  13.415  22.287  0.00  0.00    +0.000 A 
ATOM     23  C   UNL     1      -3.285  12.713  21.707  0.00  0.00    +0.000 A 
ATOM     24  C   UNL     1      -2.014  12.707  22.278  0.00  0.00    +0.000 A 
ATOM     25  C   UNL     1      -1.793  13.489  23.416  0.00  0.00    +0.000 A 
ATOM     26  C   UNL     1      -2.858  14.192  24.010  0.00  0.00    +0.000 A 
ATOM     27 CL   UNL     1      -2.538  15.093  25.453  0.00  0.00    +0.000 Cl
BRANCH  21  29
ATOM     28  C   UNL     1      -6.428  14.765  23.433  0.00  0.00    +0.000 C 
ATOM     29  O   UNL     1      -5.166  14.805  24.100  0.00  0.00    +0.000 OA
ENDBRANCH  21  29
ENDBRANCH  17  24
ENDBRANCH  16  18
ENDBRANCH  15  16
ENDBRANCH  14  15
ENDBRANCH   1  14
BRANCH   5  30
ATOM     30  C   UNL     1       4.820   5.987  16.388  0.00  0.00    +0.000 C 
BRANCH  30  31
ATOM     31  C   UNL     1       6.345   6.120  16.494  0.00  0.00    +0.000 C 
BRANCH  31  32
ATOM     32  C   UNL     1       6.882   6.709  17.812  0.00  0.00    +0.000 C 
ATOM     33  C   UNL     1       7.697   5.704  18.625  0.00  0.00    +0.000 C 
ATOM     34  C   UNL     1       7.750   7.933  17.500  0.00  0.00    +0.000 C 
ENDBRANCH  31  32
ENDBRANCH  30  31
ENDBRANCH   5  30
TORSDOF 9
ENDMDL
MODEL 5
REMARK VINA RESULT:      -7.8      2.943      3.563
REMARK  Name = 
REMARK  12 active torsions:
REMARK  status: ('A' for Active; 'I' for Inactive)
REMARK    1  A    between atoms: C_1  and  O_2
REMARK    2  A    between atoms: O_2  and  C_3
REMARK    3  A    between atoms: C_6  and  N_7
REMARK    4  A    between atoms: C_8  and  C_10
REMARK    5  A    between atoms: C_10  and  C_11
REMARK    6  A    between atoms: C_11  and  C_12
REMARK    7  A    between atoms: C_12  and  C_13
REMARK    8  A    between atoms: N_17  and  C_18
REMARK    9  A    between atoms: C_18  and  C_19
REMARK   10  A    between atoms: C_19  and  C_20
REMARK   11  A    between atoms: C_20  and  C_21
REMARK   12  A    between atoms: C_20  and  C_22
REMARK                            x       y       z     vdW  Elec       q    Type
REMARK                         _______ _______ _______ _____ _____    ______ ____
ROOT
ATOM      1  C   UNL     1       2.156   7.812  19.027  0.00  0.00    +0.000 A 
ATOM      2  N   UNL     1       2.784   8.593  18.166  0.00  0.00    +0.000 NA
ATOM      3  N   UNL     1       3.634   7.827  17.413  0.00  0.00    +0.000 NA
ATOM      4  C   UNL     1       3.535   6.585  17.822  0.00  0.00    +0.000 A 
ATOM      5  N   UNL     1       4.213   5.468  17.312  0.00  0.00    +0.000 N 
ATOM      6  C   UNL     1       3.931   4.191  17.841  0.00  0.00    +0.000 A 
ATOM      7  O   UNL     1       4.436   3.169  17.379  0.00  0.00    +0.000 OA
ATOM      8  C   UNL     1       3.005   4.175  18.966  0.00  0.00    +0.000 A 
ATOM      9  S   UNL     1       2.593   2.740  19.776  0.00  0.00    +0.000 S 
ATOM     10  C   UNL     1       1.576   3.587  20.861  0.00  0.00    +0.000 A 
ATOM     11  C   UNL     1       1.541   4.946  20.603  0.00  0.00    +0.000 A 
ATOM     12  C   UNL     1       2.361   5.276  19.495  0.00  0.00    +0.000 A 
ATOM     13  N   UNL     1       2.623   6.519  18.870  0.00  0.00    +0.000 N 
ENDROOT
BRANCH   1  14
ATOM     14  C   UNL     1       1.123   8.323  19.977  0.00  0.00    +0.000 C 
BRANCH  14  15
ATOM     15  C   UNL     1       1.585   8.163  21.425  0.00  0.00    +0.000 C 
BRANCH  15  16
ATOM     16  C   UNL     1       1.422   9.424  22.272  0.00  0.00    +0.000 C 
BRANCH  16  18
ATOM     17  N   UNL     1      -0.271  11.170  22.002  0.00  0.00    +0.000 N 
ATOM     18  C   UNL     1      -0.040   9.826  22.263  0.00  0.00    +0.000 C 
ATOM     19  O   UNL     1      -0.884   8.987  22.572  0.00  0.00    +0.000 OA
ATOM     20  H   UNL     1       0.535  11.774  21.891  0.00  0.00    +0.000 HD
BRANCH  17  24
ATOM     21  C   UNL     1      -4.148  12.898  22.153  0.00  0.00    +0.000 A 
ATOM     22  C   UNL     1      -3.425  12.891  20.959  0.00  0.00    +0.000 A 
ATOM     23  C   UNL     1      -2.138  12.349  20.916  0.00  0.00    +0.000 A 
ATOM     24  C   UNL     1      -1.537  11.807  22.051  0.00  0.00    +0.000 A 
ATOM     25  C   UNL     1      -2.222  11.884  23.267  0.00  0.00    +0.000 A 
ATOM     26  C   UNL     1      -3.522  12.422  23.315  0.00  0.00    +0.000 A 
ATOM     27 CL   UNL     1      -4.345  12.435  24.839  0.00  0.00    +0.000 Cl
BRANCH  21  29
ATOM     28  C   UNL     1      -5.537  14.805  22.292  0.00  0.00    +0.000 C 
ATOM     29  O   UNL     1      -5.428  13.382  22.240  0.00  0.00    +0.000 OA
ENDBRANCH  21  29
ENDBRANCH  17  24
ENDBRANCH  16  18
ENDBRANCH  15  16
ENDBRANCH  14  15
ENDBRANCH   1  14
BRANCH   5  30
ATOM     30  C   UNL     1       5.109   5.582  16.162  0.00  0.00    +0.000 C 
BRANCH  30  31
ATOM     31  C   UNL     1       6.597   5.735  16.508  0.00  0.00    +0.000 C 
BRANCH  31  32
ATOM     32  C   UNL     1       6.912   6.466  17.826  0.00  0.00    +0.000 C 
ATOM     33  C   UNL     1       7.756   5.627  18.785  0.00  0.00    +0.000 C 
ATOM     34  C   UNL     1       7.647   7.774  17.512  0.00  0.00    +0.000 C 
ENDBRANCH  31  32
ENDBRANCH  30  31
ENDBRANCH   5  30
TORSDOF 9
ENDMDL
MODEL 6
REMARK VINA RESULT:      -7.8      3.915      4.380
REMARK  Name = 
REMARK  12 active torsions:
REMARK  status: ('A' for Active; 'I' for Inactive)
REMARK    1  A    between atoms: C_1  and  O_2
REMARK    2  A    between atoms: O_2  and  C_3
REMARK    3  A    between atoms: C_6  and  N_7
REMARK    4  A    between atoms: C_8  and  C_10
REMARK    5  A    between atoms: C_10  and  C_11
REMARK    6  A    between atoms: C_11  and  C_12
REMARK    7  A    between atoms: C_12  and  C_13
REMARK    8  A    between atoms: N_17  and  C_18
REMARK    9  A    between atoms: C_18  and  C_19
REMARK   10  A    between atoms: C_19  and  C_20
REMARK   11  A    between atoms: C_20  and  C_21
REMARK   12  A    between atoms: C_20  and  C_22
REMARK                            x       y       z     vdW  Elec       q    Type
REMARK                         _______ _______ _______ _____ _____    ______ ____
ROOT
ATOM      1  C   UNL     1       2.093   6.926  19.562  0.00  0.00    +0.000 A 
ATOM      2  N   UNL     1       2.563   8.013  18.976  0.00  0.00    +0.000 NA
ATOM      3  N   UNL     1       3.456   7.642  18.007  0.00  0.00    +0.000 NA
ATOM      4  C   UNL     1       3.542   6.333  18.010  0.00  0.00    +0.000 A 
ATOM      5  N   UNL     1       4.324   5.533  17.164  0.00  0.00    +0.000 N 
ATOM      6  C   UNL     1       4.241   4.130  17.274  0.00  0.00    +0.000 A 
ATOM      7  O   UNL     1       4.843   3.380  16.506  0.00  0.00    +0.000 OA
ATOM      8  C   UNL     1       3.394   3.640  18.354  0.00  0.00    +0.000 A 
ATOM      9  S   UNL     1       3.218   1.982  18.683  0.00  0.00    +0.000 S 
ATOM     10  C   UNL     1       2.169   2.305  19.995  0.00  0.00    +0.000 A 
ATOM     11  C   UNL     1       1.945   3.658  20.176  0.00  0.00    +0.000 A 
ATOM     12  C   UNL     1       2.648   4.423  19.211  0.00  0.00    +0.000 A 
ATOM     13  N   UNL     1       2.711   5.822  19.001  0.00  0.00    +0.000 N 
ENDROOT
BRANCH   1  14
ATOM     14  C   UNL     1       1.062   6.971  20.642  0.00  0.00    +0.000 C 
BRANCH  14  15
ATOM     15  C   UNL     1       0.638   8.411  20.932  0.00  0.00    +0.000 C 
BRANCH  15  16
ATOM     16  C   UNL     1       1.342   9.034  22.136  0.00  0.00    +0.000 C 
BRANCH  16  18
ATOM     17  N   UNL     1      -0.244  10.897  22.150  0.00  0.00    +0.000 N 
ATOM     18  C   UNL     1       0.340   9.882  22.895  0.00  0.00    +0.000 C 
ATOM     19  O   UNL     1       0.192   9.682  24.100  0.00  0.00    +0.000 OA
ATOM     20  H   UNL     1       0.072  11.024  21.196  0.00  0.00    +0.000 HD
BRANCH  17  24
ATOM     21  C   UNL     1      -2.767  13.861  23.853  0.00  0.00    +0.000 A 
ATOM     22  C   UNL     1      -3.209  12.542  23.731  0.00  0.00    +0.000 A 
ATOM     23  C   UNL     1      -2.391  11.573  23.144  0.00  0.00    +0.000 A 
ATOM     24  C   UNL     1      -1.121  11.887  22.662  0.00  0.00    +0.000 A 
ATOM     25  C   UNL     1      -0.704  13.220  22.706  0.00  0.00    +0.000 A 
ATOM     26  C   UNL     1      -1.521  14.199  23.303  0.00  0.00    +0.000 A 
ATOM     27 CL   UNL     1      -0.925  15.822  23.384  0.00  0.00    +0.000 Cl
BRANCH  21  29
ATOM     28  C   UNL     1      -4.673  15.251  23.729  0.00  0.00    +0.000 C 
ATOM     29  O   UNL     1      -3.514  14.839  24.455  0.00  0.00    +0.000 OA
ENDBRANCH  21  29
ENDBRANCH  17  24
ENDBRANCH  16  18
ENDBRANCH  15  16
ENDBRANCH  14  15
ENDBRANCH   1  14
BRANCH   5  30
ATOM     30  C   UNL     1       5.128   6.119  16.092  0.00  0.00    +0.000 C 
BRANCH  30  31
ATOM     31  C   UNL     1       6.629   6.232  16.389  0.00  0.00    +0.000 C 
BRANCH  31  32
ATOM     32  C   UNL     1       7.004   6.808  17.767  0.00  0.00    +0.000 C 
ATOM     33  C   UNL     1       7.735   5.802  18.654  0.00  0.00    +0.000 C 
ATOM     34  C   UNL     1       7.883   8.049  17.572  0.00  0.00    +0.000 C 
ENDBRANCH  31  32
ENDBRANCH  30  31
ENDBRANCH   5  30
TORSDOF 9
ENDMDL
MODEL 7
REMARK VINA RESULT:      -7.8      3.801      4.744
REMARK  Name = 
REMARK  12 active torsions:
REMARK  status: ('A' for Active; 'I' for Inactive)
REMARK    1  A    between atoms: C_1  and  O_2
REMARK    2  A    between atoms: O_2  and  C_3
REMARK    3  A    between atoms: C_6  and  N_7
REMARK    4  A    between atoms: C_8  and  C_10
REMARK    5  A    between atoms: C_10  and  C_11
REMARK    6  A    between atoms: C_11  and  C_12
REMARK    7  A    between atoms: C_12  and  C_13
REMARK    8  A    between atoms: N_17  and  C_18
REMARK    9  A    between atoms: C_18  and  C_19
REMARK   10  A    between atoms: C_19  and  C_20
REMARK   11  A    between atoms: C_20  and  C_21
REMARK   12  A    between atoms: C_20  and  C_22
REMARK                            x       y       z     vdW  Elec       q    Type
REMARK                         _______ _______ _______ _____ _____    ______ ____
ROOT
ATOM      1  C   UNL     1       2.048   7.654  19.587  0.00  0.00    +0.000 A 
ATOM      2  N   UNL     1       2.472   8.486  18.652  0.00  0.00    +0.000 NA
ATOM      3  N   UNL     1       3.271   7.798  17.778  0.00  0.00    +0.000 NA
ATOM      4  C   UNL     1       3.346   6.553  18.185  0.00  0.00    +0.000 A 
ATOM      5  N   UNL     1       4.042   5.501  17.572  0.00  0.00    +0.000 N 
ATOM      6  C   UNL     1       3.957   4.206  18.125  0.00  0.00    +0.000 A 
ATOM      7  O   UNL     1       4.481   3.233  17.585  0.00  0.00    +0.000 OA
ATOM      8  C   UNL     1       3.207   4.110  19.371  0.00  0.00    +0.000 A 
ATOM      9  S   UNL     1       3.048   2.646  20.218  0.00  0.00    +0.000 S 
ATOM     10  C   UNL     1       2.125   3.401  21.445  0.00  0.00    +0.000 A 
ATOM     11  C   UNL     1       1.929   4.750  21.208  0.00  0.00    +0.000 A 
ATOM     12  C   UNL     1       2.548   5.149  19.997  0.00  0.00    +0.000 A 
ATOM     13  N   UNL     1       2.604   6.409  19.352  0.00  0.00    +0.000 N 
ENDROOT
BRANCH   1  14
ATOM     14  C   UNL     1       1.120   8.072  20.679  0.00  0.00    +0.000 C 
BRANCH  14  15
ATOM     15  C   UNL     1       0.314   9.304  20.269  0.00  0.00    +0.000 C 
BRANCH  15  16
ATOM     16  C   UNL     1       0.710  10.580  21.011  0.00  0.00    +0.000 C 
BRANCH  16  18
ATOM     17  N   UNL     1       1.371  12.883  20.514  0.00  0.00    +0.000 N 
ATOM     18  C   UNL     1       0.851  11.702  20.001  0.00  0.00    +0.000 C 
ATOM     19  O   UNL     1       0.419  11.529  18.863  0.00  0.00    +0.000 OA
ATOM     20  H   UNL     1       1.564  12.920  21.508  0.00  0.00    +0.000 HD
BRANCH  17  24
ATOM     21  C   UNL     1       1.877  16.589  18.501  0.00  0.00    +0.000 A 
ATOM     22  C   UNL     1       0.763  16.373  19.314  0.00  0.00    +0.000 A 
ATOM     23  C   UNL     1       0.581  15.144  19.953  0.00  0.00    +0.000 A 
ATOM     24  C   UNL     1       1.493  14.101  19.800  0.00  0.00    +0.000 A 
ATOM     25  C   UNL     1       2.567  14.281  18.922  0.00  0.00    +0.000 A 
ATOM     26  C   UNL     1       2.759  15.519  18.283  0.00  0.00    +0.000 A 
ATOM     27 CL   UNL     1       4.142  15.703  17.256  0.00  0.00    +0.000 Cl
BRANCH  21  29
ATOM     28  C   UNL     1       1.105  18.225  16.980  0.00  0.00    +0.000 C 
ATOM     29  O   UNL     1       2.122  17.788  17.883  0.00  0.00    +0.000 OA
ENDBRANCH  21  29
ENDBRANCH  17  24
ENDBRANCH  16  18
ENDBRANCH  15  16
ENDBRANCH  14  15
ENDBRANCH   1  14
BRANCH   5  30
ATOM     30  C   UNL     1       4.750   5.692  16.307  0.00  0.00    +0.000 C 
BRANCH  30  31
ATOM     31  C   UNL     1       6.156   6.294  16.431  0.00  0.00    +0.000 C 
BRANCH  31  32
ATOM     32  C   UNL     1       6.889   6.031  17.759  0.00  0.00    +0.000 C 
ATOM     33  C   UNL     1       7.645   4.703  17.769  0.00  0.00    +0.000 C 
ATOM     34  C   UNL     1       7.871   7.178  18.028  0.00  0.00    +0.000 C 
ENDBRANCH  31  32
ENDBRANCH  30  31
ENDBRANCH   5  30
TORSDOF 9
ENDMDL
MODEL 8
REMARK VINA RESULT:      -7.7      3.655      4.325
REMARK  Name = 
REMARK  12 active torsions:
REMARK  status: ('A' for Active; 'I' for Inactive)
REMARK    1  A    between atoms: C_1  and  O_2
REMARK    2  A    between atoms: O_2  and  C_3
REMARK    3  A    between atoms: C_6  and  N_7
REMARK    4  A    between atoms: C_8  and  C_10
REMARK    5  A    between atoms: C_10  and  C_11
REMARK    6  A    between atoms: C_11  and  C_12
REMARK    7  A    between atoms: C_12  and  C_13
REMARK    8  A    between atoms: N_17  and  C_18
REMARK    9  A    between atoms: C_18  and  C_19
REMARK   10  A    between atoms: C_19  and  C_20
REMARK   11  A    between atoms: C_20  and  C_21
REMARK   12  A    between atoms: C_20  and  C_22
REMARK                            x       y       z     vdW  Elec       q    Type
REMARK                         _______ _______ _______ _____ _____    ______ ____
ROOT
ATOM      1  C   UNL     1       2.035   8.060  18.542  0.00  0.00    +0.000 A 
ATOM      2  N   UNL     1       2.638   8.755  17.594  0.00  0.00    +0.000 NA
ATOM      3  N   UNL     1       3.612   7.977  17.028  0.00  0.00    +0.000 NA
ATOM      4  C   UNL     1       3.613   6.815  17.637  0.00  0.00    +0.000 A 
ATOM      5  N   UNL     1       4.436   5.713  17.360  0.00  0.00    +0.000 N 
ATOM      6  C   UNL     1       4.251   4.517  18.085  0.00  0.00    +0.000 A 
ATOM      7  O   UNL     1       4.888   3.496  17.830  0.00  0.00    +0.000 OA
ATOM      8  C   UNL     1       3.254   4.582  19.146  0.00  0.00    +0.000 A 
ATOM      9  S   UNL     1       2.936   3.261  20.168  0.00  0.00    +0.000 S 
ATOM     10  C   UNL     1       1.765   4.155  21.037  0.00  0.00    +0.000 A 
ATOM     11  C   UNL     1       1.608   5.440  20.551  0.00  0.00    +0.000 A 
ATOM     12  C   UNL     1       2.466   5.674  19.446  0.00  0.00    +0.000 A 
ATOM     13  N   UNL     1       2.642   6.819  18.632  0.00  0.00    +0.000 N 
ENDROOT
BRANCH   1  14
ATOM     14  C   UNL     1       0.891   8.600  19.336  0.00  0.00    +0.000 C 
BRANCH  14  15
ATOM     15  C   UNL     1       1.390   9.371  20.557  0.00  0.00    +0.000 C 
BRANCH  15  16
ATOM     16  C   UNL     1       1.028   8.722  21.892  0.00  0.00    +0.000 C 
BRANCH  16  18
ATOM     17  N   UNL     1      -0.405  10.702  22.008  0.00  0.00    +0.000 N 
ATOM     18  C   UNL     1       0.277   9.735  22.734  0.00  0.00    +0.000 C 
ATOM     19  O   UNL     1       0.399   9.692  23.958  0.00  0.00    +0.000 OA
ATOM     20  H   UNL     1      -0.311  10.688  21.000  0.00  0.00    +0.000 HD
BRANCH  17  24
ATOM     21  C   UNL     1      -2.568  14.027  23.529  0.00  0.00    +0.000 A 
ATOM     22  C   UNL     1      -1.347  14.217  22.877  0.00  0.00    +0.000 A 
ATOM     23  C   UNL     1      -0.622  13.121  22.403  0.00  0.00    +0.000 A 
ATOM     24  C   UNL     1      -1.083  11.816  22.565  0.00  0.00    +0.000 A 
ATOM     25  C   UNL     1      -2.263  11.613  23.288  0.00  0.00    +0.000 A 
ATOM     26  C   UNL     1      -3.002  12.713  23.761  0.00  0.00    +0.000 A 
ATOM     27 CL   UNL     1      -4.487  12.402  24.596  0.00  0.00    +0.000 Cl
BRANCH  21  29
ATOM     28  C   UNL     1      -2.926  15.633  25.224  0.00  0.00    +0.000 C 
ATOM     29  O   UNL     1      -3.336  15.069  23.978  0.00  0.00    +0.000 OA
ENDBRANCH  21  29
ENDBRANCH  17  24
ENDBRANCH  16  18
ENDBRANCH  15  16
ENDBRANCH  14  15
ENDBRANCH   1  14
BRANCH   5  30
ATOM     30  C   UNL     1       5.394   5.737  16.256  0.00  0.00    +0.000 C 
BRANCH  30  31
ATOM     31  C   UNL     1       6.664   6.559  16.513  0.00  0.00    +0.000 C 
BRANCH  31  32
ATOM     32  C   UNL     1       7.104   6.682  17.983  0.00  0.00    +0.000 C 
ATOM     33  C   UNL     1       7.774   5.415  18.513  0.00  0.00    +0.000 C 
ATOM     34  C   UNL     1       8.069   7.865  18.123  0.00  0.00    +0.000 C 
ENDBRANCH  31  32
ENDBRANCH  30  31
ENDBRANCH   5  30
TORSDOF 9
ENDMDL
MODEL 9
REMARK VINA RESULT:      -7.7      3.499      4.264
REMARK  Name = 
REMARK  12 active torsions:
REMARK  status: ('A' for Active; 'I' for Inactive)
REMARK    1  A    between atoms: C_1  and  O_2
REMARK    2  A    between atoms: O_2  and  C_3
REMARK    3  A    between atoms: C_6  and  N_7
REMARK    4  A    between atoms: C_8  and  C_10
REMARK    5  A    between atoms: C_10  and  C_11
REMARK    6  A    between atoms: C_11  and  C_12
REMARK    7  A    between atoms: C_12  and  C_13
REMARK    8  A    between atoms: N_17  and  C_18
REMARK    9  A    between atoms: C_18  and  C_19
REMARK   10  A    between atoms: C_19  and  C_20
REMARK   11  A    between atoms: C_20  and  C_21
REMARK   12  A    between atoms: C_20  and  C_22
REMARK                            x       y       z     vdW  Elec       q    Type
REMARK                         _______ _______ _______ _____ _____    ______ ____
ROOT
ATOM      1  C   UNL     1       2.306   7.590  19.157  0.00  0.00    +0.000 A 
ATOM      2  N   UNL     1       2.815   8.353  18.205  0.00  0.00    +0.000 NA
ATOM      3  N   UNL     1       3.633   7.589  17.417  0.00  0.00    +0.000 NA
ATOM      4  C   UNL     1       3.635   6.367  17.893  0.00  0.00    +0.000 A 
ATOM      5  N   UNL     1       4.322   5.257  17.378  0.00  0.00    +0.000 N 
ATOM      6  C   UNL     1       4.155   3.999  17.992  0.00  0.00    +0.000 A 
ATOM      7  O   UNL     1       4.669   2.978  17.536  0.00  0.00    +0.000 OA
ATOM      8  C   UNL     1       3.333   3.999  19.196  0.00  0.00    +0.000 A 
ATOM      9  S   UNL     1       3.069   2.591  20.109  0.00  0.00    +0.000 S 
ATOM     10  C   UNL     1       2.109   3.446  21.238  0.00  0.00    +0.000 A 
ATOM     11  C   UNL     1       1.981   4.786  20.920  0.00  0.00    +0.000 A 
ATOM     12  C   UNL     1       2.682   5.095  19.727  0.00  0.00    +0.000 A 
ATOM     13  N   UNL     1       2.824   6.314  19.021  0.00  0.00    +0.000 N 
ENDROOT
BRANCH   1  14
ATOM     14  C   UNL     1       1.335   8.102  20.170  0.00  0.00    +0.000 C 
BRANCH  14  15
ATOM     15  C   UNL     1       1.155   9.614  20.038  0.00  0.00    +0.000 C 
BRANCH  15  16
ATOM     16  C   UNL     1      -0.304  10.060  19.954  0.00  0.00    +0.000 C 
BRANCH  16  18
ATOM     17  N   UNL     1      -1.447  11.814  21.220  0.00  0.00    +0.000 N 
ATOM     18  C   UNL     1      -0.709  10.641  21.295  0.00  0.00    +0.000 C 
ATOM     19  O   UNL     1      -0.289  10.107  22.320  0.00  0.00    +0.000 OA
ATOM     20  H   UNL     1      -1.611  12.211  20.302  0.00  0.00    +0.000 HD
BRANCH  17  24
ATOM     21  C   UNL     1      -2.778  14.257  24.430  0.00  0.00    +0.000 A 
ATOM     22  C   UNL     1      -1.599  14.566  23.750  0.00  0.00    +0.000 A 
ATOM     23  C   UNL     1      -1.146  13.746  22.713  0.00  0.00    +0.000 A 
ATOM     24  C   UNL     1      -1.844  12.603  22.329  0.00  0.00    +0.000 A 
ATOM     25  C   UNL     1      -2.981  12.243  23.059  0.00  0.00    +0.000 A 
ATOM     26  C   UNL     1      -3.447  13.068  24.098  0.00  0.00    +0.000 A 
ATOM     27 CL   UNL     1      -4.895  12.603  24.926  0.00  0.00    +0.000 Cl
BRANCH  21  29
ATOM     28  C   UNL     1      -3.832  16.296  24.994  0.00  0.00    +0.000 C 
ATOM     29  O   UNL     1      -3.287  15.049  25.427  0.00  0.00    +0.000 OA
ENDBRANCH  21  29
ENDBRANCH  17  24
ENDBRANCH  16  18
ENDBRANCH  15  16
ENDBRANCH  14  15
ENDBRANCH   1  14
BRANCH   5  30
ATOM     30  C   UNL     1       5.107   5.352  16.148  0.00  0.00    +0.000 C 
BRANCH  30  31
ATOM     31  C   UNL     1       6.586   5.710  16.343  0.00  0.00    +0.000 C 
BRANCH  31  32
ATOM     32  C   UNL     1       6.955   6.339  17.700  0.00  0.00    +0.000 C 
ATOM     33  C   UNL     1       7.845   5.435  18.553  0.00  0.00    +0.000 C 
ATOM     34  C   UNL     1       7.668   7.674  17.458  0.00  0.00    +0.000 C 
ENDBRANCH  31  32
ENDBRANCH  30  31
ENDBRANCH   5  30
TORSDOF 9
ENDMDL
