MODEL 1
REMARK VINA RESULT:      -8.7      0.000      0.000
REMARK  Name = 
REMARK  3 active torsions:
REMARK  status: ('A' for Active; 'I' for Inactive)
REMARK    1  A    between atoms: C_1  and  C_2
REMARK    2  A    between atoms: C_5  and  C_6
REMARK    3  A    between atoms: C_8  and  C_9
REMARK                            x       y       z     vdW  Elec       q    Type
REMARK                         _______ _______ _______ _____ _____    ______ ____
ROOT
ATOM      1  C   UNL     1       6.513   5.019  15.471  0.00  0.00    +0.000 A 
ATOM      2  C   UNL     1       5.530   4.419  16.230  0.00  0.00    +0.000 A 
ATOM      3  C   UNL     1       5.339   4.922  17.497  0.00  0.00    +0.000 A 
ATOM      4  N   UNL     1       6.072   5.959  17.962  0.00  0.00    +0.000 NA
ATOM      5  C   UNL     1       6.996   6.476  17.150  0.00  0.00    +0.000 A 
ATOM      6  N   UNL     1       7.734   7.538  17.628  0.00  0.00    +0.000 N 
ATOM      7  N   UNL     1       7.271   6.034  15.925  0.00  0.00    +0.000 NA
ATOM      8  H   UNL     1       7.727   7.539  18.639  0.00  0.00    +0.000 HD
ATOM      9  H   UNL     1       8.631   7.577  17.165  0.00  0.00    +0.000 HD
ENDROOT
BRANCH   3  10
ATOM     10  C   UNL     1       4.306   4.392  18.414  0.00  0.00    +0.000 A 
ATOM     11  C   UNL     1       2.992   4.900  18.432  0.00  0.00    +0.000 A 
ATOM     12  C   UNL     1       2.031   4.405  19.321  0.00  0.00    +0.000 A 
ATOM     13  C   UNL     1       2.365   3.385  20.206  0.00  0.00    +0.000 A 
ATOM     14 CL   UNL     1       1.185   2.778  21.299  0.00  0.00    +0.000 Cl
ATOM     15  C   UNL     1       3.652   2.857  20.208  0.00  0.00    +0.000 A 
ATOM     16  C   UNL     1       4.610   3.355  19.319  0.00  0.00    +0.000 A 
ENDBRANCH   3  10
BRANCH   1  21
ATOM     17  C   UNL     1       5.564   2.407  11.557  0.00  0.00    +0.000 C 
ATOM     18  C   UNL     1       6.323   3.439  12.290  0.00  0.00    +0.000 A 
ATOM     19  C   UNL     1       7.317   4.323  11.937  0.00  0.00    +0.000 A 
ATOM     20  C   UNL     1       7.601   5.086  13.096  0.00  0.00    +0.000 A 
ATOM     21  C   UNL     1       6.761   4.627  14.091  0.00  0.00    +0.000 A 
ATOM     22  O   UNL     1       5.994   3.604  13.600  0.00  0.00    +0.000 OA
ENDBRANCH   1  21
TORSDOF 2
ENDMDL
MODEL 2
REMARK VINA RESULT:      -8.7      0.505      1.045
REMARK  Name = 
REMARK  3 active torsions:
REMARK  status: ('A' for Active; 'I' for Inactive)
REMARK    1  A    between atoms: C_1  and  C_2
REMARK    2  A    between atoms: C_5  and  C_6
REMARK    3  A    between atoms: C_8  and  C_9
REMARK                            x       y       z     vdW  Elec       q    Type
REMARK                         _______ _______ _______ _____ _____    ______ ____
ROOT
ATOM      1  C   UNL     1       6.581   5.075  15.668  0.00  0.00    +0.000 A 
ATOM      2  C   UNL     1       5.650   4.458  16.476  0.00  0.00    +0.000 A 
ATOM      3  C   UNL     1       5.503   4.970  17.746  0.00  0.00    +0.000 A 
ATOM      4  N   UNL     1       6.228   6.031  18.168  0.00  0.00    +0.000 NA
ATOM      5  C   UNL     1       7.100   6.564  17.309  0.00  0.00    +0.000 A 
ATOM      6  N   UNL     1       7.830   7.649  17.743  0.00  0.00    +0.000 N 
ATOM      7  N   UNL     1       7.332   6.115  16.077  0.00  0.00    +0.000 NA
ATOM      8  H   UNL     1       7.868   7.661  18.753  0.00  0.00    +0.000 HD
ATOM      9  H   UNL     1       8.704   7.707  17.240  0.00  0.00    +0.000 HD
ENDROOT
BRANCH   3  10
ATOM     10  C   UNL     1       4.526   4.422  18.714  0.00  0.00    +0.000 A 
ATOM     11  C   UNL     1       4.396   3.038  18.940  0.00  0.00    +0.000 A 
ATOM     12  C   UNL     1       3.452   2.531  19.841  0.00  0.00    +0.000 A 
ATOM     13  C   UNL     1       2.624   3.404  20.540  0.00  0.00    +0.000 A 
ATOM     14 CL   UNL     1       1.464   2.781  21.645  0.00  0.00    +0.000 Cl
ATOM     15  C   UNL     1       2.733   4.776  20.345  0.00  0.00    +0.000 A 
ATOM     16  C   UNL     1       3.677   5.278  19.442  0.00  0.00    +0.000 A 
ENDBRANCH   3  10
BRANCH   1  21
ATOM     17  C   UNL     1       5.391   2.551  11.763  0.00  0.00    +0.000 C 
ATOM     18  C   UNL     1       6.230   3.527  12.485  0.00  0.00    +0.000 A 
ATOM     19  C   UNL     1       7.272   4.347  12.117  0.00  0.00    +0.000 A 
ATOM     20  C   UNL     1       7.627   5.084  13.273  0.00  0.00    +0.000 A 
ATOM     21  C   UNL     1       6.778   4.675  14.282  0.00  0.00    +0.000 A 
ATOM     22  O   UNL     1       5.937   3.707  13.802  0.00  0.00    +0.000 OA
ENDBRANCH   1  21
TORSDOF 2
ENDMDL
MODEL 3
REMARK VINA RESULT:      -8.1      1.310      1.741
REMARK  Name = 
REMARK  3 active torsions:
REMARK  status: ('A' for Active; 'I' for Inactive)
REMARK    1  A    between atoms: C_1  and  C_2
REMARK    2  A    between atoms: C_5  and  C_6
REMARK    3  A    between atoms: C_8  and  C_9
REMARK                            x       y       z     vdW  Elec       q    Type
REMARK                         _______ _______ _______ _____ _____    ______ ____
ROOT
ATOM      1  C   UNL     1       6.550   4.890  16.496  0.00  0.00    +0.000 A 
ATOM      2  C   UNL     1       5.493   4.348  17.196  0.00  0.00    +0.000 A 
ATOM      3  C   UNL     1       5.431   4.640  18.540  0.00  0.00    +0.000 A 
ATOM      4  N   UNL     1       6.355   5.428  19.134  0.00  0.00    +0.000 NA
ATOM      5  C   UNL     1       7.338   5.911  18.370  0.00  0.00    +0.000 A 
ATOM      6  N   UNL     1       8.273   6.719  18.981  0.00  0.00    +0.000 N 
ATOM      7  N   UNL     1       7.495   5.654  17.074  0.00  0.00    +0.000 NA
ATOM      8  H   UNL     1       8.292   6.539  19.975  0.00  0.00    +0.000 HD
ATOM      9  H   UNL     1       9.150   6.680  18.480  0.00  0.00    +0.000 HD
ENDROOT
BRANCH   3  10
ATOM     10  C   UNL     1       4.340   4.146  19.410  0.00  0.00    +0.000 A 
ATOM     11  C   UNL     1       3.335   5.000  19.904  0.00  0.00    +0.000 A 
ATOM     12  C   UNL     1       2.323   4.525  20.746  0.00  0.00    +0.000 A 
ATOM     13  C   UNL     1       2.294   3.180  21.104  0.00  0.00    +0.000 A 
ATOM     14 CL   UNL     1       1.051   2.597  22.138  0.00  0.00    +0.000 Cl
ATOM     15  C   UNL     1       3.267   2.310  20.626  0.00  0.00    +0.000 A 
ATOM     16  C   UNL     1       4.278   2.790  19.786  0.00  0.00    +0.000 A 
ENDBRANCH   3  10
BRANCH   1  21
ATOM     17  C   UNL     1       8.517   5.963  12.251  0.00  0.00    +0.000 C 
ATOM     18  C   UNL     1       7.592   5.197  13.110  0.00  0.00    +0.000 A 
ATOM     19  C   UNL     1       6.738   4.141  12.887  0.00  0.00    +0.000 A 
ATOM     20  C   UNL     1       6.152   3.832  14.140  0.00  0.00    +0.000 A 
ATOM     21  C   UNL     1       6.686   4.716  15.057  0.00  0.00    +0.000 A 
ATOM     22  O   UNL     1       7.552   5.563  14.420  0.00  0.00    +0.000 OA
ENDBRANCH   1  21
TORSDOF 2
ENDMDL
MODEL 4
REMARK VINA RESULT:      -8.1      1.313      2.009
REMARK  Name = 
REMARK  3 active torsions:
REMARK  status: ('A' for Active; 'I' for Inactive)
REMARK    1  A    between atoms: C_1  and  C_2
REMARK    2  A    between atoms: C_5  and  C_6
REMARK    3  A    between atoms: C_8  and  C_9
REMARK                            x       y       z     vdW  Elec       q    Type
REMARK                         _______ _______ _______ _____ _____    ______ ____
ROOT
ATOM      1  C   UNL     1       6.605   4.908  16.506  0.00  0.00    +0.000 A 
ATOM      2  C   UNL     1       5.559   4.349  17.210  0.00  0.00    +0.000 A 
ATOM      3  C   UNL     1       5.494   4.645  18.553  0.00  0.00    +0.000 A 
ATOM      4  N   UNL     1       6.405   5.454  19.142  0.00  0.00    +0.000 NA
ATOM      5  C   UNL     1       7.377   5.952  18.374  0.00  0.00    +0.000 A 
ATOM      6  N   UNL     1       8.297   6.780  18.980  0.00  0.00    +0.000 N 
ATOM      7  N   UNL     1       7.536   5.694  17.078  0.00  0.00    +0.000 NA
ATOM      8  H   UNL     1       8.321   6.604  19.975  0.00  0.00    +0.000 HD
ATOM      9  H   UNL     1       9.173   6.756  18.477  0.00  0.00    +0.000 HD
ENDROOT
BRANCH   3  10
ATOM     10  C   UNL     1       4.415   4.134  19.427  0.00  0.00    +0.000 A 
ATOM     11  C   UNL     1       4.358   2.785  19.829  0.00  0.00    +0.000 A 
ATOM     12  C   UNL     1       3.319   2.308  20.637  0.00  0.00    +0.000 A 
ATOM     13  C   UNL     1       2.319   3.177  21.064  0.00  0.00    +0.000 A 
ATOM     14 CL   UNL     1       1.043   2.591  22.055  0.00  0.00    +0.000 Cl
ATOM     15  C   UNL     1       2.352   4.516  20.691  0.00  0.00    +0.000 A 
ATOM     16  C   UNL     1       3.392   4.988  19.882  0.00  0.00    +0.000 A 
ENDBRANCH   3  10
BRANCH   1  21
ATOM     17  C   UNL     1       8.555   5.991  12.256  0.00  0.00    +0.000 C 
ATOM     18  C   UNL     1       7.640   5.217  13.117  0.00  0.00    +0.000 A 
ATOM     19  C   UNL     1       6.798   4.150  12.899  0.00  0.00    +0.000 A 
ATOM     20  C   UNL     1       6.217   3.839  14.153  0.00  0.00    +0.000 A 
ATOM     21  C   UNL     1       6.741   4.731  15.067  0.00  0.00    +0.000 A 
ATOM     22  O   UNL     1       7.597   5.587  14.426  0.00  0.00    +0.000 OA
ENDBRANCH   1  21
TORSDOF 2
ENDMDL
MODEL 5
REMARK VINA RESULT:      -7.9      2.978      3.782
REMARK  Name = 
REMARK  3 active torsions:
REMARK  status: ('A' for Active; 'I' for Inactive)
REMARK    1  A    between atoms: C_1  and  C_2
REMARK    2  A    between atoms: C_5  and  C_6
REMARK    3  A    between atoms: C_8  and  C_9
REMARK                            x       y       z     vdW  Elec       q    Type
REMARK                         _______ _______ _______ _____ _____    ______ ____
ROOT
ATOM      1  C   UNL     1       5.126   4.755  16.731  0.00  0.00    +0.000 A 
ATOM      2  C   UNL     1       4.330   5.850  16.994  0.00  0.00    +0.000 A 
ATOM      3  C   UNL     1       3.710   5.880  18.223  0.00  0.00    +0.000 A 
ATOM      4  N   UNL     1       3.887   4.889  19.126  0.00  0.00    +0.000 NA
ATOM      5  C   UNL     1       4.682   3.873  18.781  0.00  0.00    +0.000 A 
ATOM      6  N   UNL     1       4.863   2.870  19.710  0.00  0.00    +0.000 N 
ATOM      7  N   UNL     1       5.294   3.746  17.606  0.00  0.00    +0.000 NA
ATOM      8  H   UNL     1       4.095   2.861  20.366  0.00  0.00    +0.000 HD
ATOM      9  H   UNL     1       5.096   2.003  19.246  0.00  0.00    +0.000 HD
ENDROOT
BRANCH   3  10
ATOM     10  C   UNL     1       2.845   7.002  18.649  0.00  0.00    +0.000 A 
ATOM     11  C   UNL     1       2.551   8.083  17.795  0.00  0.00    +0.000 A 
ATOM     12  C   UNL     1       1.751   9.151  18.218  0.00  0.00    +0.000 A 
ATOM     13  C   UNL     1       1.223   9.153  19.505  0.00  0.00    +0.000 A 
ATOM     14 CL   UNL     1       0.241  10.465  20.026  0.00  0.00    +0.000 Cl
ATOM     15  C   UNL     1       1.488   8.097  20.370  0.00  0.00    +0.000 A 
ATOM     16  C   UNL     1       2.289   7.032  19.943  0.00  0.00    +0.000 A 
ENDBRANCH   3  10
BRANCH   1  21
ATOM     17  C   UNL     1       5.702   3.262  12.206  0.00  0.00    +0.000 C 
ATOM     18  C   UNL     1       6.157   3.969  13.419  0.00  0.00    +0.000 A 
ATOM     19  C   UNL     1       7.260   4.736  13.720  0.00  0.00    +0.000 A 
ATOM     20  C   UNL     1       7.091   5.167  15.059  0.00  0.00    +0.000 A 
ATOM     21  C   UNL     1       5.892   4.643  15.499  0.00  0.00    +0.000 A 
ATOM     22  O   UNL     1       5.332   3.892  14.499  0.00  0.00    +0.000 OA
ENDBRANCH   1  21
TORSDOF 2
ENDMDL
MODEL 6
REMARK VINA RESULT:      -7.9      3.450      4.522
REMARK  Name = 
REMARK  3 active torsions:
REMARK  status: ('A' for Active; 'I' for Inactive)
REMARK    1  A    between atoms: C_1  and  C_2
REMARK    2  A    between atoms: C_5  and  C_6
REMARK    3  A    between atoms: C_8  and  C_9
REMARK                            x       y       z     vdW  Elec       q    Type
REMARK                         _______ _______ _______ _____ _____    ______ ____
ROOT
ATOM      1  C   UNL     1       4.601   5.040  17.298  0.00  0.00    +0.000 A 
ATOM      2  C   UNL     1       3.923   6.226  17.477  0.00  0.00    +0.000 A 
ATOM      3  C   UNL     1       3.090   6.300  18.572  0.00  0.00    +0.000 A 
ATOM      4  N   UNL     1       2.960   5.262  19.429  0.00  0.00    +0.000 NA
ATOM      5  C   UNL     1       3.664   4.157  19.174  0.00  0.00    +0.000 A 
ATOM      6  N   UNL     1       3.531   3.107  20.057  0.00  0.00    +0.000 N 
ATOM      7  N   UNL     1       4.465   3.986  18.125  0.00  0.00    +0.000 NA
ATOM      8  H   UNL     1       2.658   3.183  20.559  0.00  0.00    +0.000 HD
ATOM      9  H   UNL     1       3.730   2.232  19.592  0.00  0.00    +0.000 HD
ENDROOT
BRANCH   3  10
ATOM     10  C   UNL     1       2.317   7.518  18.900  0.00  0.00    +0.000 A 
ATOM     11  C   UNL     1       1.814   7.756  20.194  0.00  0.00    +0.000 A 
ATOM     12  C   UNL     1       1.064   8.901  20.486  0.00  0.00    +0.000 A 
ATOM     13  C   UNL     1       0.808   9.835  19.487  0.00  0.00    +0.000 A 
ATOM     14 CL   UNL     1      -0.114  11.241  19.845  0.00  0.00    +0.000 Cl
ATOM     15  C   UNL     1       1.297   9.633  18.201  0.00  0.00    +0.000 A 
ATOM     16  C   UNL     1       2.046   8.486  17.913  0.00  0.00    +0.000 A 
ENDBRANCH   3  10
BRANCH   1  21
ATOM     17  C   UNL     1       5.849   3.541  12.912  0.00  0.00    +0.000 C 
ATOM     18  C   UNL     1       6.140   4.187  14.207  0.00  0.00    +0.000 A 
ATOM     19  C   UNL     1       7.238   4.837  14.724  0.00  0.00    +0.000 A 
ATOM     20  C   UNL     1       6.870   5.270  16.021  0.00  0.00    +0.000 A 
ATOM     21  C   UNL     1       5.565   4.863  16.222  0.00  0.00    +0.000 A 
ATOM     22  O   UNL     1       5.128   4.183  15.117  0.00  0.00    +0.000 OA
ENDBRANCH   1  21
TORSDOF 2
ENDMDL
MODEL 7
REMARK VINA RESULT:      -7.8      2.301      2.710
REMARK  Name = 
REMARK  3 active torsions:
REMARK  status: ('A' for Active; 'I' for Inactive)
REMARK    1  A    between atoms: C_1  and  C_2
REMARK    2  A    between atoms: C_5  and  C_6
REMARK    3  A    between atoms: C_8  and  C_9
REMARK                            x       y       z     vdW  Elec       q    Type
REMARK                         _______ _______ _______ _____ _____    ______ ____
ROOT
ATOM      1  C   UNL     1       6.294   4.824  15.573  0.00  0.00    +0.000 A 
ATOM      2  C   UNL     1       5.184   5.521  16.000  0.00  0.00    +0.000 A 
ATOM      3  C   UNL     1       5.148   5.862  17.334  0.00  0.00    +0.000 A 
ATOM      4  N   UNL     1       6.158   5.537  18.172  0.00  0.00    +0.000 NA
ATOM      5  C   UNL     1       7.193   4.866  17.662  0.00  0.00    +0.000 A 
ATOM      6  N   UNL     1       8.222   4.545  18.522  0.00  0.00    +0.000 N 
ATOM      7  N   UNL     1       7.297   4.468  16.397  0.00  0.00    +0.000 NA
ATOM      8  H   UNL     1       7.889   4.539  19.476  0.00  0.00    +0.000 HD
ATOM      9  H   UNL     1       8.711   3.726  18.190  0.00  0.00    +0.000 HD
ENDROOT
BRANCH   3  10
ATOM     10  C   UNL     1       4.030   6.629  17.927  0.00  0.00    +0.000 A 
ATOM     11  C   UNL     1       3.549   7.818  17.345  0.00  0.00    +0.000 A 
ATOM     12  C   UNL     1       2.507   8.547  17.929  0.00  0.00    +0.000 A 
ATOM     13  C   UNL     1       1.919   8.094  19.106  0.00  0.00    +0.000 A 
ATOM     14 CL   UNL     1       0.639   8.989  19.824  0.00  0.00    +0.000 Cl
ATOM     15  C   UNL     1       2.365   6.919  19.701  0.00  0.00    +0.000 A 
ATOM     16  C   UNL     1       3.409   6.194  19.114  0.00  0.00    +0.000 A 
ENDBRANCH   3  10
BRANCH   1  21
ATOM     17  C   UNL     1       4.888   2.735  11.486  0.00  0.00    +0.000 C 
ATOM     18  C   UNL     1       5.840   3.523  12.294  0.00  0.00    +0.000 A 
ATOM     19  C   UNL     1       7.016   4.181  12.011  0.00  0.00    +0.000 A 
ATOM     20  C   UNL     1       7.433   4.788  13.221  0.00  0.00    +0.000 A 
ATOM     21  C   UNL     1       6.485   4.471  14.173  0.00  0.00    +0.000 A 
ATOM     22  O   UNL     1       5.522   3.679  13.608  0.00  0.00    +0.000 OA
ENDBRANCH   1  21
TORSDOF 2
ENDMDL
MODEL 8
REMARK VINA RESULT:      -7.7      3.404      6.837
REMARK  Name = 
REMARK  3 active torsions:
REMARK  status: ('A' for Active; 'I' for Inactive)
REMARK    1  A    between atoms: C_1  and  C_2
REMARK    2  A    between atoms: C_5  and  C_6
REMARK    3  A    between atoms: C_8  and  C_9
REMARK                            x       y       z     vdW  Elec       q    Type
REMARK                         _______ _______ _______ _____ _____    ______ ____
ROOT
ATOM      1  C   UNL     1       4.781   5.025  18.949  0.00  0.00    +0.000 A 
ATOM      2  C   UNL     1       4.863   4.837  17.585  0.00  0.00    +0.000 A 
ATOM      3  C   UNL     1       6.124   4.883  17.033  0.00  0.00    +0.000 A 
ATOM      4  N   UNL     1       7.221   5.090  17.795  0.00  0.00    +0.000 NA
ATOM      5  C   UNL     1       7.039   5.255  19.107  0.00  0.00    +0.000 A 
ATOM      6  N   UNL     1       8.163   5.458  19.880  0.00  0.00    +0.000 N 
ATOM      7  N   UNL     1       5.859   5.259  19.722  0.00  0.00    +0.000 NA
ATOM      8  H   UNL     1       8.918   5.813  19.309  0.00  0.00    +0.000 HD
ATOM      9  H   UNL     1       7.925   5.972  20.716  0.00  0.00    +0.000 HD
ENDROOT
BRANCH   3  10
ATOM     10  C   UNL     1       6.364   4.677  15.587  0.00  0.00    +0.000 A 
ATOM     11  C   UNL     1       5.521   3.871  14.798  0.00  0.00    +0.000 A 
ATOM     12  C   UNL     1       5.773   3.665  13.437  0.00  0.00    +0.000 A 
ATOM     13  C   UNL     1       6.874   4.269  12.837  0.00  0.00    +0.000 A 
ATOM     14 CL   UNL     1       7.184   4.015  11.165  0.00  0.00    +0.000 Cl
ATOM     15  C   UNL     1       7.721   5.076  13.587  0.00  0.00    +0.000 A 
ATOM     16  C   UNL     1       7.466   5.279  14.948  0.00  0.00    +0.000 A 
ENDBRANCH   3  10
BRANCH   1  21
ATOM     17  C   UNL     1       1.598   2.658  21.650  0.00  0.00    +0.000 C 
ATOM     18  C   UNL     1       2.057   3.848  20.909  0.00  0.00    +0.000 A 
ATOM     19  C   UNL     1       1.559   5.122  20.745  0.00  0.00    +0.000 A 
ATOM     20  C   UNL     1       2.496   5.814  19.940  0.00  0.00    +0.000 A 
ATOM     21  C   UNL     1       3.516   4.926  19.661  0.00  0.00    +0.000 A 
ATOM     22  O   UNL     1       3.234   3.717  20.238  0.00  0.00    +0.000 OA
ENDBRANCH   1  21
TORSDOF 2
ENDMDL
MODEL 9
REMARK VINA RESULT:      -7.7      3.392      6.839
REMARK  Name = 
REMARK  3 active torsions:
REMARK  status: ('A' for Active; 'I' for Inactive)
REMARK    1  A    between atoms: C_1  and  C_2
REMARK    2  A    between atoms: C_5  and  C_6
REMARK    3  A    between atoms: C_8  and  C_9
REMARK                            x       y       z     vdW  Elec       q    Type
REMARK                         _______ _______ _______ _____ _____    ______ ____
ROOT
ATOM      1  C   UNL     1       4.737   5.089  18.937  0.00  0.00    +0.000 A 
ATOM      2  C   UNL     1       4.835   4.868  17.580  0.00  0.00    +0.000 A 
ATOM      3  C   UNL     1       6.100   4.916  17.038  0.00  0.00    +0.000 A 
ATOM      4  N   UNL     1       7.187   5.156  17.806  0.00  0.00    +0.000 NA
ATOM      5  C   UNL     1       6.990   5.351  19.112  0.00  0.00    +0.000 A 
ATOM      6  N   UNL     1       8.104   5.588  19.889  0.00  0.00    +0.000 N 
ATOM      7  N   UNL     1       5.804   5.355  19.714  0.00  0.00    +0.000 NA
ATOM      8  H   UNL     1       8.859   5.939  19.316  0.00  0.00    +0.000 HD
ATOM      9  H   UNL     1       7.851   6.120  20.710  0.00  0.00    +0.000 HD
ENDROOT
BRANCH   3  10
ATOM     10  C   UNL     1       6.357   4.677  15.601  0.00  0.00    +0.000 A 
ATOM     11  C   UNL     1       7.455   5.254  14.933  0.00  0.00    +0.000 A 
ATOM     12  C   UNL     1       7.674   5.039  13.568  0.00  0.00    +0.000 A 
ATOM     13  C   UNL     1       6.799   4.235  12.844  0.00  0.00    +0.000 A 
ATOM     14 CL   UNL     1       7.067   3.972  11.166  0.00  0.00    +0.000 Cl
ATOM     15  C   UNL     1       5.710   3.645  13.475  0.00  0.00    +0.000 A 
ATOM     16  C   UNL     1       5.494   3.863  14.841  0.00  0.00    +0.000 A 
ENDBRANCH   3  10
BRANCH   1  21
ATOM     17  C   UNL     1       1.544   2.737  21.642  0.00  0.00    +0.000 C 
ATOM     18  C   UNL     1       2.003   3.921  20.889  0.00  0.00    +0.000 A 
ATOM     19  C   UNL     1       1.499   5.189  20.705  0.00  0.00    +0.000 A 
ATOM     20  C   UNL     1       2.438   5.877  19.898  0.00  0.00    +0.000 A 
ATOM     21  C   UNL     1       3.466   4.991  19.640  0.00  0.00    +0.000 A 
ATOM     22  O   UNL     1       3.186   3.788  20.231  0.00  0.00    +0.000 OA
ENDBRANCH   1  21
TORSDOF 2
ENDMDL
