MODEL 1
REMARK VINA RESULT:      -7.8      0.000      0.000
REMARK  Name = 
REMARK  10 active torsions:
REMARK  status: ('A' for Active; 'I' for Inactive)
REMARK    1  A    between atoms: C_1  and  C_2
REMARK    2  A    between atoms: C_2  and  C_3
REMARK    3  A    between atoms: C_2  and  N_4
REMARK    4  A    between atoms: C_5  and  C_7
REMARK    5  A    between atoms: C_8  and  C_9
REMARK    6  A    between atoms: C_9  and  S_10
REMARK    7  A    between atoms: S_10  and  C_11
REMARK    8  A    between atoms: C_20  and  C_21
REMARK    9  A    between atoms: N_23  and  C_24
REMARK   10  A    between atoms: C_24  and  C_25
REMARK                            x       y       z     vdW  Elec       q    Type
REMARK                         _______ _______ _______ _____ _____    ______ ____
ROOT
ATOM      1  C   UNL     1       6.258   6.434  17.693  0.00  0.00    +0.000 A 
ATOM      2  C   UNL     1       7.487   7.098  18.014  0.00  0.00    +0.000 A 
ATOM      3  N   UNL     1       8.291   6.277  18.710  0.00  0.00    +0.000 NA
ATOM      4  O   UNL     1       7.644   5.069  18.792  0.00  0.00    +0.000 OA
ATOM      5  C   UNL     1       6.429   5.151  18.187  0.00  0.00    +0.000 A 
ENDROOT
BRANCH   1   7
ATOM      6  N   UNL     1       4.066   7.359  17.872  0.00  0.00    +0.000 N 
ATOM      7  C   UNL     1       5.092   6.984  17.030  0.00  0.00    +0.000 C 
ATOM      8  O   UNL     1       5.067   7.152  15.817  0.00  0.00    +0.000 OA
ATOM      9  H   UNL     1       4.098   7.034  18.829  0.00  0.00    +0.000 HD
BRANCH   6  11
ATOM     10  C   UNL     1       1.715   6.730  17.858  0.00  0.00    +0.000 C 
ATOM     11  C   UNL     1       2.748   7.769  17.413  0.00  0.00    +0.000 C 
ATOM     12  C   UNL     1       2.367   9.143  17.958  0.00  0.00    +0.000 C 
ENDBRANCH   6  11
ENDBRANCH   1   7
BRANCH   5  13
ATOM     13  C   UNL     1       5.597   3.971  18.160  0.00  0.00    +0.000 C 
ATOM     14  O   UNL     1       5.038   3.562  17.144  0.00  0.00    +0.000 OA
ATOM     15  N   UNL     1       5.401   3.370  19.388  0.00  0.00    +0.000 N 
ATOM     16  H   UNL     1       5.786   3.817  20.210  0.00  0.00    +0.000 HD
BRANCH  15  17
ATOM     17  C   UNL     1       4.561   2.209  19.551  0.00  0.00    +0.000 C 
BRANCH  17  18
ATOM     18  C   UNL     1       3.099   2.550  19.679  0.00  0.00    +0.000 A 
ATOM     19  C   UNL     1       2.636   3.307  20.766  0.00  0.00    +0.000 A 
ATOM     20  C   UNL     1       1.293   3.682  20.855  0.00  0.00    +0.000 A 
ATOM     21  C   UNL     1       0.394   3.299  19.864  0.00  0.00    +0.000 A 
ATOM     22  C   UNL     1       0.833   2.523  18.793  0.00  0.00    +0.000 A 
ATOM     23  C   UNL     1       2.175   2.144  18.703  0.00  0.00    +0.000 A 
ENDBRANCH  17  18
ENDBRANCH  15  17
ENDBRANCH   5  13
BRANCH   2  24
ATOM     24  C   UNL     1       7.873   8.537  17.763  0.00  0.00    +0.000 C 
BRANCH  24  25
ATOM     25  S   UNL     1       8.870   9.241  19.139  0.00  0.00    +0.000 S 
BRANCH  25  26
ATOM     26  C   UNL     1       9.371  10.859  18.570  0.00  0.00    +0.000 A 
ATOM     27  C   UNL     1      10.724  11.194  18.744  0.00  0.00    +0.000 A 
ATOM     28  C   UNL     1      11.257  12.365  18.189  0.00  0.00    +0.000 A 
ATOM     29  C   UNL     1      10.433  13.210  17.456  0.00  0.00    +0.000 A 
ATOM     30 CL   UNL     1      11.097  14.612  16.709  0.00  0.00    +0.000 Cl
ATOM     31  C   UNL     1       9.082  12.909  17.297  0.00  0.00    +0.000 A 
ATOM     32  C   UNL     1       8.553  11.735  17.854  0.00  0.00    +0.000 A 
ENDBRANCH  25  26
ENDBRANCH  24  25
ENDBRANCH   2  24
TORSDOF 8
ENDMDL
MODEL 2
REMARK VINA RESULT:      -7.7      5.368      8.192
REMARK  Name = 
REMARK  10 active torsions:
REMARK  status: ('A' for Active; 'I' for Inactive)
REMARK    1  A    between atoms: C_1  and  C_2
REMARK    2  A    between atoms: C_2  and  C_3
REMARK    3  A    between atoms: C_2  and  N_4
REMARK    4  A    between atoms: C_5  and  C_7
REMARK    5  A    between atoms: C_8  and  C_9
REMARK    6  A    between atoms: C_9  and  S_10
REMARK    7  A    between atoms: S_10  and  C_11
REMARK    8  A    between atoms: C_20  and  C_21
REMARK    9  A    between atoms: N_23  and  C_24
REMARK   10  A    between atoms: C_24  and  C_25
REMARK                            x       y       z     vdW  Elec       q    Type
REMARK                         _______ _______ _______ _____ _____    ______ ____
ROOT
ATOM      1  C   UNL     1       2.652   6.517  18.736  0.00  0.00    +0.000 A 
ATOM      2  C   UNL     1       2.322   7.908  18.614  0.00  0.00    +0.000 A 
ATOM      3  N   UNL     1       3.089   8.488  17.677  0.00  0.00    +0.000 NA
ATOM      4  O   UNL     1       3.866   7.494  17.135  0.00  0.00    +0.000 OA
ATOM      5  C   UNL     1       3.612   6.312  17.759  0.00  0.00    +0.000 A 
ENDROOT
BRANCH   1   7
ATOM      6  N   UNL     1       1.751   4.344  19.134  0.00  0.00    +0.000 N 
ATOM      7  C   UNL     1       2.124   5.553  19.682  0.00  0.00    +0.000 C 
ATOM      8  O   UNL     1       2.080   5.795  20.881  0.00  0.00    +0.000 OA
ATOM      9  H   UNL     1       1.661   4.290  18.128  0.00  0.00    +0.000 HD
BRANCH   6  11
ATOM     10  C   UNL     1       0.563   2.235  18.880  0.00  0.00    +0.000 C 
ATOM     11  C   UNL     1       1.041   3.306  19.865  0.00  0.00    +0.000 C 
ATOM     12  C   UNL     1       1.925   2.669  20.933  0.00  0.00    +0.000 C 
ENDBRANCH   6  11
ENDBRANCH   1   7
BRANCH   5  13
ATOM     13  C   UNL     1       4.329   5.139  17.320  0.00  0.00    +0.000 C 
ATOM     14  O   UNL     1       3.961   3.992  17.564  0.00  0.00    +0.000 OA
ATOM     15  N   UNL     1       5.520   5.395  16.669  0.00  0.00    +0.000 N 
ATOM     16  H   UNL     1       5.835   6.355  16.601  0.00  0.00    +0.000 HD
BRANCH  15  17
ATOM     17  C   UNL     1       6.386   4.339  16.204  0.00  0.00    +0.000 C 
BRANCH  17  18
ATOM     18  C   UNL     1       6.591   4.357  14.711  0.00  0.00    +0.000 A 
ATOM     19  C   UNL     1       7.557   5.195  14.134  0.00  0.00    +0.000 A 
ATOM     20  C   UNL     1       7.797   5.166  12.758  0.00  0.00    +0.000 A 
ATOM     21  C   UNL     1       7.069   4.307  11.940  0.00  0.00    +0.000 A 
ATOM     22  C   UNL     1       6.088   3.489  12.494  0.00  0.00    +0.000 A 
ATOM     23  C   UNL     1       5.843   3.517  13.870  0.00  0.00    +0.000 A 
ENDBRANCH  17  18
ENDBRANCH  15  17
ENDBRANCH   5  13
BRANCH   2  24
ATOM     24  C   UNL     1       1.360   8.723  19.446  0.00  0.00    +0.000 C 
BRANCH  24  25
ATOM     25  S   UNL     1       1.104  10.411  18.763  0.00  0.00    +0.000 S 
BRANCH  25  26
ATOM     26  C   UNL     1      -0.654  10.532  18.467  0.00  0.00    +0.000 A 
ATOM     27  C   UNL     1      -1.349  11.504  19.205  0.00  0.00    +0.000 A 
ATOM     28  C   UNL     1      -2.692  11.796  18.933  0.00  0.00    +0.000 A 
ATOM     29  C   UNL     1      -3.349  11.109  17.920  0.00  0.00    +0.000 A 
ATOM     30 CL   UNL     1      -4.977  11.514  17.532  0.00  0.00    +0.000 Cl
ATOM     31  C   UNL     1      -2.685  10.122  17.196  0.00  0.00    +0.000 A 
ATOM     32  C   UNL     1      -1.339   9.834  17.470  0.00  0.00    +0.000 A 
ENDBRANCH  25  26
ENDBRANCH  24  25
ENDBRANCH   2  24
TORSDOF 8
ENDMDL
MODEL 3
REMARK VINA RESULT:      -7.6      1.996      2.892
REMARK  Name = 
REMARK  10 active torsions:
REMARK  status: ('A' for Active; 'I' for Inactive)
REMARK    1  A    between atoms: C_1  and  C_2
REMARK    2  A    between atoms: C_2  and  C_3
REMARK    3  A    between atoms: C_2  and  N_4
REMARK    4  A    between atoms: C_5  and  C_7
REMARK    5  A    between atoms: C_8  and  C_9
REMARK    6  A    between atoms: C_9  and  S_10
REMARK    7  A    between atoms: S_10  and  C_11
REMARK    8  A    between atoms: C_20  and  C_21
REMARK    9  A    between atoms: N_23  and  C_24
REMARK   10  A    between atoms: C_24  and  C_25
REMARK                            x       y       z     vdW  Elec       q    Type
REMARK                         _______ _______ _______ _____ _____    ______ ____
ROOT
ATOM      1  C   UNL     1       6.759   5.864  17.303  0.00  0.00    +0.000 A 
ATOM      2  C   UNL     1       7.684   6.721  17.986  0.00  0.00    +0.000 A 
ATOM      3  N   UNL     1       7.733   6.407  19.291  0.00  0.00    +0.000 NA
ATOM      4  O   UNL     1       6.914   5.318  19.464  0.00  0.00    +0.000 OA
ATOM      5  C   UNL     1       6.328   4.985  18.283  0.00  0.00    +0.000 A 
ENDROOT
BRANCH   1   7
ATOM      6  N   UNL     1       7.073   5.117  15.059  0.00  0.00    +0.000 N 
ATOM      7  C   UNL     1       6.348   5.920  15.914  0.00  0.00    +0.000 C 
ATOM      8  O   UNL     1       5.386   6.590  15.560  0.00  0.00    +0.000 OA
ATOM      9  H   UNL     1       7.945   4.733  15.398  0.00  0.00    +0.000 HD
BRANCH   6  11
ATOM     10  C   UNL     1       8.310   5.468  12.993  0.00  0.00    +0.000 C 
ATOM     11  C   UNL     1       6.945   5.150  13.611  0.00  0.00    +0.000 C 
ATOM     12  C   UNL     1       6.427   3.823  13.063  0.00  0.00    +0.000 C 
ENDBRANCH   6  11
ENDBRANCH   1   7
BRANCH   5  13
ATOM     13  C   UNL     1       5.434   3.852  18.259  0.00  0.00    +0.000 C 
ATOM     14  O   UNL     1       4.733   3.565  17.291  0.00  0.00    +0.000 OA
ATOM     15  N   UNL     1       5.353   3.150  19.446  0.00  0.00    +0.000 N 
ATOM     16  H   UNL     1       5.861   3.501  20.249  0.00  0.00    +0.000 HD
BRANCH  15  17
ATOM     17  C   UNL     1       4.474   2.018  19.613  0.00  0.00    +0.000 C 
BRANCH  17  18
ATOM     18  C   UNL     1       3.028   2.411  19.773  0.00  0.00    +0.000 A 
ATOM     19  C   UNL     1       2.612   3.163  20.883  0.00  0.00    +0.000 A 
ATOM     20  C   UNL     1       1.287   3.587  21.002  0.00  0.00    +0.000 A 
ATOM     21  C   UNL     1       0.357   3.258  20.019  0.00  0.00    +0.000 A 
ATOM     22  C   UNL     1       0.749   2.489  18.926  0.00  0.00    +0.000 A 
ATOM     23  C   UNL     1       2.074   2.061  18.804  0.00  0.00    +0.000 A 
ENDBRANCH  17  18
ENDBRANCH  15  17
ENDBRANCH   5  13
BRANCH   2  24
ATOM     24  C   UNL     1       8.446   7.907  17.442  0.00  0.00    +0.000 C 
BRANCH  24  25
ATOM     25  S   UNL     1       7.599   9.501  17.796  0.00  0.00    +0.000 S 
BRANCH  25  26
ATOM     26  C   UNL     1       8.875  10.575  18.436  0.00  0.00    +0.000 A 
ATOM     27  C   UNL     1       9.157  11.730  17.689  0.00  0.00    +0.000 A 
ATOM     28  C   UNL     1      10.018  12.719  18.181  0.00  0.00    +0.000 A 
ATOM     29  C   UNL     1      10.607  12.553  19.429  0.00  0.00    +0.000 A 
ATOM     30 CL   UNL     1      11.607  13.798  20.073  0.00  0.00    +0.000 Cl
ATOM     31  C   UNL     1      10.362  11.401  20.173  0.00  0.00    +0.000 A 
ATOM     32  C   UNL     1       9.498  10.414  19.676  0.00  0.00    +0.000 A 
ENDBRANCH  25  26
ENDBRANCH  24  25
ENDBRANCH   2  24
TORSDOF 8
ENDMDL
MODEL 4
REMARK VINA RESULT:      -7.6      7.050      9.796
REMARK  Name = 
REMARK  10 active torsions:
REMARK  status: ('A' for Active; 'I' for Inactive)
REMARK    1  A    between atoms: C_1  and  C_2
REMARK    2  A    between atoms: C_2  and  C_3
REMARK    3  A    between atoms: C_2  and  N_4
REMARK    4  A    between atoms: C_5  and  C_7
REMARK    5  A    between atoms: C_8  and  C_9
REMARK    6  A    between atoms: C_9  and  S_10
REMARK    7  A    between atoms: S_10  and  C_11
REMARK    8  A    between atoms: C_20  and  C_21
REMARK    9  A    between atoms: N_23  and  C_24
REMARK   10  A    between atoms: C_24  and  C_25
REMARK                            x       y       z     vdW  Elec       q    Type
REMARK                         _______ _______ _______ _____ _____    ______ ____
ROOT
ATOM      1  C   UNL     1       0.036  10.848  20.396  0.00  0.00    +0.000 A 
ATOM      2  C   UNL     1      -0.117  11.268  21.759  0.00  0.00    +0.000 A 
ATOM      3  N   UNL     1       0.512  10.415  22.583  0.00  0.00    +0.000 NA
ATOM      4  O   UNL     1       1.132   9.484  21.786  0.00  0.00    +0.000 OA
ATOM      5  C   UNL     1       0.856   9.734  20.478  0.00  0.00    +0.000 A 
ENDROOT
BRANCH   1   7
ATOM      6  N   UNL     1      -1.645  10.759  18.705  0.00  0.00    +0.000 N 
ATOM      7  C   UNL     1      -0.553  11.435  19.208  0.00  0.00    +0.000 C 
ATOM      8  O   UNL     1      -0.133  12.486  18.741  0.00  0.00    +0.000 OA
ATOM      9  H   UNL     1      -1.818   9.822  19.045  0.00  0.00    +0.000 HD
BRANCH   6  11
ATOM     10  C   UNL     1      -2.183   9.851  16.513  0.00  0.00    +0.000 C 
ATOM     11  C   UNL     1      -2.277  11.071  17.433  0.00  0.00    +0.000 C 
ATOM     12  C   UNL     1      -3.738  11.470  17.616  0.00  0.00    +0.000 C 
ENDBRANCH   6  11
ENDBRANCH   1   7
BRANCH   5  13
ATOM     13  C   UNL     1       1.430   8.864  19.479  0.00  0.00    +0.000 C 
ATOM     14  O   UNL     1       1.268   9.023  18.271  0.00  0.00    +0.000 OA
ATOM     15  N   UNL     1       2.114   7.774  19.982  0.00  0.00    +0.000 N 
ATOM     16  H   UNL     1       2.114   7.625  20.983  0.00  0.00    +0.000 HD
BRANCH  15  17
ATOM     17  C   UNL     1       2.711   6.778  19.125  0.00  0.00    +0.000 C 
BRANCH  17  18
ATOM     18  C   UNL     1       2.117   5.405  19.311  0.00  0.00    +0.000 A 
ATOM     19  C   UNL     1       1.750   4.954  20.588  0.00  0.00    +0.000 A 
ATOM     20  C   UNL     1       1.137   3.710  20.757  0.00  0.00    +0.000 A 
ATOM     21  C   UNL     1       0.892   2.897  19.654  0.00  0.00    +0.000 A 
ATOM     22  C   UNL     1       1.277   3.319  18.384  0.00  0.00    +0.000 A 
ATOM     23  C   UNL     1       1.891   4.563  18.211  0.00  0.00    +0.000 A 
ENDBRANCH  17  18
ENDBRANCH  15  17
ENDBRANCH   5  13
BRANCH   2  24
ATOM     24  C   UNL     1      -0.942  12.410  22.303  0.00  0.00    +0.000 C 
BRANCH  24  25
ATOM     25  S   UNL     1      -2.358  11.824  23.321  0.00  0.00    +0.000 S 
BRANCH  25  26
ATOM     26  C   UNL     1      -3.794  12.629  22.628  0.00  0.00    +0.000 A 
ATOM     27  C   UNL     1      -3.812  12.792  21.233  0.00  0.00    +0.000 A 
ATOM     28  C   UNL     1      -4.956  13.258  20.572  0.00  0.00    +0.000 A 
ATOM     29  C   UNL     1      -6.092  13.568  21.309  0.00  0.00    +0.000 A 
ATOM     30 CL   UNL     1      -7.525  14.070  20.497  0.00  0.00    +0.000 Cl
ATOM     31  C   UNL     1      -6.085  13.441  22.696  0.00  0.00    +0.000 A 
ATOM     32  C   UNL     1      -4.938  12.972  23.354  0.00  0.00    +0.000 A 
ENDBRANCH  25  26
ENDBRANCH  24  25
ENDBRANCH   2  24
TORSDOF 8
ENDMDL
MODEL 5
REMARK VINA RESULT:      -7.5      0.643      1.388
REMARK  Name = 
REMARK  10 active torsions:
REMARK  status: ('A' for Active; 'I' for Inactive)
REMARK    1  A    between atoms: C_1  and  C_2
REMARK    2  A    between atoms: C_2  and  C_3
REMARK    3  A    between atoms: C_2  and  N_4
REMARK    4  A    between atoms: C_5  and  C_7
REMARK    5  A    between atoms: C_8  and  C_9
REMARK    6  A    between atoms: C_9  and  S_10
REMARK    7  A    between atoms: S_10  and  C_11
REMARK    8  A    between atoms: C_20  and  C_21
REMARK    9  A    between atoms: N_23  and  C_24
REMARK   10  A    between atoms: C_24  and  C_25
REMARK                            x       y       z     vdW  Elec       q    Type
REMARK                         _______ _______ _______ _____ _____    ______ ____
ROOT
ATOM      1  C   UNL     1       6.275   6.487  17.702  0.00  0.00    +0.000 A 
ATOM      2  C   UNL     1       7.498   7.178  17.991  0.00  0.00    +0.000 A 
ATOM      3  N   UNL     1       8.327   6.386  18.689  0.00  0.00    +0.000 NA
ATOM      4  O   UNL     1       7.702   5.168  18.804  0.00  0.00    +0.000 OA
ATOM      5  C   UNL     1       6.476   5.217  18.217  0.00  0.00    +0.000 A 
ENDROOT
BRANCH   1   7
ATOM      6  N   UNL     1       4.033   7.280  17.890  0.00  0.00    +0.000 N 
ATOM      7  C   UNL     1       5.089   7.004  17.047  0.00  0.00    +0.000 C 
ATOM      8  O   UNL     1       5.071   7.229  15.844  0.00  0.00    +0.000 OA
ATOM      9  H   UNL     1       4.070   6.911  18.831  0.00  0.00    +0.000 HD
BRANCH   6  11
ATOM     10  C   UNL     1       1.695   6.607  17.949  0.00  0.00    +0.000 C 
ATOM     11  C   UNL     1       2.700   7.639  17.430  0.00  0.00    +0.000 C 
ATOM     12  C   UNL     1       2.301   9.034  17.903  0.00  0.00    +0.000 C 
ENDBRANCH   6  11
ENDBRANCH   1   7
BRANCH   5  13
ATOM     13  C   UNL     1       5.666   4.023  18.227  0.00  0.00    +0.000 C 
ATOM     14  O   UNL     1       5.166   3.537  17.214  0.00  0.00    +0.000 OA
ATOM     15  N   UNL     1       5.415   3.500  19.481  0.00  0.00    +0.000 N 
ATOM     16  H   UNL     1       5.750   4.007  20.290  0.00  0.00    +0.000 HD
BRANCH  15  17
ATOM     17  C   UNL     1       4.585   2.337  19.678  0.00  0.00    +0.000 C 
BRANCH  17  18
ATOM     18  C   UNL     1       3.113   2.658  19.710  0.00  0.00    +0.000 A 
ATOM     19  C   UNL     1       2.258   2.188  18.701  0.00  0.00    +0.000 A 
ATOM     20  C   UNL     1       0.883   2.427  18.762  0.00  0.00    +0.000 A 
ATOM     21  C   UNL     1       0.346   3.145  19.827  0.00  0.00    +0.000 A 
ATOM     22  C   UNL     1       1.185   3.642  20.821  0.00  0.00    +0.000 A 
ATOM     23  C   UNL     1       2.562   3.407  20.762  0.00  0.00    +0.000 A 
ENDBRANCH  17  18
ENDBRANCH  15  17
ENDBRANCH   5  13
BRANCH   2  24
ATOM     24  C   UNL     1       7.854   8.618  17.706  0.00  0.00    +0.000 C 
BRANCH  24  25
ATOM     25  S   UNL     1       8.995   9.317  18.968  0.00  0.00    +0.000 S 
BRANCH  25  26
ATOM     26  C   UNL     1       9.184  11.037  18.524  0.00  0.00    +0.000 A 
ATOM     27  C   UNL     1       8.183  11.589  17.707  0.00  0.00    +0.000 A 
ATOM     28  C   UNL     1       8.145  12.963  17.437  0.00  0.00    +0.000 A 
ATOM     29  C   UNL     1       9.115  13.794  17.982  0.00  0.00    +0.000 A 
ATOM     30 CL   UNL     1       9.032  15.493  17.715  0.00  0.00    +0.000 Cl
ATOM     31  C   UNL     1      10.132  13.262  18.771  0.00  0.00    +0.000 A 
ATOM     32  C   UNL     1      10.165  11.885  19.041  0.00  0.00    +0.000 A 
ENDBRANCH  25  26
ENDBRANCH  24  25
ENDBRANCH   2  24
TORSDOF 8
ENDMDL
MODEL 6
REMARK VINA RESULT:      -7.4      4.867      7.324
REMARK  Name = 
REMARK  10 active torsions:
REMARK  status: ('A' for Active; 'I' for Inactive)
REMARK    1  A    between atoms: C_1  and  C_2
REMARK    2  A    between atoms: C_2  and  C_3
REMARK    3  A    between atoms: C_2  and  N_4
REMARK    4  A    between atoms: C_5  and  C_7
REMARK    5  A    between atoms: C_8  and  C_9
REMARK    6  A    between atoms: C_9  and  S_10
REMARK    7  A    between atoms: S_10  and  C_11
REMARK    8  A    between atoms: C_20  and  C_21
REMARK    9  A    between atoms: N_23  and  C_24
REMARK   10  A    between atoms: C_24  and  C_25
REMARK                            x       y       z     vdW  Elec       q    Type
REMARK                         _______ _______ _______ _____ _____    ______ ____
ROOT
ATOM      1  C   UNL     1       3.101   6.462  18.857  0.00  0.00    +0.000 A 
ATOM      2  C   UNL     1       4.444   6.116  18.490  0.00  0.00    +0.000 A 
ATOM      3  N   UNL     1       4.930   7.005  17.610  0.00  0.00    +0.000 NA
ATOM      4  O   UNL     1       3.961   7.964  17.445  0.00  0.00    +0.000 OA
ATOM      5  C   UNL     1       2.864   7.650  18.186  0.00  0.00    +0.000 A 
ENDROOT
BRANCH   1   7
ATOM      6  N   UNL     1       1.985   4.410  19.345  0.00  0.00    +0.000 N 
ATOM      7  C   UNL     1       2.190   5.724  19.710  0.00  0.00    +0.000 C 
ATOM      8  O   UNL     1       1.699   6.233  20.710  0.00  0.00    +0.000 OA
ATOM      9  H   UNL     1       2.289   4.123  18.424  0.00  0.00    +0.000 HD
BRANCH   6  11
ATOM     10  C   UNL     1       0.647   2.410  18.983  0.00  0.00    +0.000 C 
ATOM     11  C   UNL     1       0.985   3.546  19.952  0.00  0.00    +0.000 C 
ATOM     12  C   UNL     1       1.474   2.967  21.276  0.00  0.00    +0.000 C 
ENDBRANCH   6  11
ENDBRANCH   1   7
BRANCH   5  13
ATOM     13  C   UNL     1       1.735   8.549  18.151  0.00  0.00    +0.000 C 
ATOM     14  O   UNL     1       0.992   8.663  17.179  0.00  0.00    +0.000 OA
ATOM     15  N   UNL     1       1.593   9.347  19.269  0.00  0.00    +0.000 N 
ATOM     16  H   UNL     1       2.303   9.298  19.990  0.00  0.00    +0.000 HD
BRANCH  15  17
ATOM     17  C   UNL     1       0.547  10.334  19.383  0.00  0.00    +0.000 C 
BRANCH  17  18
ATOM     18  C   UNL     1      -0.016  10.441  20.777  0.00  0.00    +0.000 A 
ATOM     19  C   UNL     1      -0.683  11.606  21.188  0.00  0.00    +0.000 A 
ATOM     20  C   UNL     1      -1.265  11.685  22.456  0.00  0.00    +0.000 A 
ATOM     21  C   UNL     1      -1.180  10.606  23.332  0.00  0.00    +0.000 A 
ATOM     22  C   UNL     1      -0.497   9.455  22.948  0.00  0.00    +0.000 A 
ATOM     23  C   UNL     1       0.088   9.372  21.681  0.00  0.00    +0.000 A 
ENDBRANCH  17  18
ENDBRANCH  15  17
ENDBRANCH   5  13
BRANCH   2  24
ATOM     24  C   UNL     1       5.240   4.893  18.881  0.00  0.00    +0.000 C 
BRANCH  24  25
ATOM     25  S   UNL     1       6.874   4.828  18.041  0.00  0.00    +0.000 S 
BRANCH  25  26
ATOM     26  C   UNL     1       6.501   4.548  16.316  0.00  0.00    +0.000 A 
ATOM     27  C   UNL     1       7.413   5.068  15.384  0.00  0.00    +0.000 A 
ATOM     28  C   UNL     1       7.306   4.766  14.020  0.00  0.00    +0.000 A 
ATOM     29  C   UNL     1       6.277   3.942  13.581  0.00  0.00    +0.000 A 
ATOM     30 CL   UNL     1       6.182   3.508  11.918  0.00  0.00    +0.000 Cl
ATOM     31  C   UNL     1       5.345   3.440  14.486  0.00  0.00    +0.000 A 
ATOM     32  C   UNL     1       5.458   3.743  15.852  0.00  0.00    +0.000 A 
ENDBRANCH  25  26
ENDBRANCH  24  25
ENDBRANCH   2  24
TORSDOF 8
ENDMDL
MODEL 7
REMARK VINA RESULT:      -7.3      6.347      9.307
REMARK  Name = 
REMARK  10 active torsions:
REMARK  status: ('A' for Active; 'I' for Inactive)
REMARK    1  A    between atoms: C_1  and  C_2
REMARK    2  A    between atoms: C_2  and  C_3
REMARK    3  A    between atoms: C_2  and  N_4
REMARK    4  A    between atoms: C_5  and  C_7
REMARK    5  A    between atoms: C_8  and  C_9
REMARK    6  A    between atoms: C_9  and  S_10
REMARK    7  A    between atoms: S_10  and  C_11
REMARK    8  A    between atoms: C_20  and  C_21
REMARK    9  A    between atoms: N_23  and  C_24
REMARK   10  A    between atoms: C_24  and  C_25
REMARK                            x       y       z     vdW  Elec       q    Type
REMARK                         _______ _______ _______ _____ _____    ______ ____
ROOT
ATOM      1  C   UNL     1       0.735   9.677  20.185  0.00  0.00    +0.000 A 
ATOM      2  C   UNL     1       0.704  10.619  21.267  0.00  0.00    +0.000 A 
ATOM      3  N   UNL     1       1.194  10.060  22.385  0.00  0.00    +0.000 NA
ATOM      4  O   UNL     1       1.608   8.797  22.043  0.00  0.00    +0.000 OA
ATOM      5  C   UNL     1       1.340   8.558  20.732  0.00  0.00    +0.000 A 
ENDROOT
BRANCH   1   7
ATOM      6  N   UNL     1      -1.120  10.143  18.758  0.00  0.00    +0.000 N 
ATOM      7  C   UNL     1       0.225   9.846  18.838  0.00  0.00    +0.000 C 
ATOM      8  O   UNL     1       0.964   9.787  17.864  0.00  0.00    +0.000 OA
ATOM      9  H   UNL     1      -1.683  10.007  19.587  0.00  0.00    +0.000 HD
BRANCH   6  11
ATOM     10  C   UNL     1      -3.230   9.512  17.724  0.00  0.00    +0.000 C 
ATOM     11  C   UNL     1      -1.869  10.181  17.512  0.00  0.00    +0.000 C 
ATOM     12  C   UNL     1      -2.067  11.612  17.021  0.00  0.00    +0.000 C 
ENDBRANCH   6  11
ENDBRANCH   1   7
BRANCH   5  13
ATOM     13  C   UNL     1       1.714   7.278  20.179  0.00  0.00    +0.000 C 
ATOM     14  O   UNL     1       1.500   6.208  20.747  0.00  0.00    +0.000 OA
ATOM     15  N   UNL     1       2.417   7.340  18.992  0.00  0.00    +0.000 N 
ATOM     16  H   UNL     1       2.672   8.250  18.630  0.00  0.00    +0.000 HD
BRANCH  15  17
ATOM     17  C   UNL     1       2.908   6.158  18.325  0.00  0.00    +0.000 C 
BRANCH  17  18
ATOM     18  C   UNL     1       4.412   6.111  18.237  0.00  0.00    +0.000 A 
ATOM     19  C   UNL     1       5.091   6.832  17.242  0.00  0.00    +0.000 A 
ATOM     20  C   UNL     1       6.487   6.845  17.198  0.00  0.00    +0.000 A 
ATOM     21  C   UNL     1       7.223   6.132  18.140  0.00  0.00    +0.000 A 
ATOM     22  C   UNL     1       6.563   5.390  19.116  0.00  0.00    +0.000 A 
ATOM     23  C   UNL     1       5.166   5.373  19.163  0.00  0.00    +0.000 A 
ENDBRANCH  17  18
ENDBRANCH  15  17
ENDBRANCH   5  13
BRANCH   2  24
ATOM     24  C   UNL     1       0.118  12.012  21.285  0.00  0.00    +0.000 C 
BRANCH  24  25
ATOM     25  S   UNL     1      -0.985  12.285  22.730  0.00  0.00    +0.000 S 
BRANCH  25  26
ATOM     26  C   UNL     1      -2.623  12.466  22.039  0.00  0.00    +0.000 A 
ATOM     27  C   UNL     1      -3.675  12.641  22.953  0.00  0.00    +0.000 A 
ATOM     28  C   UNL     1      -4.968  12.955  22.516  0.00  0.00    +0.000 A 
ATOM     29  C   UNL     1      -5.216  13.094  21.157  0.00  0.00    +0.000 A 
ATOM     30 CL   UNL     1      -6.786  13.554  20.618  0.00  0.00    +0.000 Cl
ATOM     31  C   UNL     1      -4.193  12.897  20.233  0.00  0.00    +0.000 A 
ATOM     32  C   UNL     1      -2.898  12.583  20.674  0.00  0.00    +0.000 A 
ENDBRANCH  25  26
ENDBRANCH  24  25
ENDBRANCH   2  24
TORSDOF 8
ENDMDL
MODEL 8
REMARK VINA RESULT:      -7.3      6.084      8.221
REMARK  Name = 
REMARK  10 active torsions:
REMARK  status: ('A' for Active; 'I' for Inactive)
REMARK    1  A    between atoms: C_1  and  C_2
REMARK    2  A    between atoms: C_2  and  C_3
REMARK    3  A    between atoms: C_2  and  N_4
REMARK    4  A    between atoms: C_5  and  C_7
REMARK    5  A    between atoms: C_8  and  C_9
REMARK    6  A    between atoms: C_9  and  S_10
REMARK    7  A    between atoms: S_10  and  C_11
REMARK    8  A    between atoms: C_20  and  C_21
REMARK    9  A    between atoms: N_23  and  C_24
REMARK   10  A    between atoms: C_24  and  C_25
REMARK                            x       y       z     vdW  Elec       q    Type
REMARK                         _______ _______ _______ _____ _____    ______ ____
ROOT
ATOM      1  C   UNL     1      -0.252  11.141  19.797  0.00  0.00    +0.000 A 
ATOM      2  C   UNL     1      -0.441  11.620  21.135  0.00  0.00    +0.000 A 
ATOM      3  N   UNL     1       0.280  10.887  21.998  0.00  0.00    +0.000 NA
ATOM      4  O   UNL     1       0.990   9.983  21.248  0.00  0.00    +0.000 OA
ATOM      5  C   UNL     1       0.682  10.126  19.931  0.00  0.00    +0.000 A 
ENDROOT
BRANCH   1   7
ATOM      6  N   UNL     1      -1.999  10.845  18.199  0.00  0.00    +0.000 N 
ATOM      7  C   UNL     1      -0.906  11.593  18.584  0.00  0.00    +0.000 C 
ATOM      8  O   UNL     1      -0.537  12.602  17.998  0.00  0.00    +0.000 OA
ATOM      9  H   UNL     1      -2.131   9.943  18.636  0.00  0.00    +0.000 HD
BRANCH   6  11
ATOM     10  C   UNL     1      -2.600   9.713  16.130  0.00  0.00    +0.000 C 
ATOM     11  C   UNL     1      -2.692  11.015  16.932  0.00  0.00    +0.000 C 
ATOM     12  C   UNL     1      -4.157  11.390  17.140  0.00  0.00    +0.000 C 
ENDBRANCH   6  11
ENDBRANCH   1   7
BRANCH   5  13
ATOM     13  C   UNL     1       1.339   9.266  18.977  0.00  0.00    +0.000 C 
ATOM     14  O   UNL     1       1.337   9.475  17.766  0.00  0.00    +0.000 OA
ATOM     15  N   UNL     1       1.909   8.128  19.516  0.00  0.00    +0.000 N 
ATOM     16  H   UNL     1       1.777   7.945  20.502  0.00  0.00    +0.000 HD
BRANCH  15  17
ATOM     17  C   UNL     1       2.566   7.137  18.700  0.00  0.00    +0.000 C 
BRANCH  17  18
ATOM     18  C   UNL     1       2.096   5.733  18.983  0.00  0.00    +0.000 A 
ATOM     19  C   UNL     1       1.802   5.330  20.294  0.00  0.00    +0.000 A 
ATOM     20  C   UNL     1       1.302   4.051  20.553  0.00  0.00    +0.000 A 
ATOM     21  C   UNL     1       1.100   3.155  19.507  0.00  0.00    +0.000 A 
ATOM     22  C   UNL     1       1.414   3.531  18.203  0.00  0.00    +0.000 A 
ATOM     23  C   UNL     1       1.915   4.809  17.941  0.00  0.00    +0.000 A 
ENDBRANCH  17  18
ENDBRANCH  15  17
ENDBRANCH   5  13
BRANCH   2  24
ATOM     24  C   UNL     1      -1.380  12.698  21.624  0.00  0.00    +0.000 C 
BRANCH  24  25
ATOM     25  S   UNL     1      -0.479  14.150  22.304  0.00  0.00    +0.000 S 
BRANCH  25  26
ATOM     26  C   UNL     1      -0.457  15.348  20.979  0.00  0.00    +0.000 A 
ATOM     27  C   UNL     1       0.521  15.169  19.987  0.00  0.00    +0.000 A 
ATOM     28  C   UNL     1       0.524  15.949  18.823  0.00  0.00    +0.000 A 
ATOM     29  C   UNL     1      -0.457  16.918  18.648  0.00  0.00    +0.000 A 
ATOM     30 CL   UNL     1      -0.504  17.828  17.187  0.00  0.00    +0.000 Cl
ATOM     31  C   UNL     1      -1.418  17.129  19.632  0.00  0.00    +0.000 A 
ATOM     32  C   UNL     1      -1.418  16.345  20.796  0.00  0.00    +0.000 A 
ENDBRANCH  25  26
ENDBRANCH  24  25
ENDBRANCH   2  24
TORSDOF 8
ENDMDL
MODEL 9
REMARK VINA RESULT:      -7.3      7.361      9.823
REMARK  Name = 
REMARK  10 active torsions:
REMARK  status: ('A' for Active; 'I' for Inactive)
REMARK    1  A    between atoms: C_1  and  C_2
REMARK    2  A    between atoms: C_2  and  C_3
REMARK    3  A    between atoms: C_2  and  N_4
REMARK    4  A    between atoms: C_5  and  C_7
REMARK    5  A    between atoms: C_8  and  C_9
REMARK    6  A    between atoms: C_9  and  S_10
REMARK    7  A    between atoms: S_10  and  C_11
REMARK    8  A    between atoms: C_20  and  C_21
REMARK    9  A    between atoms: N_23  and  C_24
REMARK   10  A    between atoms: C_24  and  C_25
REMARK                            x       y       z     vdW  Elec       q    Type
REMARK                         _______ _______ _______ _____ _____    ______ ____
ROOT
ATOM      1  C   UNL     1      -0.167  11.150  20.041  0.00  0.00    +0.000 A 
ATOM      2  C   UNL     1      -0.343  11.588  21.395  0.00  0.00    +0.000 A 
ATOM      3  N   UNL     1       0.369  10.814  22.230  0.00  0.00    +0.000 NA
ATOM      4  O   UNL     1       1.061   9.923  21.447  0.00  0.00    +0.000 OA
ATOM      5  C   UNL     1       0.749  10.116  20.137  0.00  0.00    +0.000 A 
ENDROOT
BRANCH   1   7
ATOM      6  N   UNL     1      -1.955  10.969  18.471  0.00  0.00    +0.000 N 
ATOM      7  C   UNL     1      -0.819  11.654  18.847  0.00  0.00    +0.000 C 
ATOM      8  O   UNL     1      -0.408  12.652  18.269  0.00  0.00    +0.000 OA
ATOM      9  H   UNL     1      -2.126  10.068  18.898  0.00  0.00    +0.000 HD
BRANCH   6  11
ATOM     10  C   UNL     1      -2.455   9.983  16.303  0.00  0.00    +0.000 C 
ATOM     11  C   UNL     1      -2.661  11.192  17.220  0.00  0.00    +0.000 C 
ATOM     12  C   UNL     1      -4.153  11.418  17.450  0.00  0.00    +0.000 C 
ENDBRANCH   6  11
ENDBRANCH   1   7
BRANCH   5  13
ATOM     13  C   UNL     1       1.387   9.276  19.152  0.00  0.00    +0.000 C 
ATOM     14  O   UNL     1       1.417   9.545  17.953  0.00  0.00    +0.000 OA
ATOM     15  N   UNL     1       1.896   8.089  19.642  0.00  0.00    +0.000 N 
ATOM     16  H   UNL     1       1.738   7.862  20.616  0.00  0.00    +0.000 HD
BRANCH  15  17
ATOM     17  C   UNL     1       2.526   7.111  18.788  0.00  0.00    +0.000 C 
BRANCH  17  18
ATOM     18  C   UNL     1       2.054   5.704  19.052  0.00  0.00    +0.000 A 
ATOM     19  C   UNL     1       1.699   5.303  20.349  0.00  0.00    +0.000 A 
ATOM     20  C   UNL     1       1.197   4.021  20.587  0.00  0.00    +0.000 A 
ATOM     21  C   UNL     1       1.053   3.121  19.535  0.00  0.00    +0.000 A 
ATOM     22  C   UNL     1       1.428   3.496  18.247  0.00  0.00    +0.000 A 
ATOM     23  C   UNL     1       1.931   4.777  18.005  0.00  0.00    +0.000 A 
ENDBRANCH  17  18
ENDBRANCH  15  17
ENDBRANCH   5  13
BRANCH   2  24
ATOM     24  C   UNL     1      -1.260  12.666  21.924  0.00  0.00    +0.000 C 
BRANCH  24  25
ATOM     25  S   UNL     1      -2.421  12.028  23.199  0.00  0.00    +0.000 S 
BRANCH  25  26
ATOM     26  C   UNL     1      -3.309  13.465  23.781  0.00  0.00    +0.000 A 
ATOM     27  C   UNL     1      -2.581  14.383  24.555  0.00  0.00    +0.000 A 
ATOM     28  C   UNL     1      -3.131  15.618  24.922  0.00  0.00    +0.000 A 
ATOM     29  C   UNL     1      -4.420  15.940  24.516  0.00  0.00    +0.000 A 
ATOM     30 CL   UNL     1      -5.074  17.486  24.900  0.00  0.00    +0.000 Cl
ATOM     31  C   UNL     1      -5.169  15.032  23.772  0.00  0.00    +0.000 A 
ATOM     32  C   UNL     1      -4.613  13.796  23.406  0.00  0.00    +0.000 A 
ENDBRANCH  25  26
ENDBRANCH  24  25
ENDBRANCH   2  24
TORSDOF 8
ENDMDL
