MODEL 1
REMARK VINA RESULT:      -7.2      0.000      0.000
REMARK  Name = 
REMARK  6 active torsions:
REMARK  status: ('A' for Active; 'I' for Inactive)
REMARK    1  A    between atoms: C_2  and  O_3
REMARK    2  A    between atoms: C_2  and  C_20
REMARK    3  A    between atoms: O_3  and  C_4
REMARK    4  A    between atoms: C_4  and  C_5
REMARK    5  A    between atoms: N_7  and  C_8
REMARK    6  A    between atoms: N_7  and  C_14
REMARK                            x       y       z     vdW  Elec       q    Type
REMARK                         _______ _______ _______ _____ _____    ______ ____
ROOT
ATOM      1  C   UNL     1       3.204   7.529  17.775  0.00  0.00    +0.000 C 
ATOM      2  O   UNL     1       3.533   8.634  17.326  0.00  0.00    +0.000 OA
ATOM      3  N   UNL     1       3.994   6.372  17.535  0.00  0.00    +0.000 N 
ENDROOT
BRANCH   3   4
ATOM      4  C   UNL     1       3.739   4.966  17.975  0.00  0.00    +0.000 C 
ATOM      5  C   UNL     1       4.062   4.704  19.446  0.00  0.00    +0.000 C 
ATOM      6  C   UNL     1       2.894   5.013  20.353  0.00  0.00    +0.000 C 
ATOM      7  C   UNL     1       1.689   4.155  20.015  0.00  0.00    +0.000 C 
ATOM      8  C   UNL     1       1.339   4.033  18.534  0.00  0.00    +0.000 C 
ATOM      9  C   UNL     1       2.478   4.208  17.519  0.00  0.00    +0.000 C 
ENDBRANCH   3   4
BRANCH   3  10
ATOM     10  C   UNL     1       5.233   6.634  16.707  0.00  0.00    +0.000 C 
ATOM     11  C   UNL     1       6.594   6.892  17.409  0.00  0.00    +0.000 C 
ATOM     12  C   UNL     1       7.381   5.664  17.879  0.00  0.00    +0.000 C 
ATOM     13  C   UNL     1       7.364   4.501  16.890  0.00  0.00    +0.000 C 
ATOM     14  C   UNL     1       6.015   4.265  16.216  0.00  0.00    +0.000 C 
ATOM     15  C   UNL     1       5.434   5.549  15.635  0.00  0.00    +0.000 C 
ENDBRANCH   3  10
BRANCH   1  16
ATOM     16  C   UNL     1       1.905   7.438  18.590  0.00  0.00    +0.000 C 
BRANCH  16  17
ATOM     17  O   UNL     1       1.745   8.336  19.696  0.00  0.00    +0.000 OA
BRANCH  17  19
ATOM     18  O   UNL     1       0.725   9.932  18.406  0.00  0.00    +0.000 OA
ATOM     19  C   UNL     1       0.936   9.407  19.487  0.00  0.00    +0.000 C 
BRANCH  19  20
ATOM     20  C   UNL     1       0.350   9.933  20.753  0.00  0.00    +0.000 A 
ATOM     21  C   UNL     1       0.820   9.400  21.950  0.00  0.00    +0.000 A 
ATOM     22  N   UNL     1       0.324   9.765  23.165  0.00  0.00    +0.000 NA
ATOM     23  C   UNL     1      -0.674  10.675  23.127  0.00  0.00    +0.000 A 
ATOM     24  C   UNL     1      -1.160  11.194  21.937  0.00  0.00    +0.000 A 
ATOM     25  N   UNL     1      -0.659  10.841  20.721  0.00  0.00    +0.000 NA
ENDBRANCH  19  20
ENDBRANCH  17  19
ENDBRANCH  16  17
ENDBRANCH   1  16
TORSDOF 6
ENDMDL
MODEL 2
REMARK VINA RESULT:      -7.2      4.758      8.631
REMARK  Name = 
REMARK  6 active torsions:
REMARK  status: ('A' for Active; 'I' for Inactive)
REMARK    1  A    between atoms: C_2  and  O_3
REMARK    2  A    between atoms: C_2  and  C_20
REMARK    3  A    between atoms: O_3  and  C_4
REMARK    4  A    between atoms: C_4  and  C_5
REMARK    5  A    between atoms: N_7  and  C_8
REMARK    6  A    between atoms: N_7  and  C_14
REMARK                            x       y       z     vdW  Elec       q    Type
REMARK                         _______ _______ _______ _____ _____    ______ ____
ROOT
ATOM      1  C   UNL     1       5.814   3.950  16.243  0.00  0.00    +0.000 C 
ATOM      2  O   UNL     1       5.522   2.879  15.695  0.00  0.00    +0.000 OA
ATOM      3  N   UNL     1       5.184   4.354  17.450  0.00  0.00    +0.000 N 
ENDROOT
BRANCH   3   4
ATOM      4  C   UNL     1       5.392   5.614  18.228  0.00  0.00    +0.000 C 
ATOM      5  C   UNL     1       6.428   5.493  19.345  0.00  0.00    +0.000 C 
ATOM      6  C   UNL     1       7.831   5.772  18.857  0.00  0.00    +0.000 C 
ATOM      7  C   UNL     1       7.955   7.179  18.303  0.00  0.00    +0.000 C 
ATOM      8  C   UNL     1       6.843   7.635  17.361  0.00  0.00    +0.000 C 
ATOM      9  C   UNL     1       5.463   6.981  17.523  0.00  0.00    +0.000 C 
ENDBRANCH   3   4
BRANCH   3  10
ATOM     10  C   UNL     1       4.163   3.368  17.972  0.00  0.00    +0.000 C 
ATOM     11  C   UNL     1       3.957   3.203  19.503  0.00  0.00    +0.000 C 
ATOM     12  C   UNL     1       3.062   4.232  20.201  0.00  0.00    +0.000 C 
ATOM     13  C   UNL     1       1.812   4.606  19.409  0.00  0.00    +0.000 C 
ATOM     14  C   UNL     1       2.040   4.766  17.908  0.00  0.00    +0.000 C 
ATOM     15  C   UNL     1       2.789   3.578  17.314  0.00  0.00    +0.000 C 
ENDBRANCH   3  10
BRANCH   1  16
ATOM     16  C   UNL     1       6.869   4.841  15.569  0.00  0.00    +0.000 C 
BRANCH  16  17
ATOM     17  O   UNL     1       6.519   5.472  14.330  0.00  0.00    +0.000 OA
BRANCH  17  19
ATOM     18  O   UNL     1       8.230   5.661  12.817  0.00  0.00    +0.000 OA
ATOM     19  C   UNL     1       7.236   5.094  13.241  0.00  0.00    +0.000 C 
BRANCH  19  20
ATOM     20  C   UNL     1       6.646   3.909  12.554  0.00  0.00    +0.000 A 
ATOM     21  C   UNL     1       7.520   3.031  11.920  0.00  0.00    +0.000 A 
ATOM     22  N   UNL     1       7.094   1.944  11.218  0.00  0.00    +0.000 NA
ATOM     23  C   UNL     1       5.753   1.784  11.166  0.00  0.00    +0.000 A 
ATOM     24  C   UNL     1       4.877   2.667  11.779  0.00  0.00    +0.000 A 
ATOM     25  N   UNL     1       5.299   3.748  12.492  0.00  0.00    +0.000 NA
ENDBRANCH  19  20
ENDBRANCH  17  19
ENDBRANCH  16  17
ENDBRANCH   1  16
TORSDOF 6
ENDMDL
MODEL 3
REMARK VINA RESULT:      -7.1      4.038      5.490
REMARK  Name = 
REMARK  6 active torsions:
REMARK  status: ('A' for Active; 'I' for Inactive)
REMARK    1  A    between atoms: C_2  and  O_3
REMARK    2  A    between atoms: C_2  and  C_20
REMARK    3  A    between atoms: O_3  and  C_4
REMARK    4  A    between atoms: C_4  and  C_5
REMARK    5  A    between atoms: N_7  and  C_8
REMARK    6  A    between atoms: N_7  and  C_14
REMARK                            x       y       z     vdW  Elec       q    Type
REMARK                         _______ _______ _______ _____ _____    ______ ____
ROOT
ATOM      1  C   UNL     1       4.491   4.217  16.678  0.00  0.00    +0.000 C 
ATOM      2  O   UNL     1       5.052   3.488  15.850  0.00  0.00    +0.000 OA
ATOM      3  N   UNL     1       5.202   5.243  17.355  0.00  0.00    +0.000 N 
ENDROOT
BRANCH   3   4
ATOM      4  C   UNL     1       4.697   6.192  18.395  0.00  0.00    +0.000 C 
ATOM      5  C   UNL     1       4.154   7.504  17.830  0.00  0.00    +0.000 C 
ATOM      6  C   UNL     1       2.692   7.408  17.460  0.00  0.00    +0.000 C 
ATOM      7  C   UNL     1       1.837   7.070  18.667  0.00  0.00    +0.000 C 
ATOM      8  C   UNL     1       2.349   5.947  19.566  0.00  0.00    +0.000 C 
ATOM      9  C   UNL     1       3.863   5.691  19.589  0.00  0.00    +0.000 C 
ENDBRANCH   3   4
BRANCH   3  10
ATOM     10  C   UNL     1       6.659   5.344  16.964  0.00  0.00    +0.000 C 
ATOM     11  C   UNL     1       7.240   6.700  16.479  0.00  0.00    +0.000 C 
ATOM     12  C   UNL     1       7.641   7.713  17.557  0.00  0.00    +0.000 C 
ATOM     13  C   UNL     1       8.345   7.092  18.760  0.00  0.00    +0.000 C 
ATOM     14  C   UNL     1       7.755   5.761  19.220  0.00  0.00    +0.000 C 
ATOM     15  C   UNL     1       7.578   4.784  18.063  0.00  0.00    +0.000 C 
ENDBRANCH   3  10
BRANCH   1  16
ATOM     16  C   UNL     1       3.002   3.969  16.966  0.00  0.00    +0.000 C 
BRANCH  16  17
ATOM     17  O   UNL     1       2.561   2.611  17.093  0.00  0.00    +0.000 OA
BRANCH  17  19
ATOM     18  O   UNL     1       3.909   0.994  17.999  0.00  0.00    +0.000 OA
ATOM     19  C   UNL     1       3.100   1.900  18.117  0.00  0.00    +0.000 C 
BRANCH  19  20
ATOM     20  C   UNL     1       2.551   2.306  19.443  0.00  0.00    +0.000 A 
ATOM     21  C   UNL     1       3.418   2.284  20.531  0.00  0.00    +0.000 A 
ATOM     22  N   UNL     1       3.018   2.585  21.798  0.00  0.00    +0.000 NA
ATOM     23  C   UNL     1       1.709   2.893  21.929  0.00  0.00    +0.000 A 
ATOM     24  C   UNL     1       0.837   2.896  20.851  0.00  0.00    +0.000 A 
ATOM     25  N   UNL     1       1.235   2.607  19.581  0.00  0.00    +0.000 NA
ENDBRANCH  19  20
ENDBRANCH  17  19
ENDBRANCH  16  17
ENDBRANCH   1  16
TORSDOF 6
ENDMDL
MODEL 4
REMARK VINA RESULT:      -7.1      0.807      1.115
REMARK  Name = 
REMARK  6 active torsions:
REMARK  status: ('A' for Active; 'I' for Inactive)
REMARK    1  A    between atoms: C_2  and  O_3
REMARK    2  A    between atoms: C_2  and  C_20
REMARK    3  A    between atoms: O_3  and  C_4
REMARK    4  A    between atoms: C_4  and  C_5
REMARK    5  A    between atoms: N_7  and  C_8
REMARK    6  A    between atoms: N_7  and  C_14
REMARK                            x       y       z     vdW  Elec       q    Type
REMARK                         _______ _______ _______ _____ _____    ______ ____
ROOT
ATOM      1  C   UNL     1       3.386   7.380  17.912  0.00  0.00    +0.000 C 
ATOM      2  O   UNL     1       3.750   8.513  17.573  0.00  0.00    +0.000 OA
ATOM      3  N   UNL     1       4.136   6.227  17.553  0.00  0.00    +0.000 N 
ENDROOT
BRANCH   3   4
ATOM      4  C   UNL     1       3.835   4.794  17.853  0.00  0.00    +0.000 C 
ATOM      5  C   UNL     1       4.238   4.353  19.260  0.00  0.00    +0.000 C 
ATOM      6  C   UNL     1       3.149   4.610  20.275  0.00  0.00    +0.000 C 
ATOM      7  C   UNL     1       1.881   3.852  19.931  0.00  0.00    +0.000 C 
ATOM      8  C   UNL     1       1.430   3.914  18.473  0.00  0.00    +0.000 C 
ATOM      9  C   UNL     1       2.509   4.150  17.407  0.00  0.00    +0.000 C 
ENDBRANCH   3   4
BRANCH   3  10
ATOM     10  C   UNL     1       5.379   6.529  16.747  0.00  0.00    +0.000 C 
ATOM     11  C   UNL     1       6.778   6.161  17.312  0.00  0.00    +0.000 C 
ATOM     12  C   UNL     1       7.236   4.708  17.148  0.00  0.00    +0.000 C 
ATOM     13  C   UNL     1       6.899   4.101  15.789  0.00  0.00    +0.000 C 
ATOM     14  C   UNL     1       5.518   4.474  15.256  0.00  0.00    +0.000 C 
ATOM     15  C   UNL     1       5.270   5.977  15.315  0.00  0.00    +0.000 C 
ENDBRANCH   3  10
BRANCH   1  16
ATOM     16  C   UNL     1       2.087   7.252  18.723  0.00  0.00    +0.000 C 
BRANCH  16  17
ATOM     17  O   UNL     1       1.610   8.416  19.410  0.00  0.00    +0.000 OA
BRANCH  17  19
ATOM     18  O   UNL     1       1.314   7.192  21.325  0.00  0.00    +0.000 OA
ATOM     19  C   UNL     1       1.209   8.231  20.695  0.00  0.00    +0.000 C 
BRANCH  19  20
ATOM     20  C   UNL     1       0.557   9.444  21.267  0.00  0.00    +0.000 A 
ATOM     21  C   UNL     1       0.313   9.457  22.637  0.00  0.00    +0.000 A 
ATOM     22  N   UNL     1      -0.323  10.487  23.263  0.00  0.00    +0.000 NA
ATOM     23  C   UNL     1      -0.716  11.495  22.455  0.00  0.00    +0.000 A 
ATOM     24  C   UNL     1      -0.493  11.478  21.086  0.00  0.00    +0.000 A 
ATOM     25  N   UNL     1       0.152  10.456  20.458  0.00  0.00    +0.000 NA
ENDBRANCH  19  20
ENDBRANCH  17  19
ENDBRANCH  16  17
ENDBRANCH   1  16
TORSDOF 6
ENDMDL
MODEL 5
REMARK VINA RESULT:      -7.1      3.359      7.190
REMARK  Name = 
REMARK  6 active torsions:
REMARK  status: ('A' for Active; 'I' for Inactive)
REMARK    1  A    between atoms: C_2  and  O_3
REMARK    2  A    between atoms: C_2  and  C_20
REMARK    3  A    between atoms: O_3  and  C_4
REMARK    4  A    between atoms: C_4  and  C_5
REMARK    5  A    between atoms: N_7  and  C_8
REMARK    6  A    between atoms: N_7  and  C_14
REMARK                            x       y       z     vdW  Elec       q    Type
REMARK                         _______ _______ _______ _____ _____    ______ ____
ROOT
ATOM      1  C   UNL     1       5.055   5.137  19.106  0.00  0.00    +0.000 C 
ATOM      2  O   UNL     1       6.044   4.439  19.364  0.00  0.00    +0.000 OA
ATOM      3  N   UNL     1       3.736   4.641  19.288  0.00  0.00    +0.000 N 
ENDROOT
BRANCH   3   4
ATOM      4  C   UNL     1       2.439   5.329  19.006  0.00  0.00    +0.000 C 
ATOM      5  C   UNL     1       1.785   5.957  20.237  0.00  0.00    +0.000 C 
ATOM      6  C   UNL     1       2.274   7.363  20.490  0.00  0.00    +0.000 C 
ATOM      7  C   UNL     1       1.959   8.278  19.320  0.00  0.00    +0.000 C 
ATOM      8  C   UNL     1       2.271   7.728  17.930  0.00  0.00    +0.000 C 
ATOM      9  C   UNL     1       2.259   6.203  17.751  0.00  0.00    +0.000 C 
ENDBRANCH   3   4
BRANCH   3  10
ATOM     10  C   UNL     1       3.678   3.225  19.814  0.00  0.00    +0.000 C 
ATOM     11  C   UNL     1       2.717   2.870  20.982  0.00  0.00    +0.000 C 
ATOM     12  C   UNL     1       1.251   2.610  20.623  0.00  0.00    +0.000 C 
ATOM     13  C   UNL     1       1.059   1.795  19.347  0.00  0.00    +0.000 C 
ATOM     14  C   UNL     1       2.013   2.164  18.213  0.00  0.00    +0.000 C 
ATOM     15  C   UNL     1       3.463   2.209  18.679  0.00  0.00    +0.000 C 
ENDBRANCH   3  10
BRANCH   1  16
ATOM     16  C   UNL     1       5.294   6.556  18.565  0.00  0.00    +0.000 C 
BRANCH  16  17
ATOM     17  O   UNL     1       5.446   6.716  17.149  0.00  0.00    +0.000 OA
BRANCH  17  19
ATOM     18  O   UNL     1       7.736   6.779  17.069  0.00  0.00    +0.000 OA
ATOM     19  C   UNL     1       6.661   6.393  16.636  0.00  0.00    +0.000 C 
BRANCH  19  20
ATOM     20  C   UNL     1       6.557   5.537  15.420  0.00  0.00    +0.000 A 
ATOM     21  C   UNL     1       5.432   4.726  15.299  0.00  0.00    +0.000 A 
ATOM     22  N   UNL     1       5.252   3.865  14.259  0.00  0.00    +0.000 NA
ATOM     23  C   UNL     1       6.255   3.840  13.354  0.00  0.00    +0.000 A 
ATOM     24  C   UNL     1       7.386   4.631  13.480  0.00  0.00    +0.000 A 
ATOM     25  N   UNL     1       7.565   5.502  14.512  0.00  0.00    +0.000 NA
ENDBRANCH  19  20
ENDBRANCH  17  19
ENDBRANCH  16  17
ENDBRANCH   1  16
TORSDOF 6
ENDMDL
MODEL 6
REMARK VINA RESULT:      -6.8      0.920      1.362
REMARK  Name = 
REMARK  6 active torsions:
REMARK  status: ('A' for Active; 'I' for Inactive)
REMARK    1  A    between atoms: C_2  and  O_3
REMARK    2  A    between atoms: C_2  and  C_20
REMARK    3  A    between atoms: O_3  and  C_4
REMARK    4  A    between atoms: C_4  and  C_5
REMARK    5  A    between atoms: N_7  and  C_8
REMARK    6  A    between atoms: N_7  and  C_14
REMARK                            x       y       z     vdW  Elec       q    Type
REMARK                         _______ _______ _______ _____ _____    ______ ____
ROOT
ATOM      1  C   UNL     1       3.561   6.998  17.848  0.00  0.00    +0.000 C 
ATOM      2  O   UNL     1       4.016   8.089  17.482  0.00  0.00    +0.000 OA
ATOM      3  N   UNL     1       4.270   5.789  17.614  0.00  0.00    +0.000 N 
ENDROOT
BRANCH   3   4
ATOM      4  C   UNL     1       3.863   4.392  17.961  0.00  0.00    +0.000 C 
ATOM      5  C   UNL     1       4.017   4.048  19.442  0.00  0.00    +0.000 C 
ATOM      6  C   UNL     1       2.792   4.416  20.246  0.00  0.00    +0.000 C 
ATOM      7  C   UNL     1       1.563   3.674  19.754  0.00  0.00    +0.000 C 
ATOM      8  C   UNL     1       1.355   3.638  18.242  0.00  0.00    +0.000 C 
ATOM      9  C   UNL     1       2.599   3.758  17.351  0.00  0.00    +0.000 C 
ENDBRANCH   3   4
BRANCH   3  10
ATOM     10  C   UNL     1       5.591   5.978  16.901  0.00  0.00    +0.000 C 
ATOM     11  C   UNL     1       6.719   4.924  17.068  0.00  0.00    +0.000 C 
ATOM     12  C   UNL     1       6.631   3.664  16.200  0.00  0.00    +0.000 C 
ATOM     13  C   UNL     1       6.190   3.931  14.763  0.00  0.00    +0.000 C 
ATOM     14  C   UNL     1       5.078   4.968  14.625  0.00  0.00    +0.000 C 
ATOM     15  C   UNL     1       5.388   6.243  15.400  0.00  0.00    +0.000 C 
ENDBRANCH   3  10
BRANCH   1  16
ATOM     16  C   UNL     1       2.195   6.985  18.551  0.00  0.00    +0.000 C 
BRANCH  16  17
ATOM     17  O   UNL     1       2.011   7.859  19.672  0.00  0.00    +0.000 OA
BRANCH  17  19
ATOM     18  O   UNL     1       1.194   9.570  18.385  0.00  0.00    +0.000 OA
ATOM     19  C   UNL     1       1.271   8.975  19.448  0.00  0.00    +0.000 C 
BRANCH  19  20
ATOM     20  C   UNL     1       0.575   9.453  20.677  0.00  0.00    +0.000 A 
ATOM     21  C   UNL     1       0.571  10.823  20.922  0.00  0.00    +0.000 A 
ATOM     22  N   UNL     1       0.013  11.371  22.037  0.00  0.00    +0.000 NA
ATOM     23  C   UNL     1      -0.528  10.486  22.903  0.00  0.00    +0.000 A 
ATOM     24  C   UNL     1      -0.508   9.119  22.674  0.00  0.00    +0.000 A 
ATOM     25  N   UNL     1       0.039   8.567  21.555  0.00  0.00    +0.000 NA
ENDBRANCH  19  20
ENDBRANCH  17  19
ENDBRANCH  16  17
ENDBRANCH   1  16
TORSDOF 6
ENDMDL
MODEL 7
REMARK VINA RESULT:      -6.7      3.557      6.902
REMARK  Name = 
REMARK  6 active torsions:
REMARK  status: ('A' for Active; 'I' for Inactive)
REMARK    1  A    between atoms: C_2  and  O_3
REMARK    2  A    between atoms: C_2  and  C_20
REMARK    3  A    between atoms: O_3  and  C_4
REMARK    4  A    between atoms: C_4  and  C_5
REMARK    5  A    between atoms: N_7  and  C_8
REMARK    6  A    between atoms: N_7  and  C_14
REMARK                            x       y       z     vdW  Elec       q    Type
REMARK                         _______ _______ _______ _____ _____    ______ ____
ROOT
ATOM      1  C   UNL     1       5.003   4.843  19.250  0.00  0.00    +0.000 C 
ATOM      2  O   UNL     1       5.903   4.059  19.575  0.00  0.00    +0.000 OA
ATOM      3  N   UNL     1       3.640   4.441  19.256  0.00  0.00    +0.000 N 
ENDROOT
BRANCH   3   4
ATOM      4  C   UNL     1       2.435   5.239  18.872  0.00  0.00    +0.000 C 
ATOM      5  C   UNL     1       1.690   5.853  20.057  0.00  0.00    +0.000 C 
ATOM      6  C   UNL     1       2.244   7.204  20.445  0.00  0.00    +0.000 C 
ATOM      7  C   UNL     1       2.131   8.197  19.302  0.00  0.00    +0.000 C 
ATOM      8  C   UNL     1       2.561   7.695  17.925  0.00  0.00    +0.000 C 
ATOM      9  C   UNL     1       2.463   6.186  17.658  0.00  0.00    +0.000 C 
ENDBRANCH   3   4
BRANCH   3  10
ATOM     10  C   UNL     1       3.422   3.009  19.690  0.00  0.00    +0.000 C 
ATOM     11  C   UNL     1       2.723   2.707  21.044  0.00  0.00    +0.000 C 
ATOM     12  C   UNL     1       1.192   2.762  21.066  0.00  0.00    +0.000 C 
ATOM     13  C   UNL     1       0.532   2.144  19.836  0.00  0.00    +0.000 C 
ATOM     14  C   UNL     1       1.235   2.457  18.517  0.00  0.00    +0.000 C 
ATOM     15  C   UNL     1       2.733   2.184  18.590  0.00  0.00    +0.000 C 
ENDBRANCH   3  10
BRANCH   1  16
ATOM     16  C   UNL     1       5.402   6.264  18.822  0.00  0.00    +0.000 C 
BRANCH  16  17
ATOM     17  O   UNL     1       6.791   6.527  18.589  0.00  0.00    +0.000 OA
BRANCH  17  19
ATOM     18  O   UNL     1       7.758   7.864  16.998  0.00  0.00    +0.000 OA
ATOM     19  C   UNL     1       7.132   6.866  17.319  0.00  0.00    +0.000 C 
BRANCH  19  20
ATOM     20  C   UNL     1       6.609   5.900  16.311  0.00  0.00    +0.000 A 
ATOM     21  C   UNL     1       7.168   4.626  16.291  0.00  0.00    +0.000 A 
ATOM     22  N   UNL     1       6.807   3.677  15.383  0.00  0.00    +0.000 NA
ATOM     23  C   UNL     1       5.873   4.065  14.487  0.00  0.00    +0.000 A 
ATOM     24  C   UNL     1       5.328   5.339  14.490  0.00  0.00    +0.000 A 
ATOM     25  N   UNL     1       5.677   6.288  15.403  0.00  0.00    +0.000 NA
ENDBRANCH  19  20
ENDBRANCH  17  19
ENDBRANCH  16  17
ENDBRANCH   1  16
TORSDOF 6
ENDMDL
MODEL 8
REMARK VINA RESULT:      -6.7      1.422      1.724
REMARK  Name = 
REMARK  6 active torsions:
REMARK  status: ('A' for Active; 'I' for Inactive)
REMARK    1  A    between atoms: C_2  and  O_3
REMARK    2  A    between atoms: C_2  and  C_20
REMARK    3  A    between atoms: O_3  and  C_4
REMARK    4  A    between atoms: C_4  and  C_5
REMARK    5  A    between atoms: N_7  and  C_8
REMARK    6  A    between atoms: N_7  and  C_14
REMARK                            x       y       z     vdW  Elec       q    Type
REMARK                         _______ _______ _______ _____ _____    ______ ____
ROOT
ATOM      1  C   UNL     1       3.028   7.397  18.185  0.00  0.00    +0.000 C 
ATOM      2  O   UNL     1       3.312   8.530  17.776  0.00  0.00    +0.000 OA
ATOM      3  N   UNL     1       3.750   6.254  17.747  0.00  0.00    +0.000 N 
ENDROOT
BRANCH   3   4
ATOM      4  C   UNL     1       3.530   4.821  18.113  0.00  0.00    +0.000 C 
ATOM      5  C   UNL     1       3.970   4.466  19.533  0.00  0.00    +0.000 C 
ATOM      6  C   UNL     1       2.879   4.710  20.549  0.00  0.00    +0.000 C 
ATOM      7  C   UNL     1       1.650   3.869  20.255  0.00  0.00    +0.000 C 
ATOM      8  C   UNL     1       1.182   3.842  18.801  0.00  0.00    +0.000 C 
ATOM      9  C   UNL     1       2.236   4.088  17.712  0.00  0.00    +0.000 C 
ENDBRANCH   3   4
BRANCH   3  10
ATOM     10  C   UNL     1       4.860   6.565  16.769  0.00  0.00    +0.000 C 
ATOM     11  C   UNL     1       6.260   6.986  17.293  0.00  0.00    +0.000 C 
ATOM     12  C   UNL     1       7.204   5.865  17.739  0.00  0.00    +0.000 C 
ATOM     13  C   UNL     1       7.188   4.641  16.827  0.00  0.00    +0.000 C 
ATOM     14  C   UNL     1       5.801   4.245  16.327  0.00  0.00    +0.000 C 
ATOM     15  C   UNL     1       5.043   5.432  15.744  0.00  0.00    +0.000 C 
ENDBRANCH   3  10
BRANCH   1  16
ATOM     16  C   UNL     1       1.859   7.258  19.172  0.00  0.00    +0.000 C 
BRANCH  16  17
ATOM     17  O   UNL     1       1.883   8.065  20.356  0.00  0.00    +0.000 OA
BRANCH  17  19
ATOM     18  O   UNL     1      -0.124   8.114  21.462  0.00  0.00    +0.000 OA
ATOM     19  C   UNL     1       0.703   8.626  20.724  0.00  0.00    +0.000 C 
BRANCH  19  20
ATOM     20  C   UNL     1       0.477   9.952  20.079  0.00  0.00    +0.000 A 
ATOM     21  C   UNL     1       1.104  11.058  20.646  0.00  0.00    +0.000 A 
ATOM     22  N   UNL     1       0.932  12.325  20.176  0.00  0.00    +0.000 NA
ATOM     23  C   UNL     1       0.093  12.437  19.123  0.00  0.00    +0.000 A 
ATOM     24  C   UNL     1      -0.550  11.341  18.567  0.00  0.00    +0.000 A 
ATOM     25  N   UNL     1      -0.372  10.071  19.027  0.00  0.00    +0.000 NA
ENDBRANCH  19  20
ENDBRANCH  17  19
ENDBRANCH  16  17
ENDBRANCH   1  16
TORSDOF 6
ENDMDL
MODEL 9
REMARK VINA RESULT:      -6.6      1.115      1.713
REMARK  Name = 
REMARK  6 active torsions:
REMARK  status: ('A' for Active; 'I' for Inactive)
REMARK    1  A    between atoms: C_2  and  O_3
REMARK    2  A    between atoms: C_2  and  C_20
REMARK    3  A    between atoms: O_3  and  C_4
REMARK    4  A    between atoms: C_4  and  C_5
REMARK    5  A    between atoms: N_7  and  C_8
REMARK    6  A    between atoms: N_7  and  C_14
REMARK                            x       y       z     vdW  Elec       q    Type
REMARK                         _______ _______ _______ _____ _____    ______ ____
ROOT
ATOM      1  C   UNL     1       3.282   7.526  17.984  0.00  0.00    +0.000 C 
ATOM      2  O   UNL     1       3.622   8.640  17.568  0.00  0.00    +0.000 OA
ATOM      3  N   UNL     1       4.019   6.358  17.648  0.00  0.00    +0.000 N 
ENDROOT
BRANCH   3   4
ATOM      4  C   UNL     1       3.741   4.941  18.037  0.00  0.00    +0.000 C 
ATOM      5  C   UNL     1       4.050   4.624  19.500  0.00  0.00    +0.000 C 
ATOM      6  C   UNL     1       2.880   4.918  20.409  0.00  0.00    +0.000 C 
ATOM      7  C   UNL     1       1.666   4.089  20.034  0.00  0.00    +0.000 C 
ATOM      8  C   UNL     1       1.325   4.023  18.547  0.00  0.00    +0.000 C 
ATOM      9  C   UNL     1       2.474   4.217  17.547  0.00  0.00    +0.000 C 
ENDBRANCH   3   4
BRANCH   3  10
ATOM     10  C   UNL     1       5.218   6.621  16.765  0.00  0.00    +0.000 C 
ATOM     11  C   UNL     1       6.604   6.907  17.404  0.00  0.00    +0.000 C 
ATOM     12  C   UNL     1       7.426   5.697  17.861  0.00  0.00    +0.000 C 
ATOM     13  C   UNL     1       7.382   4.517  16.893  0.00  0.00    +0.000 C 
ATOM     14  C   UNL     1       6.009   4.254  16.280  0.00  0.00    +0.000 C 
ATOM     15  C   UNL     1       5.388   5.521  15.703  0.00  0.00    +0.000 C 
ENDBRANCH   3  10
BRANCH   1  16
ATOM     16  C   UNL     1       2.026   7.437  18.865  0.00  0.00    +0.000 C 
BRANCH  16  17
ATOM     17  O   UNL     1       1.223   8.615  19.006  0.00  0.00    +0.000 OA
BRANCH  17  19
ATOM     18  O   UNL     1       1.274   8.480  21.293  0.00  0.00    +0.000 OA
ATOM     19  C   UNL     1       1.103   9.113  20.264  0.00  0.00    +0.000 C 
BRANCH  19  20
ATOM     20  C   UNL     1       0.678  10.543  20.272  0.00  0.00    +0.000 A 
ATOM     21  C   UNL     1       0.222  11.085  19.074  0.00  0.00    +0.000 A 
ATOM     22  N   UNL     1      -0.144  12.391  18.948  0.00  0.00    +0.000 NA
ATOM     23  C   UNL     1      -0.018  13.133  20.070  0.00  0.00    +0.000 A 
ATOM     24  C   UNL     1       0.456  12.603  21.260  0.00  0.00    +0.000 A 
ATOM     25  N   UNL     1       0.812  11.295  21.394  0.00  0.00    +0.000 NA
ENDBRANCH  19  20
ENDBRANCH  17  19
ENDBRANCH  16  17
ENDBRANCH   1  16
TORSDOF 6
ENDMDL
