MODEL 1
REMARK VINA RESULT:      -7.3      0.000      0.000
REMARK  Name = 
REMARK  11 active torsions:
REMARK  status: ('A' for Active; 'I' for Inactive)
REMARK    1  A    between atoms: C_1  and  C_2
REMARK    2  A    between atoms: C_2  and  C_3
REMARK    3  A    between atoms: C_3  and  C_4
REMARK    4  A    between atoms: C_4  and  C_5
REMARK    5  A    between atoms: C_11  and  C_12
REMARK    6  A    between atoms: C_12  and  O_13
REMARK    7  A    between atoms: O_13  and  C_14
REMARK    8  A    between atoms: C_14  and  C_16
REMARK    9  A    between atoms: C_16  and  C_17
REMARK   10  A    between atoms: C_16  and  O_18
REMARK   11  A    between atoms: O_18  and  C_19
REMARK                            x       y       z     vdW  Elec       q    Type
REMARK                         _______ _______ _______ _____ _____    ______ ____
ROOT
ATOM      1  C   UNL     1       7.818   7.780  17.735  0.00  0.00    +0.000 A 
ATOM      2  N   UNL     1       6.949   7.723  16.777  0.00  0.00    +0.000 NA
ATOM      3  N   UNL     1       6.191   6.590  16.933  0.00  0.00    +0.000 N 
ATOM      4  C   UNL     1       5.220   6.267  16.006  0.00  0.00    +0.000 A 
ATOM      5  O   UNL     1       4.911   6.897  15.019  0.00  0.00    +0.000 OA
ATOM      6  C   UNL     1       4.528   5.000  16.321  0.00  0.00    +0.000 A 
ATOM      7  C   UNL     1       4.878   4.284  17.404  0.00  0.00    +0.000 A 
ATOM      8  N   UNL     1       5.880   4.664  18.283  0.00  0.00    +0.000 NA
ATOM      9  C   UNL     1       6.477   5.781  17.997  0.00  0.00    +0.000 A 
ATOM     10  S   UNL     1       7.786   6.480  18.909  0.00  0.00    +0.000 S 
ENDROOT
BRANCH   1  11
ATOM     11  C   UNL     1       8.827   8.889  17.832  0.00  0.00    +0.000 C 
BRANCH  11  12
ATOM     12  C   UNL     1       8.646   9.665  19.138  0.00  0.00    +0.000 C 
BRANCH  12  14
ATOM     13  C   UNL     1      10.117  11.388  18.057  0.00  0.00    +0.000 C 
ATOM     14  C   UNL     1       9.742  10.704  19.365  0.00  0.00    +0.000 C 
ENDBRANCH  12  14
ENDBRANCH  11  12
ENDBRANCH   1  11
BRANCH   7  15
ATOM     15  C   UNL     1       4.150   2.982  17.702  0.00  0.00    +0.000 C 
BRANCH  15  16
ATOM     16  O   UNL     1       3.390   3.078  18.920  0.00  0.00    +0.000 OA
BRANCH  16  17
ATOM     17  C   UNL     1       2.123   3.569  18.805  0.00  0.00    +0.000 C 
ATOM     18  O   UNL     1       1.361   3.292  17.880  0.00  0.00    +0.000 OA
BRANCH  17  19
ATOM     19  C   UNL     1       1.773   4.517  19.966  0.00  0.00    +0.000 C 
ATOM     20  C   UNL     1       1.755   3.683  21.260  0.00  0.00    +0.000 C 
BRANCH  19  21
ATOM     21  O   UNL     1       2.736   5.590  19.997  0.00  0.00    +0.000 OA
BRANCH  21  22
ATOM     22  C   UNL     1       2.368   6.838  19.562  0.00  0.00    +0.000 A 
ATOM     23  C   UNL     1       1.677   7.647  20.474  0.00  0.00    +0.000 A 
ATOM     24  C   UNL     1       1.146   8.885  20.076  0.00  0.00    +0.000 A 
ATOM     25  C   UNL     1       1.384   9.372  18.793  0.00  0.00    +0.000 A 
ATOM     26  C   UNL     1       2.106   8.599  17.894  0.00  0.00    +0.000 A 
ATOM     27  C   UNL     1       2.559   7.330  18.269  0.00  0.00    +0.000 A 
ENDBRANCH  21  22
ENDBRANCH  19  21
ENDBRANCH  17  19
ENDBRANCH  16  17
ENDBRANCH  15  16
ENDBRANCH   7  15
TORSDOF 9
ENDMDL
MODEL 2
REMARK VINA RESULT:      -7.0      3.499      6.626
REMARK  Name = 
REMARK  11 active torsions:
REMARK  status: ('A' for Active; 'I' for Inactive)
REMARK    1  A    between atoms: C_1  and  C_2
REMARK    2  A    between atoms: C_2  and  C_3
REMARK    3  A    between atoms: C_3  and  C_4
REMARK    4  A    between atoms: C_4  and  C_5
REMARK    5  A    between atoms: C_11  and  C_12
REMARK    6  A    between atoms: C_12  and  O_13
REMARK    7  A    between atoms: O_13  and  C_14
REMARK    8  A    between atoms: C_14  and  C_16
REMARK    9  A    between atoms: C_16  and  C_17
REMARK   10  A    between atoms: C_16  and  O_18
REMARK   11  A    between atoms: O_18  and  C_19
REMARK                            x       y       z     vdW  Elec       q    Type
REMARK                         _______ _______ _______ _____ _____    ______ ____
ROOT
ATOM      1  C   UNL     1       0.328  10.880  20.470  0.00  0.00    +0.000 A 
ATOM      2  N   UNL     1       0.831  10.590  19.313  0.00  0.00    +0.000 NA
ATOM      3  N   UNL     1       1.347   9.320  19.358  0.00  0.00    +0.000 N 
ATOM      4  C   UNL     1       1.991   8.789  18.259  0.00  0.00    +0.000 A 
ATOM      5  O   UNL     1       2.159   9.317  17.182  0.00  0.00    +0.000 OA
ATOM      6  C   UNL     1       2.508   7.426  18.502  0.00  0.00    +0.000 A 
ATOM      7  C   UNL     1       2.343   6.840  19.701  0.00  0.00    +0.000 A 
ATOM      8  N   UNL     1       1.699   7.445  20.768  0.00  0.00    +0.000 NA
ATOM      9  C   UNL     1       1.248   8.641  20.540  0.00  0.00    +0.000 A 
ATOM     10  S   UNL     1       0.425   9.641  21.705  0.00  0.00    +0.000 S 
ENDROOT
BRANCH   1  11
ATOM     11  C   UNL     1      -0.289  12.219  20.760  0.00  0.00    +0.000 C 
BRANCH  11  12
ATOM     12  C   UNL     1      -1.816  12.123  20.727  0.00  0.00    +0.000 C 
BRANCH  12  14
ATOM     13  C   UNL     1      -2.297  11.880  23.178  0.00  0.00    +0.000 C 
ATOM     14  C   UNL     1      -2.475  12.760  21.948  0.00  0.00    +0.000 C 
ENDBRANCH  12  14
ENDBRANCH  11  12
ENDBRANCH   1  11
BRANCH   7  15
ATOM     15  C   UNL     1       2.887   5.436  19.923  0.00  0.00    +0.000 C 
BRANCH  15  16
ATOM     16  O   UNL     1       1.957   4.439  19.464  0.00  0.00    +0.000 OA
BRANCH  16  17
ATOM     17  C   UNL     1       2.166   3.950  18.209  0.00  0.00    +0.000 C 
ATOM     18  O   UNL     1       1.343   4.021  17.298  0.00  0.00    +0.000 OA
BRANCH  17  19
ATOM     19  C   UNL     1       3.551   3.290  18.080  0.00  0.00    +0.000 C 
ATOM     20  C   UNL     1       3.335   1.769  17.975  0.00  0.00    +0.000 C 
BRANCH  19  21
ATOM     21  O   UNL     1       4.227   3.846  16.935  0.00  0.00    +0.000 OA
BRANCH  21  22
ATOM     22  C   UNL     1       5.222   4.771  17.124  0.00  0.00    +0.000 A 
ATOM     23  C   UNL     1       6.285   4.396  17.955  0.00  0.00    +0.000 A 
ATOM     24  C   UNL     1       7.280   5.322  18.311  0.00  0.00    +0.000 A 
ATOM     25  C   UNL     1       7.277   6.601  17.763  0.00  0.00    +0.000 A 
ATOM     26  C   UNL     1       6.252   6.972  16.902  0.00  0.00    +0.000 A 
ATOM     27  C   UNL     1       5.219   6.074  16.618  0.00  0.00    +0.000 A 
ENDBRANCH  21  22
ENDBRANCH  19  21
ENDBRANCH  17  19
ENDBRANCH  16  17
ENDBRANCH  15  16
ENDBRANCH   7  15
TORSDOF 9
ENDMDL
MODEL 3
REMARK VINA RESULT:      -7.0      3.587      6.645
REMARK  Name = 
REMARK  11 active torsions:
REMARK  status: ('A' for Active; 'I' for Inactive)
REMARK    1  A    between atoms: C_1  and  C_2
REMARK    2  A    between atoms: C_2  and  C_3
REMARK    3  A    between atoms: C_3  and  C_4
REMARK    4  A    between atoms: C_4  and  C_5
REMARK    5  A    between atoms: C_11  and  C_12
REMARK    6  A    between atoms: C_12  and  O_13
REMARK    7  A    between atoms: O_13  and  C_14
REMARK    8  A    between atoms: C_14  and  C_16
REMARK    9  A    between atoms: C_16  and  C_17
REMARK   10  A    between atoms: C_16  and  O_18
REMARK   11  A    between atoms: O_18  and  C_19
REMARK                            x       y       z     vdW  Elec       q    Type
REMARK                         _______ _______ _______ _____ _____    ______ ____
ROOT
ATOM      1  C   UNL     1       0.148  10.908  20.436  0.00  0.00    +0.000 A 
ATOM      2  N   UNL     1       0.741  10.594  19.329  0.00  0.00    +0.000 NA
ATOM      3  N   UNL     1       1.224   9.314  19.430  0.00  0.00    +0.000 N 
ATOM      4  C   UNL     1       1.947   8.757  18.395  0.00  0.00    +0.000 A 
ATOM      5  O   UNL     1       2.217   9.268  17.331  0.00  0.00    +0.000 OA
ATOM      6  C   UNL     1       2.411   7.386  18.695  0.00  0.00    +0.000 A 
ATOM      7  C   UNL     1       2.134   6.818  19.882  0.00  0.00    +0.000 A 
ATOM      8  N   UNL     1       1.415   7.449  20.884  0.00  0.00    +0.000 NA
ATOM      9  C   UNL     1       1.010   8.651  20.607  0.00  0.00    +0.000 A 
ATOM     10  S   UNL     1       0.114   9.682  21.687  0.00  0.00    +0.000 S 
ENDROOT
BRANCH   1  11
ATOM     11  C   UNL     1      -0.462  12.262  20.659  0.00  0.00    +0.000 C 
BRANCH  11  12
ATOM     12  C   UNL     1      -0.550  12.570  22.156  0.00  0.00    +0.000 C 
BRANCH  12  14
ATOM     13  C   UNL     1      -2.634  11.809  23.330  0.00  0.00    +0.000 C 
ATOM     14  C   UNL     1      -1.959  12.960  22.597  0.00  0.00    +0.000 C 
ENDBRANCH  12  14
ENDBRANCH  11  12
ENDBRANCH   1  11
BRANCH   7  15
ATOM     15  C   UNL     1       2.626   5.406  20.164  0.00  0.00    +0.000 C 
BRANCH  15  16
ATOM     16  O   UNL     1       1.730   4.423  19.615  0.00  0.00    +0.000 OA
BRANCH  16  17
ATOM     17  C   UNL     1       1.996   4.005  18.345  0.00  0.00    +0.000 C 
ATOM     18  O   UNL     1       1.178   4.036  17.427  0.00  0.00    +0.000 OA
BRANCH  17  19
ATOM     19  C   UNL     1       3.437   3.481  18.210  0.00  0.00    +0.000 C 
ATOM     20  C   UNL     1       3.359   1.977  17.893  0.00  0.00    +0.000 C 
BRANCH  19  21
ATOM     21  O   UNL     1       4.113   4.240  17.187  0.00  0.00    +0.000 OA
BRANCH  21  22
ATOM     22  C   UNL     1       5.163   5.052  17.535  0.00  0.00    +0.000 A 
ATOM     23  C   UNL     1       5.420   6.147  16.699  0.00  0.00    +0.000 A 
ATOM     24  C   UNL     1       6.551   6.955  16.901  0.00  0.00    +0.000 A 
ATOM     25  C   UNL     1       7.382   6.738  17.997  0.00  0.00    +0.000 A 
ATOM     26  C   UNL     1       7.112   5.683  18.859  0.00  0.00    +0.000 A 
ATOM     27  C   UNL     1       6.034   4.831  18.605  0.00  0.00    +0.000 A 
ENDBRANCH  21  22
ENDBRANCH  19  21
ENDBRANCH  17  19
ENDBRANCH  16  17
ENDBRANCH  15  16
ENDBRANCH   7  15
TORSDOF 9
ENDMDL
MODEL 4
REMARK VINA RESULT:      -6.8      3.980      7.410
REMARK  Name = 
REMARK  11 active torsions:
REMARK  status: ('A' for Active; 'I' for Inactive)
REMARK    1  A    between atoms: C_1  and  C_2
REMARK    2  A    between atoms: C_2  and  C_3
REMARK    3  A    between atoms: C_3  and  C_4
REMARK    4  A    between atoms: C_4  and  C_5
REMARK    5  A    between atoms: C_11  and  C_12
REMARK    6  A    between atoms: C_12  and  O_13
REMARK    7  A    between atoms: O_13  and  C_14
REMARK    8  A    between atoms: C_14  and  C_16
REMARK    9  A    between atoms: C_16  and  C_17
REMARK   10  A    between atoms: C_16  and  O_18
REMARK   11  A    between atoms: O_18  and  C_19
REMARK                            x       y       z     vdW  Elec       q    Type
REMARK                         _______ _______ _______ _____ _____    ______ ____
ROOT
ATOM      1  C   UNL     1      -0.278  10.060  22.005  0.00  0.00    +0.000 A 
ATOM      2  N   UNL     1      -0.576  10.456  20.809  0.00  0.00    +0.000 NA
ATOM      3  N   UNL     1       0.260   9.838  19.915  0.00  0.00    +0.000 N 
ATOM      4  C   UNL     1       0.183  10.131  18.568  0.00  0.00    +0.000 A 
ATOM      5  O   UNL     1      -0.585  10.897  18.028  0.00  0.00    +0.000 OA
ATOM      6  C   UNL     1       1.179   9.394  17.764  0.00  0.00    +0.000 A 
ATOM      7  C   UNL     1       2.049   8.557  18.357  0.00  0.00    +0.000 A 
ATOM      8  N   UNL     1       2.079   8.326  19.723  0.00  0.00    +0.000 NA
ATOM      9  C   UNL     1       1.196   8.977  20.418  0.00  0.00    +0.000 A 
ATOM     10  S   UNL     1       1.026   8.900  22.149  0.00  0.00    +0.000 S 
ENDROOT
BRANCH   1  11
ATOM     11  C   UNL     1      -0.993  10.581  23.219  0.00  0.00    +0.000 C 
BRANCH  11  12
ATOM     12  C   UNL     1      -1.479  12.013  22.981  0.00  0.00    +0.000 C 
BRANCH  12  14
ATOM     13  C   UNL     1      -3.740  12.711  22.143  0.00  0.00    +0.000 C 
ATOM     14  C   UNL     1      -2.949  12.205  23.343  0.00  0.00    +0.000 C 
ENDBRANCH  12  14
ENDBRANCH  11  12
ENDBRANCH   1  11
BRANCH   7  15
ATOM     15  C   UNL     1       3.066   7.813  17.504  0.00  0.00    +0.000 C 
BRANCH  15  16
ATOM     16  O   UNL     1       3.124   6.420  17.862  0.00  0.00    +0.000 OA
BRANCH  16  17
ATOM     17  C   UNL     1       4.306   5.784  17.622  0.00  0.00    +0.000 C 
ATOM     18  O   UNL     1       5.410   6.287  17.824  0.00  0.00    +0.000 OA
BRANCH  17  19
ATOM     19  C   UNL     1       4.085   4.368  17.060  0.00  0.00    +0.000 C 
ATOM     20  C   UNL     1       5.105   4.151  15.929  0.00  0.00    +0.000 C 
BRANCH  19  21
ATOM     21  O   UNL     1       4.219   3.415  18.134  0.00  0.00    +0.000 OA
BRANCH  21  22
ATOM     22  C   UNL     1       3.180   3.238  19.012  0.00  0.00    +0.000 A 
ATOM     23  C   UNL     1       1.975   2.762  18.478  0.00  0.00    +0.000 A 
ATOM     24  C   UNL     1       0.821   2.676  19.275  0.00  0.00    +0.000 A 
ATOM     25  C   UNL     1       0.883   2.972  20.634  0.00  0.00    +0.000 A 
ATOM     26  C   UNL     1       2.082   3.403  21.184  0.00  0.00    +0.000 A 
ATOM     27  C   UNL     1       3.207   3.567  20.369  0.00  0.00    +0.000 A 
ENDBRANCH  21  22
ENDBRANCH  19  21
ENDBRANCH  17  19
ENDBRANCH  16  17
ENDBRANCH  15  16
ENDBRANCH   7  15
TORSDOF 9
ENDMDL
MODEL 5
REMARK VINA RESULT:      -6.6      3.771      7.122
REMARK  Name = 
REMARK  11 active torsions:
REMARK  status: ('A' for Active; 'I' for Inactive)
REMARK    1  A    between atoms: C_1  and  C_2
REMARK    2  A    between atoms: C_2  and  C_3
REMARK    3  A    between atoms: C_3  and  C_4
REMARK    4  A    between atoms: C_4  and  C_5
REMARK    5  A    between atoms: C_11  and  C_12
REMARK    6  A    between atoms: C_12  and  O_13
REMARK    7  A    between atoms: O_13  and  C_14
REMARK    8  A    between atoms: C_14  and  C_16
REMARK    9  A    between atoms: C_16  and  C_17
REMARK   10  A    between atoms: C_16  and  O_18
REMARK   11  A    between atoms: O_18  and  C_19
REMARK                            x       y       z     vdW  Elec       q    Type
REMARK                         _______ _______ _______ _____ _____    ______ ____
ROOT
ATOM      1  C   UNL     1      -0.509  10.577  19.366  0.00  0.00    +0.000 A 
ATOM      2  N   UNL     1      -0.126   9.732  20.269  0.00  0.00    +0.000 NA
ATOM      3  N   UNL     1       0.873   8.948  19.749  0.00  0.00    +0.000 N 
ATOM      4  C   UNL     1       1.421   7.927  20.498  0.00  0.00    +0.000 A 
ATOM      5  O   UNL     1       1.137   7.618  21.634  0.00  0.00    +0.000 OA
ATOM      6  C   UNL     1       2.459   7.173  19.765  0.00  0.00    +0.000 A 
ATOM      7  C   UNL     1       2.767   7.497  18.496  0.00  0.00    +0.000 A 
ATOM      8  N   UNL     1       2.158   8.528  17.799  0.00  0.00    +0.000 NA
ATOM      9  C   UNL     1       1.250   9.184  18.456  0.00  0.00    +0.000 A 
ATOM     10  S   UNL     1       0.310  10.505  17.820  0.00  0.00    +0.000 S 
ENDROOT
BRANCH   1  11
ATOM     11  C   UNL     1      -1.619  11.559  19.613  0.00  0.00    +0.000 C 
BRANCH  11  12
ATOM     12  C   UNL     1      -2.495  11.701  18.366  0.00  0.00    +0.000 C 
BRANCH  12  14
ATOM     13  C   UNL     1      -3.340  10.259  16.493  0.00  0.00    +0.000 C 
ATOM     14  C   UNL     1      -3.221  10.408  18.004  0.00  0.00    +0.000 C 
ENDBRANCH  12  14
ENDBRANCH  11  12
ENDBRANCH   1  11
BRANCH   7  15
ATOM     15  C   UNL     1       3.838   6.701  17.765  0.00  0.00    +0.000 C 
BRANCH  15  16
ATOM     16  O   UNL     1       4.682   5.993  18.690  0.00  0.00    +0.000 OA
BRANCH  16  17
ATOM     17  C   UNL     1       5.282   4.863  18.217  0.00  0.00    +0.000 C 
ATOM     18  O   UNL     1       6.397   4.479  18.568  0.00  0.00    +0.000 OA
BRANCH  17  19
ATOM     19  C   UNL     1       4.398   4.140  17.185  0.00  0.00    +0.000 C 
ATOM     20  C   UNL     1       5.281   3.798  15.972  0.00  0.00    +0.000 C 
BRANCH  19  21
ATOM     21  O   UNL     1       3.814   2.977  17.806  0.00  0.00    +0.000 OA
BRANCH  21  22
ATOM     22  C   UNL     1       2.992   3.135  18.892  0.00  0.00    +0.000 A 
ATOM     23  C   UNL     1       3.440   2.602  20.108  0.00  0.00    +0.000 A 
ATOM     24  C   UNL     1       2.610   2.600  21.241  0.00  0.00    +0.000 A 
ATOM     25  C   UNL     1       1.362   3.218  21.198  0.00  0.00    +0.000 A 
ATOM     26  C   UNL     1       0.925   3.789  20.011  0.00  0.00    +0.000 A 
ATOM     27  C   UNL     1       1.720   3.714  18.864  0.00  0.00    +0.000 A 
ENDBRANCH  21  22
ENDBRANCH  19  21
ENDBRANCH  17  19
ENDBRANCH  16  17
ENDBRANCH  15  16
ENDBRANCH   7  15
TORSDOF 9
ENDMDL
MODEL 6
REMARK VINA RESULT:      -6.5      1.286      1.545
REMARK  Name = 
REMARK  11 active torsions:
REMARK  status: ('A' for Active; 'I' for Inactive)
REMARK    1  A    between atoms: C_1  and  C_2
REMARK    2  A    between atoms: C_2  and  C_3
REMARK    3  A    between atoms: C_3  and  C_4
REMARK    4  A    between atoms: C_4  and  C_5
REMARK    5  A    between atoms: C_11  and  C_12
REMARK    6  A    between atoms: C_12  and  O_13
REMARK    7  A    between atoms: O_13  and  C_14
REMARK    8  A    between atoms: C_14  and  C_16
REMARK    9  A    between atoms: C_16  and  C_17
REMARK   10  A    between atoms: C_16  and  O_18
REMARK   11  A    between atoms: O_18  and  C_19
REMARK                            x       y       z     vdW  Elec       q    Type
REMARK                         _______ _______ _______ _____ _____    ______ ____
ROOT
ATOM      1  C   UNL     1       7.289   6.946  17.575  0.00  0.00    +0.000 A 
ATOM      2  N   UNL     1       6.630   6.519  16.545  0.00  0.00    +0.000 NA
ATOM      3  N   UNL     1       5.930   5.395  16.900  0.00  0.00    +0.000 N 
ATOM      4  C   UNL     1       5.183   4.712  15.961  0.00  0.00    +0.000 A 
ATOM      5  O   UNL     1       5.035   4.998  14.794  0.00  0.00    +0.000 OA
ATOM      6  C   UNL     1       4.525   3.511  16.517  0.00  0.00    +0.000 A 
ATOM      7  C   UNL     1       4.700   3.175  17.808  0.00  0.00    +0.000 A 
ATOM      8  N   UNL     1       5.483   3.902  18.690  0.00  0.00    +0.000 NA
ATOM      9  C   UNL     1       6.053   4.956  18.189  0.00  0.00    +0.000 A 
ATOM     10  S   UNL     1       7.109   6.034  19.059  0.00  0.00    +0.000 S 
ENDROOT
BRANCH   1  11
ATOM     11  C   UNL     1       8.186   8.149  17.506  0.00  0.00    +0.000 C 
BRANCH  11  12
ATOM     12  C   UNL     1       8.526   8.645  18.914  0.00  0.00    +0.000 C 
BRANCH  12  14
ATOM     13  C   UNL     1       8.647  10.981  18.004  0.00  0.00    +0.000 C 
ATOM     14  C   UNL     1       9.316   9.951  18.905  0.00  0.00    +0.000 C 
ENDBRANCH  12  14
ENDBRANCH  11  12
ENDBRANCH   1  11
BRANCH   7  15
ATOM     15  C   UNL     1       4.011   1.932  18.352  0.00  0.00    +0.000 C 
BRANCH  15  16
ATOM     16  O   UNL     1       3.310   2.220  19.575  0.00  0.00    +0.000 OA
BRANCH  16  17
ATOM     17  C   UNL     1       1.948   2.239  19.501  0.00  0.00    +0.000 C 
ATOM     18  O   UNL     1       1.306   1.772  18.562  0.00  0.00    +0.000 OA
BRANCH  17  19
ATOM     19  C   UNL     1       1.322   2.926  20.728  0.00  0.00    +0.000 C 
ATOM     20  C   UNL     1       2.455   3.221  21.726  0.00  0.00    +0.000 C 
BRANCH  19  21
ATOM     21  O   UNL     1       0.627   4.112  20.293  0.00  0.00    +0.000 OA
BRANCH  21  22
ATOM     22  C   UNL     1       1.345   5.167  19.789  0.00  0.00    +0.000 A 
ATOM     23  C   UNL     1       1.482   6.290  20.615  0.00  0.00    +0.000 A 
ATOM     24  C   UNL     1       2.086   7.465  20.135  0.00  0.00    +0.000 A 
ATOM     25  C   UNL     1       2.646   7.496  18.861  0.00  0.00    +0.000 A 
ATOM     26  C   UNL     1       2.556   6.374  18.049  0.00  0.00    +0.000 A 
ATOM     27  C   UNL     1       1.879   5.236  18.500  0.00  0.00    +0.000 A 
ENDBRANCH  21  22
ENDBRANCH  19  21
ENDBRANCH  17  19
ENDBRANCH  16  17
ENDBRANCH  15  16
ENDBRANCH   7  15
TORSDOF 9
ENDMDL
MODEL 7
REMARK VINA RESULT:      -6.5      3.642      7.225
REMARK  Name = 
REMARK  11 active torsions:
REMARK  status: ('A' for Active; 'I' for Inactive)
REMARK    1  A    between atoms: C_1  and  C_2
REMARK    2  A    between atoms: C_2  and  C_3
REMARK    3  A    between atoms: C_3  and  C_4
REMARK    4  A    between atoms: C_4  and  C_5
REMARK    5  A    between atoms: C_11  and  C_12
REMARK    6  A    between atoms: C_12  and  O_13
REMARK    7  A    between atoms: O_13  and  C_14
REMARK    8  A    between atoms: C_14  and  C_16
REMARK    9  A    between atoms: C_16  and  C_17
REMARK   10  A    between atoms: C_16  and  O_18
REMARK   11  A    between atoms: O_18  and  C_19
REMARK                            x       y       z     vdW  Elec       q    Type
REMARK                         _______ _______ _______ _____ _____    ______ ____
ROOT
ATOM      1  C   UNL     1       0.594   9.434  21.143  0.00  0.00    +0.000 A 
ATOM      2  N   UNL     1       0.951   9.858  19.973  0.00  0.00    +0.000 NA
ATOM      3  N   UNL     1       1.640   8.861  19.330  0.00  0.00    +0.000 N 
ATOM      4  C   UNL     1       2.178   9.080  18.077  0.00  0.00    +0.000 A 
ATOM      5  O   UNL     1       2.105  10.092  17.415  0.00  0.00    +0.000 OA
ATOM      6  C   UNL     1       2.909   7.907  17.556  0.00  0.00    +0.000 A 
ATOM      7  C   UNL     1       3.012   6.786  18.293  0.00  0.00    +0.000 A 
ATOM      8  N   UNL     1       2.459   6.646  19.556  0.00  0.00    +0.000 NA
ATOM      9  C   UNL     1       1.816   7.683  20.000  0.00  0.00    +0.000 A 
ATOM     10  S   UNL     1       1.048   7.794  21.559  0.00  0.00    +0.000 S 
ENDROOT
BRANCH   1  11
ATOM     11  C   UNL     1      -0.152  10.304  22.114  0.00  0.00    +0.000 C 
BRANCH  11  12
ATOM     12  C   UNL     1      -0.338  11.710  21.539  0.00  0.00    +0.000 C 
BRANCH  12  14
ATOM     13  C   UNL     1      -2.261  11.910  23.140  0.00  0.00    +0.000 C 
ATOM     14  C   UNL     1      -1.095  12.639  22.484  0.00  0.00    +0.000 C 
ENDBRANCH  12  14
ENDBRANCH  11  12
ENDBRANCH   1  11
BRANCH   7  15
ATOM     15  C   UNL     1       3.773   5.594  17.732  0.00  0.00    +0.000 C 
BRANCH  15  16
ATOM     16  O   UNL     1       4.628   5.007  18.729  0.00  0.00    +0.000 OA
BRANCH  16  17
ATOM     17  C   UNL     1       5.927   5.423  18.732  0.00  0.00    +0.000 C 
ATOM     18  O   UNL     1       6.641   5.437  19.733  0.00  0.00    +0.000 OA
BRANCH  17  19
ATOM     19  C   UNL     1       6.379   5.882  17.334  0.00  0.00    +0.000 C 
ATOM     20  C   UNL     1       7.326   7.081  17.521  0.00  0.00    +0.000 C 
BRANCH  19  21
ATOM     21  O   UNL     1       7.000   4.770  16.657  0.00  0.00    +0.000 OA
BRANCH  21  22
ATOM     22  C   UNL     1       6.880   4.659  15.296  0.00  0.00    +0.000 A 
ATOM     23  C   UNL     1       5.832   3.863  14.815  0.00  0.00    +0.000 A 
ATOM     24  C   UNL     1       5.712   3.584  13.444  0.00  0.00    +0.000 A 
ATOM     25  C   UNL     1       6.577   4.178  12.528  0.00  0.00    +0.000 A 
ATOM     26  C   UNL     1       7.593   5.005  12.988  0.00  0.00    +0.000 A 
ATOM     27  C   UNL     1       7.760   5.210  14.361  0.00  0.00    +0.000 A 
ENDBRANCH  21  22
ENDBRANCH  19  21
ENDBRANCH  17  19
ENDBRANCH  16  17
ENDBRANCH  15  16
ENDBRANCH   7  15
TORSDOF 9
ENDMDL
MODEL 8
REMARK VINA RESULT:      -6.5      3.943      6.534
REMARK  Name = 
REMARK  11 active torsions:
REMARK  status: ('A' for Active; 'I' for Inactive)
REMARK    1  A    between atoms: C_1  and  C_2
REMARK    2  A    between atoms: C_2  and  C_3
REMARK    3  A    between atoms: C_3  and  C_4
REMARK    4  A    between atoms: C_4  and  C_5
REMARK    5  A    between atoms: C_11  and  C_12
REMARK    6  A    between atoms: C_12  and  O_13
REMARK    7  A    between atoms: O_13  and  C_14
REMARK    8  A    between atoms: C_14  and  C_16
REMARK    9  A    between atoms: C_16  and  C_17
REMARK   10  A    between atoms: C_16  and  O_18
REMARK   11  A    between atoms: O_18  and  C_19
REMARK                            x       y       z     vdW  Elec       q    Type
REMARK                         _______ _______ _______ _____ _____    ______ ____
ROOT
ATOM      1  C   UNL     1       3.412   4.994  18.240  0.00  0.00    +0.000 A 
ATOM      2  N   UNL     1       3.208   6.173  17.744  0.00  0.00    +0.000 NA
ATOM      3  N   UNL     1       2.581   6.948  18.685  0.00  0.00    +0.000 N 
ATOM      4  C   UNL     1       2.202   8.241  18.385  0.00  0.00    +0.000 A 
ATOM      5  O   UNL     1       2.376   8.832  17.342  0.00  0.00    +0.000 OA
ATOM      6  C   UNL     1       1.513   8.911  19.508  0.00  0.00    +0.000 A 
ATOM      7  C   UNL     1       1.299   8.256  20.662  0.00  0.00    +0.000 A 
ATOM      8  N   UNL     1       1.692   6.946  20.885  0.00  0.00    +0.000 NA
ATOM      9  C   UNL     1       2.299   6.371  19.892  0.00  0.00    +0.000 A 
ATOM     10  S   UNL     1       2.876   4.727  19.885  0.00  0.00    +0.000 S 
ENDROOT
BRANCH   1  11
ATOM     11  C   UNL     1       4.055   3.894  17.444  0.00  0.00    +0.000 C 
BRANCH  11  12
ATOM     12  C   UNL     1       4.772   4.468  16.220  0.00  0.00    +0.000 C 
BRANCH  12  14
ATOM     13  C   UNL     1       6.926   5.710  16.565  0.00  0.00    +0.000 C 
ATOM     14  C   UNL     1       6.292   4.348  16.316  0.00  0.00    +0.000 C 
ENDBRANCH  12  14
ENDBRANCH  11  12
ENDBRANCH   1  11
BRANCH   7  15
ATOM     15  C   UNL     1       0.585   8.970  21.801  0.00  0.00    +0.000 C 
BRANCH  15  16
ATOM     16  O   UNL     1       0.793  10.393  21.734  0.00  0.00    +0.000 OA
BRANCH  16  17
ATOM     17  C   UNL     1      -0.279  11.175  22.048  0.00  0.00    +0.000 C 
ATOM     18  O   UNL     1      -1.019  10.973  23.010  0.00  0.00    +0.000 OA
BRANCH  17  19
ATOM     19  C   UNL     1      -0.452  12.330  21.045  0.00  0.00    +0.000 C 
ATOM     20  C   UNL     1       0.595  13.405  21.387  0.00  0.00    +0.000 C 
BRANCH  19  21
ATOM     21  O   UNL     1      -0.313  11.810  19.708  0.00  0.00    +0.000 OA
BRANCH  21  22
ATOM     22  C   UNL     1      -1.430  11.405  19.023  0.00  0.00    +0.000 A 
ATOM     23  C   UNL     1      -2.613  12.115  19.266  0.00  0.00    +0.000 A 
ATOM     24  C   UNL     1      -3.833  11.690  18.713  0.00  0.00    +0.000 A 
ATOM     25  C   UNL     1      -3.866  10.611  17.833  0.00  0.00    +0.000 A 
ATOM     26  C   UNL     1      -2.692   9.926  17.550  0.00  0.00    +0.000 A 
ATOM     27  C   UNL     1      -1.496  10.301  18.169  0.00  0.00    +0.000 A 
ENDBRANCH  21  22
ENDBRANCH  19  21
ENDBRANCH  17  19
ENDBRANCH  16  17
ENDBRANCH  15  16
ENDBRANCH   7  15
TORSDOF 9
ENDMDL
MODEL 9
REMARK VINA RESULT:      -6.4      3.492      5.813
REMARK  Name = 
REMARK  11 active torsions:
REMARK  status: ('A' for Active; 'I' for Inactive)
REMARK    1  A    between atoms: C_1  and  C_2
REMARK    2  A    between atoms: C_2  and  C_3
REMARK    3  A    between atoms: C_3  and  C_4
REMARK    4  A    between atoms: C_4  and  C_5
REMARK    5  A    between atoms: C_11  and  C_12
REMARK    6  A    between atoms: C_12  and  O_13
REMARK    7  A    between atoms: O_13  and  C_14
REMARK    8  A    between atoms: C_14  and  C_16
REMARK    9  A    between atoms: C_16  and  C_17
REMARK   10  A    between atoms: C_16  and  O_18
REMARK   11  A    between atoms: O_18  and  C_19
REMARK                            x       y       z     vdW  Elec       q    Type
REMARK                         _______ _______ _______ _____ _____    ______ ____
ROOT
ATOM      1  C   UNL     1       5.006   4.635  16.564  0.00  0.00    +0.000 A 
ATOM      2  N   UNL     1       4.282   4.087  17.487  0.00  0.00    +0.000 NA
ATOM      3  N   UNL     1       3.579   5.066  18.141  0.00  0.00    +0.000 N 
ATOM      4  C   UNL     1       2.767   4.747  19.210  0.00  0.00    +0.000 A 
ATOM      5  O   UNL     1       2.560   3.646  19.670  0.00  0.00    +0.000 OA
ATOM      6  C   UNL     1       2.115   5.932  19.807  0.00  0.00    +0.000 A 
ATOM      7  C   UNL     1       2.354   7.160  19.315  0.00  0.00    +0.000 A 
ATOM      8  N   UNL     1       3.201   7.406  18.246  0.00  0.00    +0.000 NA
ATOM      9  C   UNL     1       3.764   6.357  17.729  0.00  0.00    +0.000 A 
ATOM     10  S   UNL     1       4.890   6.375  16.400  0.00  0.00    +0.000 S 
ENDROOT
BRANCH   1  11
ATOM     11  C   UNL     1       5.923   3.831  15.687  0.00  0.00    +0.000 C 
BRANCH  11  12
ATOM     12  C   UNL     1       6.986   4.734  15.055  0.00  0.00    +0.000 C 
BRANCH  12  14
ATOM     13  C   UNL     1       5.999   3.631  13.028  0.00  0.00    +0.000 C 
ATOM     14  C   UNL     1       6.951   4.709  13.529  0.00  0.00    +0.000 C 
ENDBRANCH  12  14
ENDBRANCH  11  12
ENDBRANCH   1  11
BRANCH   7  15
ATOM     15  C   UNL     1       1.671   8.362  19.951  0.00  0.00    +0.000 C 
BRANCH  15  16
ATOM     16  O   UNL     1       1.319   8.096  21.320  0.00  0.00    +0.000 OA
BRANCH  16  17
ATOM     17  C   UNL     1       1.365   9.159  22.174  0.00  0.00    +0.000 C 
ATOM     18  O   UNL     1       2.254   9.334  23.005  0.00  0.00    +0.000 OA
BRANCH  17  19
ATOM     19  C   UNL     1       0.163  10.099  21.973  0.00  0.00    +0.000 C 
ATOM     20  C   UNL     1      -0.747   9.963  23.207  0.00  0.00    +0.000 C 
BRANCH  19  21
ATOM     21  O   UNL     1       0.651  11.442  21.775  0.00  0.00    +0.000 OA
BRANCH  21  22
ATOM     22  C   UNL     1       0.354  12.101  20.609  0.00  0.00    +0.000 A 
ATOM     23  C   UNL     1      -0.933  11.917  20.089  0.00  0.00    +0.000 A 
ATOM     24  C   UNL     1      -1.283  12.444  18.834  0.00  0.00    +0.000 A 
ATOM     25  C   UNL     1      -0.383  13.242  18.133  0.00  0.00    +0.000 A 
ATOM     26  C   UNL     1       0.881  13.468  18.659  0.00  0.00    +0.000 A 
ATOM     27  C   UNL     1       1.253  12.871  19.868  0.00  0.00    +0.000 A 
ENDBRANCH  21  22
ENDBRANCH  19  21
ENDBRANCH  17  19
ENDBRANCH  16  17
ENDBRANCH  15  16
ENDBRANCH   7  15
TORSDOF 9
ENDMDL
