MODEL 1
REMARK VINA RESULT:      -6.3      0.000      0.000
REMARK  Name = 
REMARK  7 active torsions:
REMARK  status: ('A' for Active; 'I' for Inactive)
REMARK    1  A    between atoms: C_1  and  O_2
REMARK    2  A    between atoms: O_2  and  C_3
REMARK    3  A    between atoms: C_6  and  N_7
REMARK    4  A    between atoms: C_8  and  S_9
REMARK    5  A    between atoms: N_10  and  C_11
REMARK    6  A    between atoms: C_21  and  O_22
REMARK    7  A    between atoms: O_22  and  C_23
REMARK                            x       y       z     vdW  Elec       q    Type
REMARK                         _______ _______ _______ _____ _____    ______ ____
ROOT
ATOM      1  N   UNL     1       1.569   9.455  18.355  0.00  0.00    +0.000 NA
ATOM      2  C   UNL     1       1.989   8.338  18.891  0.00  0.00    +0.000 C 
ATOM      3  N   UNL     1       2.794   7.525  18.124  0.00  0.00    +0.000 N 
ATOM      4  H   UNL     1       2.851   7.886  17.175  0.00  0.00    +0.000 HD
ENDROOT
BRANCH   3   5
ATOM      5  C   UNL     1       3.032   6.077  18.254  0.00  0.00    +0.000 C 
ATOM      6  C   UNL     1       1.779   5.209  17.976  0.00  0.00    +0.000 C 
ATOM      7  N   UNL     1       2.082   3.778  18.126  0.00  0.00    +0.000 NA
ATOM      8  C   UNL     1       3.085   3.386  17.144  0.00  0.00    +0.000 C 
ATOM      9  N   UNL     1       4.329   4.127  17.347  0.00  0.00    +0.000 NA
ATOM     10  C   UNL     1       4.821   3.815  18.689  0.00  0.00    +0.000 C 
ATOM     11  N   UNL     1       3.858   4.230  19.703  0.00  0.00    +0.000 NA
ATOM     12  C   UNL     1       2.596   3.522  19.476  0.00  0.00    +0.000 C 
ATOM     13  C   UNL     1       3.633   5.691  19.626  0.00  0.00    +0.000 C 
ATOM     14  C   UNL     1       4.089   5.583  17.217  0.00  0.00    +0.000 C 
ENDBRANCH   3   5
BRANCH   1  18
ATOM     15  C   UNL     1      -1.274  11.983  20.249  0.00  0.00    +0.000 A 
ATOM     16  C   UNL     1       0.053  11.992  20.657  0.00  0.00    +0.000 A 
ATOM     17  C   UNL     1       1.011  11.256  19.964  0.00  0.00    +0.000 A 
ATOM     18  C   UNL     1       0.648  10.370  18.947  0.00  0.00    +0.000 A 
ATOM     19  C   UNL     1      -0.688  10.414  18.484  0.00  0.00    +0.000 A 
ATOM     20  C   UNL     1      -1.633  11.232  19.133  0.00  0.00    +0.000 A 
BRANCH  15  22
ATOM     21  C   UNL     1      -2.350  12.330  22.343  0.00  0.00    +0.000 C 
ATOM     22  O   UNL     1      -2.101  12.758  21.013  0.00  0.00    +0.000 OA
ENDBRANCH  15  22
BRANCH  19  23
ATOM     23  O   UNL     1      -0.977   9.649  17.375  0.00  0.00    +0.000 OA
ATOM     24  C   UNL     1      -2.198   9.918  16.697  0.00  0.00    +0.000 C 
ENDBRANCH  19  23
ENDBRANCH   1  18
BRANCH   2  25
ATOM     25  S   UNL     1       1.593   7.793  20.517  0.00  0.00    +0.000 S 
ATOM     26  H   UNL     1       1.959   8.925  21.128  0.00  0.00    +0.000 HD
ENDBRANCH   2  25
TORSDOF 5
ENDMDL
MODEL 2
REMARK VINA RESULT:      -6.2      0.121      1.478
REMARK  Name = 
REMARK  7 active torsions:
REMARK  status: ('A' for Active; 'I' for Inactive)
REMARK    1  A    between atoms: C_1  and  O_2
REMARK    2  A    between atoms: O_2  and  C_3
REMARK    3  A    between atoms: C_6  and  N_7
REMARK    4  A    between atoms: C_8  and  S_9
REMARK    5  A    between atoms: N_10  and  C_11
REMARK    6  A    between atoms: C_21  and  O_22
REMARK    7  A    between atoms: O_22  and  C_23
REMARK                            x       y       z     vdW  Elec       q    Type
REMARK                         _______ _______ _______ _____ _____    ______ ____
ROOT
ATOM      1  N   UNL     1       1.564   9.420  18.443  0.00  0.00    +0.000 NA
ATOM      2  C   UNL     1       2.006   8.302  18.958  0.00  0.00    +0.000 C 
ATOM      3  N   UNL     1       2.832   7.522  18.178  0.00  0.00    +0.000 N 
ATOM      4  H   UNL     1       2.885   7.904  17.237  0.00  0.00    +0.000 HD
ENDROOT
BRANCH   3   5
ATOM      5  C   UNL     1       3.099   6.077  18.279  0.00  0.00    +0.000 C 
ATOM      6  C   UNL     1       3.562   5.623  19.687  0.00  0.00    +0.000 C 
ATOM      7  N   UNL     1       3.815   4.174  19.718  0.00  0.00    +0.000 NA
ATOM      8  C   UNL     1       2.580   3.456  19.434  0.00  0.00    +0.000 C 
ATOM      9  N   UNL     1       2.078   3.790  18.102  0.00  0.00    +0.000 NA
ATOM     10  C   UNL     1       3.098   3.396  17.129  0.00  0.00    +0.000 C 
ATOM     11  N   UNL     1       4.341   4.126  17.359  0.00  0.00    +0.000 NA
ATOM     12  C   UNL     1       4.822   3.828  18.709  0.00  0.00    +0.000 C 
ATOM     13  C   UNL     1       4.111   5.581  17.218  0.00  0.00    +0.000 C 
ATOM     14  C   UNL     1       1.810   5.243  18.002  0.00  0.00    +0.000 C 
ENDBRANCH   3   5
BRANCH   1  18
ATOM     15  C   UNL     1      -1.349  11.847  20.363  0.00  0.00    +0.000 A 
ATOM     16  C   UNL     1      -0.041  11.822  20.829  0.00  0.00    +0.000 A 
ATOM     17  C   UNL     1       0.943  11.124  20.134  0.00  0.00    +0.000 A 
ATOM     18  C   UNL     1       0.622  10.304  19.050  0.00  0.00    +0.000 A 
ATOM     19  C   UNL     1      -0.692  10.384  18.532  0.00  0.00    +0.000 A 
ATOM     20  C   UNL     1      -1.662  11.167  19.189  0.00  0.00    +0.000 A 
BRANCH  15  22
ATOM     21  C   UNL     1      -2.293  12.239  22.513  0.00  0.00    +0.000 C 
ATOM     22  O   UNL     1      -2.205  12.579  21.137  0.00  0.00    +0.000 OA
ENDBRANCH  15  22
BRANCH  19  23
ATOM     23  O   UNL     1      -0.935   9.691  17.368  0.00  0.00    +0.000 OA
ATOM     24  C   UNL     1      -2.173   9.932  16.711  0.00  0.00    +0.000 C 
ENDBRANCH  19  23
ENDBRANCH   1  18
BRANCH   2  25
ATOM     25  S   UNL     1       1.616   7.716  20.571  0.00  0.00    +0.000 S 
ATOM     26  H   UNL     1       2.745   7.017  20.733  0.00  0.00    +0.000 HD
ENDBRANCH   2  25
TORSDOF 5
ENDMDL
MODEL 3
REMARK VINA RESULT:      -6.2      0.146      1.489
REMARK  Name = 
REMARK  7 active torsions:
REMARK  status: ('A' for Active; 'I' for Inactive)
REMARK    1  A    between atoms: C_1  and  O_2
REMARK    2  A    between atoms: O_2  and  C_3
REMARK    3  A    between atoms: C_6  and  N_7
REMARK    4  A    between atoms: C_8  and  S_9
REMARK    5  A    between atoms: N_10  and  C_11
REMARK    6  A    between atoms: C_21  and  O_22
REMARK    7  A    between atoms: O_22  and  C_23
REMARK                            x       y       z     vdW  Elec       q    Type
REMARK                         _______ _______ _______ _____ _____    ______ ____
ROOT
ATOM      1  N   UNL     1       1.563   9.414  18.429  0.00  0.00    +0.000 NA
ATOM      2  C   UNL     1       2.007   8.287  18.923  0.00  0.00    +0.000 C 
ATOM      3  N   UNL     1       2.826   7.519  18.124  0.00  0.00    +0.000 N 
ATOM      4  H   UNL     1       2.873   7.915  17.189  0.00  0.00    +0.000 HD
ENDROOT
BRANCH   3   5
ATOM      5  C   UNL     1       3.092   6.072  18.200  0.00  0.00    +0.000 C 
ATOM      6  C   UNL     1       4.173   5.580  17.204  0.00  0.00    +0.000 C 
ATOM      7  N   UNL     1       4.386   4.131  17.329  0.00  0.00    +0.000 NA
ATOM      8  C   UNL     1       4.881   3.823  18.664  0.00  0.00    +0.000 C 
ATOM      9  N   UNL     1       3.909   4.217  19.682  0.00  0.00    +0.000 NA
ATOM     10  C   UNL     1       2.678   3.464  19.440  0.00  0.00    +0.000 C 
ATOM     11  N   UNL     1       2.131   3.777  18.124  0.00  0.00    +0.000 NA
ATOM     12  C   UNL     1       3.120   3.425  17.104  0.00  0.00    +0.000 C 
ATOM     13  C   UNL     1       1.811   5.219  18.034  0.00  0.00    +0.000 C 
ATOM     14  C   UNL     1       3.642   5.672  19.605  0.00  0.00    +0.000 C 
ENDBRANCH   3   5
BRANCH   1  18
ATOM     15  C   UNL     1      -1.332  11.813  20.409  0.00  0.00    +0.000 A 
ATOM     16  C   UNL     1      -0.020  11.783  20.862  0.00  0.00    +0.000 A 
ATOM     17  C   UNL     1       0.958  11.095  20.148  0.00  0.00    +0.000 A 
ATOM     18  C   UNL     1       0.627  10.289  19.056  0.00  0.00    +0.000 A 
ATOM     19  C   UNL     1      -0.692  10.376  18.553  0.00  0.00    +0.000 A 
ATOM     20  C   UNL     1      -1.656  11.149  19.229  0.00  0.00    +0.000 A 
BRANCH  15  22
ATOM     21  C   UNL     1      -2.243  12.188  22.576  0.00  0.00    +0.000 C 
ATOM     22  O   UNL     1      -2.181  12.535  21.201  0.00  0.00    +0.000 OA
ENDBRANCH  15  22
BRANCH  19  23
ATOM     23  O   UNL     1      -0.947   9.698  17.382  0.00  0.00    +0.000 OA
ATOM     24  C   UNL     1      -2.177   9.971  16.723  0.00  0.00    +0.000 C 
ENDBRANCH  19  23
ENDBRANCH   1  18
BRANCH   2  25
ATOM     25  S   UNL     1       1.627   7.675  20.528  0.00  0.00    +0.000 S 
ATOM     26  H   UNL     1       1.909   8.813  21.173  0.00  0.00    +0.000 HD
ENDBRANCH   2  25
TORSDOF 5
ENDMDL
MODEL 4
REMARK VINA RESULT:      -6.2      1.587      2.267
REMARK  Name = 
REMARK  7 active torsions:
REMARK  status: ('A' for Active; 'I' for Inactive)
REMARK    1  A    between atoms: C_1  and  O_2
REMARK    2  A    between atoms: O_2  and  C_3
REMARK    3  A    between atoms: C_6  and  N_7
REMARK    4  A    between atoms: C_8  and  S_9
REMARK    5  A    between atoms: N_10  and  C_11
REMARK    6  A    between atoms: C_21  and  O_22
REMARK    7  A    between atoms: O_22  and  C_23
REMARK                            x       y       z     vdW  Elec       q    Type
REMARK                         _______ _______ _______ _____ _____    ______ ____
ROOT
ATOM      1  N   UNL     1       1.756   9.304  17.636  0.00  0.00    +0.000 NA
ATOM      2  C   UNL     1       2.337   8.305  18.249  0.00  0.00    +0.000 C 
ATOM      3  N   UNL     1       3.378   7.676  17.599  0.00  0.00    +0.000 N 
ATOM      4  H   UNL     1       3.465   8.035  16.652  0.00  0.00    +0.000 HD
ENDROOT
BRANCH   3   5
ATOM      5  C   UNL     1       3.897   6.312  17.798  0.00  0.00    +0.000 C 
ATOM      6  C   UNL     1       2.795   5.225  17.861  0.00  0.00    +0.000 C 
ATOM      7  N   UNL     1       3.379   3.891  18.065  0.00  0.00    +0.000 NA
ATOM      8  C   UNL     1       4.232   3.553  16.933  0.00  0.00    +0.000 C 
ATOM      9  N   UNL     1       5.334   4.506  16.810  0.00  0.00    +0.000 NA
ATOM     10  C   UNL     1       6.121   4.440  18.041  0.00  0.00    +0.000 C 
ATOM     11  N   UNL     1       5.308   4.811  19.195  0.00  0.00    +0.000 NA
ATOM     12  C   UNL     1       4.178   3.885  19.295  0.00  0.00    +0.000 C 
ATOM     13  C   UNL     1       4.809   6.195  19.044  0.00  0.00    +0.000 C 
ATOM     14  C   UNL     1       4.810   5.877  16.610  0.00  0.00    +0.000 C 
ENDBRANCH   3   5
BRANCH   1  18
ATOM     15  C   UNL     1      -1.660  11.551  18.794  0.00  0.00    +0.000 A 
ATOM     16  C   UNL     1      -1.808  10.282  18.251  0.00  0.00    +0.000 A 
ATOM     17  C   UNL     1      -0.692   9.494  17.980  0.00  0.00    +0.000 A 
ATOM     18  C   UNL     1       0.603  10.008  18.095  0.00  0.00    +0.000 A 
ATOM     19  C   UNL     1       0.756  11.270  18.714  0.00  0.00    +0.000 A 
ATOM     20  C   UNL     1      -0.380  12.024  19.070  0.00  0.00    +0.000 A 
BRANCH  15  22
ATOM     21  C   UNL     1      -4.009  11.663  18.423  0.00  0.00    +0.000 C 
ATOM     22  O   UNL     1      -2.839  12.205  19.017  0.00  0.00    +0.000 OA
ENDBRANCH  15  22
BRANCH  19  23
ATOM     23  O   UNL     1       2.048  11.678  18.961  0.00  0.00    +0.000 OA
ATOM     24  C   UNL     1       2.422  12.972  18.504  0.00  0.00    +0.000 C 
ENDBRANCH  19  23
ENDBRANCH   1  18
BRANCH   2  25
ATOM     25  S   UNL     1       1.883   7.699  19.836  0.00  0.00    +0.000 S 
ATOM     26  H   UNL     1       1.023   6.780  19.385  0.00  0.00    +0.000 HD
ENDBRANCH   2  25
TORSDOF 5
ENDMDL
MODEL 5
REMARK VINA RESULT:      -6.1      1.333      1.915
REMARK  Name = 
REMARK  7 active torsions:
REMARK  status: ('A' for Active; 'I' for Inactive)
REMARK    1  A    between atoms: C_1  and  O_2
REMARK    2  A    between atoms: O_2  and  C_3
REMARK    3  A    between atoms: C_6  and  N_7
REMARK    4  A    between atoms: C_8  and  S_9
REMARK    5  A    between atoms: N_10  and  C_11
REMARK    6  A    between atoms: C_21  and  O_22
REMARK    7  A    between atoms: O_22  and  C_23
REMARK                            x       y       z     vdW  Elec       q    Type
REMARK                         _______ _______ _______ _____ _____    ______ ____
ROOT
ATOM      1  N   UNL     1       1.690   9.377  18.045  0.00  0.00    +0.000 NA
ATOM      2  C   UNL     1       2.103   8.294  18.652  0.00  0.00    +0.000 C 
ATOM      3  N   UNL     1       2.887   7.419  17.933  0.00  0.00    +0.000 N 
ATOM      4  H   UNL     1       2.935   7.712  16.960  0.00  0.00    +0.000 HD
ENDROOT
BRANCH   3   5
ATOM      5  C   UNL     1       3.108   5.980  18.160  0.00  0.00    +0.000 C 
ATOM      6  C   UNL     1       1.836   5.114  17.973  0.00  0.00    +0.000 C 
ATOM      7  N   UNL     1       2.124   3.693  18.218  0.00  0.00    +0.000 NA
ATOM      8  C   UNL     1       3.098   3.217  17.245  0.00  0.00    +0.000 C 
ATOM      9  N   UNL     1       4.356   3.951  17.367  0.00  0.00    +0.000 NA
ATOM     10  C   UNL     1       4.875   3.727  18.716  0.00  0.00    +0.000 C 
ATOM     11  N   UNL     1       3.941   4.228  19.720  0.00  0.00    +0.000 NA
ATOM     12  C   UNL     1       2.665   3.526  19.571  0.00  0.00    +0.000 C 
ATOM     13  C   UNL     1       3.735   5.683  19.543  0.00  0.00    +0.000 C 
ATOM     14  C   UNL     1       4.133   5.398  17.138  0.00  0.00    +0.000 C 
ENDBRANCH   3   5
BRANCH   1  18
ATOM     15  C   UNL     1      -1.041  12.334  19.407  0.00  0.00    +0.000 A 
ATOM     16  C   UNL     1      -1.408  10.995  19.396  0.00  0.00    +0.000 A 
ATOM     17  C   UNL     1      -0.480  10.011  19.064  0.00  0.00    +0.000 A 
ATOM     18  C   UNL     1       0.789  10.344  18.584  0.00  0.00    +0.000 A 
ATOM     19  C   UNL     1       1.187  11.699  18.663  0.00  0.00    +0.000 A 
ATOM     20  C   UNL     1       0.270  12.680  19.088  0.00  0.00    +0.000 A 
BRANCH  15  22
ATOM     21  C   UNL     1      -3.314  12.616  20.057  0.00  0.00    +0.000 C 
ATOM     22  O   UNL     1      -2.049  13.187  19.761  0.00  0.00    +0.000 OA
ENDBRANCH  15  22
BRANCH  19  23
ATOM     23  O   UNL     1       2.496  11.973  18.336  0.00  0.00    +0.000 OA
ATOM     24  C   UNL     1       2.876  13.341  18.253  0.00  0.00    +0.000 C 
ENDBRANCH  19  23
ENDBRANCH   1  18
BRANCH   2  25
ATOM     25  S   UNL     1       1.724   7.870  20.317  0.00  0.00    +0.000 S 
ATOM     26  H   UNL     1       2.677   6.940  20.436  0.00  0.00    +0.000 HD
ENDBRANCH   2  25
TORSDOF 5
ENDMDL
MODEL 6
REMARK VINA RESULT:      -6.0      1.457      2.548
REMARK  Name = 
REMARK  7 active torsions:
REMARK  status: ('A' for Active; 'I' for Inactive)
REMARK    1  A    between atoms: C_1  and  O_2
REMARK    2  A    between atoms: O_2  and  C_3
REMARK    3  A    between atoms: C_6  and  N_7
REMARK    4  A    between atoms: C_8  and  S_9
REMARK    5  A    between atoms: N_10  and  C_11
REMARK    6  A    between atoms: C_21  and  O_22
REMARK    7  A    between atoms: O_22  and  C_23
REMARK                            x       y       z     vdW  Elec       q    Type
REMARK                         _______ _______ _______ _____ _____    ______ ____
ROOT
ATOM      1  N   UNL     1       1.694   9.313  17.648  0.00  0.00    +0.000 NA
ATOM      2  C   UNL     1       2.265   8.320  18.280  0.00  0.00    +0.000 C 
ATOM      3  N   UNL     1       3.269   7.640  17.625  0.00  0.00    +0.000 N 
ATOM      4  H   UNL     1       3.339   7.963  16.663  0.00  0.00    +0.000 HD
ENDROOT
BRANCH   3   5
ATOM      5  C   UNL     1       3.757   6.270  17.858  0.00  0.00    +0.000 C 
ATOM      6  C   UNL     1       4.453   6.077  19.229  0.00  0.00    +0.000 C 
ATOM      7  N   UNL     1       4.919   4.692  19.395  0.00  0.00    +0.000 NA
ATOM      8  C   UNL     1       3.777   3.788  19.378  0.00  0.00    +0.000 C 
ATOM      9  N   UNL     1       3.070   3.867  18.101  0.00  0.00    +0.000 NA
ATOM     10  C   UNL     1       4.007   3.479  17.047  0.00  0.00    +0.000 C 
ATOM     11  N   UNL     1       5.148   4.389  17.008  0.00  0.00    +0.000 NA
ATOM     12  C   UNL     1       5.832   4.345  18.302  0.00  0.00    +0.000 C 
ATOM     13  C   UNL     1       4.691   5.768  16.730  0.00  0.00    +0.000 C 
ATOM     14  C   UNL     1       2.580   5.245  17.868  0.00  0.00    +0.000 C 
ENDBRANCH   3   5
BRANCH   1  18
ATOM     15  C   UNL     1      -1.624  11.696  18.821  0.00  0.00    +0.000 A 
ATOM     16  C   UNL     1      -1.823  10.418  18.316  0.00  0.00    +0.000 A 
ATOM     17  C   UNL     1      -0.738   9.589  18.042  0.00  0.00    +0.000 A 
ATOM     18  C   UNL     1       0.574  10.064  18.113  0.00  0.00    +0.000 A 
ATOM     19  C   UNL     1       0.780  11.337  18.695  0.00  0.00    +0.000 A 
ATOM     20  C   UNL     1      -0.323  12.135  19.055  0.00  0.00    +0.000 A 
BRANCH  15  22
ATOM     21  C   UNL     1      -3.116  12.661  20.405  0.00  0.00    +0.000 C 
ATOM     22  O   UNL     1      -2.777  12.392  19.053  0.00  0.00    +0.000 OA
ENDBRANCH  15  22
BRANCH  19  23
ATOM     23  O   UNL     1       2.089  11.711  18.901  0.00  0.00    +0.000 OA
ATOM     24  C   UNL     1       2.548  12.879  18.230  0.00  0.00    +0.000 C 
ENDBRANCH  19  23
ENDBRANCH   1  18
BRANCH   2  25
ATOM     25  S   UNL     1       1.841   7.783  19.900  0.00  0.00    +0.000 S 
ATOM     26  H   UNL     1       0.617   8.322  19.901  0.00  0.00    +0.000 HD
ENDBRANCH   2  25
TORSDOF 5
ENDMDL
MODEL 7
REMARK VINA RESULT:      -6.0      1.474      2.492
REMARK  Name = 
REMARK  7 active torsions:
REMARK  status: ('A' for Active; 'I' for Inactive)
REMARK    1  A    between atoms: C_1  and  O_2
REMARK    2  A    between atoms: O_2  and  C_3
REMARK    3  A    between atoms: C_6  and  N_7
REMARK    4  A    between atoms: C_8  and  S_9
REMARK    5  A    between atoms: N_10  and  C_11
REMARK    6  A    between atoms: C_21  and  O_22
REMARK    7  A    between atoms: O_22  and  C_23
REMARK                            x       y       z     vdW  Elec       q    Type
REMARK                         _______ _______ _______ _____ _____    ______ ____
ROOT
ATOM      1  N   UNL     1       1.681   9.321  17.634  0.00  0.00    +0.000 NA
ATOM      2  C   UNL     1       2.262   8.320  18.242  0.00  0.00    +0.000 C 
ATOM      3  N   UNL     1       3.272   7.665  17.571  0.00  0.00    +0.000 N 
ATOM      4  H   UNL     1       3.339   8.011  16.618  0.00  0.00    +0.000 HD
ENDROOT
BRANCH   3   5
ATOM      5  C   UNL     1       3.773   6.294  17.772  0.00  0.00    +0.000 C 
ATOM      6  C   UNL     1       4.762   5.822  16.676  0.00  0.00    +0.000 C 
ATOM      7  N   UNL     1       5.219   4.448  16.933  0.00  0.00    +0.000 NA
ATOM      8  C   UNL     1       5.946   4.403  18.195  0.00  0.00    +0.000 C 
ATOM      9  N   UNL     1       5.082   4.798  19.307  0.00  0.00    +0.000 NA
ATOM     10  C   UNL     1       3.965   3.856  19.361  0.00  0.00    +0.000 C 
ATOM     11  N   UNL     1       3.189   3.901  18.126  0.00  0.00    +0.000 NA
ATOM     12  C   UNL     1       4.063   3.549  17.005  0.00  0.00    +0.000 C 
ATOM     13  C   UNL     1       2.634   5.257  17.921  0.00  0.00    +0.000 C 
ATOM     14  C   UNL     1       4.579   6.177  19.104  0.00  0.00    +0.000 C 
ENDBRANCH   3   5
BRANCH   1  18
ATOM     15  C   UNL     1      -1.656  11.646  18.865  0.00  0.00    +0.000 A 
ATOM     16  C   UNL     1      -1.846  10.387  18.314  0.00  0.00    +0.000 A 
ATOM     17  C   UNL     1      -0.755   9.573  18.019  0.00  0.00    +0.000 A 
ATOM     18  C   UNL     1       0.554  10.051  18.117  0.00  0.00    +0.000 A 
ATOM     19  C   UNL     1       0.750  11.303  18.745  0.00  0.00    +0.000 A 
ATOM     20  C   UNL     1      -0.360  12.083  19.125  0.00  0.00    +0.000 A 
BRANCH  15  22
ATOM     21  C   UNL     1      -2.988  12.868  20.414  0.00  0.00    +0.000 C 
ATOM     22  O   UNL     1      -2.814  12.329  19.113  0.00  0.00    +0.000 OA
ENDBRANCH  15  22
BRANCH  19  23
ATOM     23  O   UNL     1       2.056  11.675  18.975  0.00  0.00    +0.000 OA
ATOM     24  C   UNL     1       2.552  12.795  18.252  0.00  0.00    +0.000 C 
ENDBRANCH  19  23
ENDBRANCH   1  18
BRANCH   2  25
ATOM     25  S   UNL     1       1.843   7.741  19.850  0.00  0.00    +0.000 S 
ATOM     26  H   UNL     1       2.239   6.480  19.643  0.00  0.00    +0.000 HD
ENDBRANCH   2  25
TORSDOF 5
ENDMDL
MODEL 8
REMARK VINA RESULT:      -5.9      2.991      8.070
REMARK  Name = 
REMARK  7 active torsions:
REMARK  status: ('A' for Active; 'I' for Inactive)
REMARK    1  A    between atoms: C_1  and  O_2
REMARK    2  A    between atoms: O_2  and  C_3
REMARK    3  A    between atoms: C_6  and  N_7
REMARK    4  A    between atoms: C_8  and  S_9
REMARK    5  A    between atoms: N_10  and  C_11
REMARK    6  A    between atoms: C_21  and  O_22
REMARK    7  A    between atoms: O_22  and  C_23
REMARK                            x       y       z     vdW  Elec       q    Type
REMARK                         _______ _______ _______ _____ _____    ______ ____
ROOT
ATOM      1  N   UNL     1       1.997   7.607  19.916  0.00  0.00    +0.000 NA
ATOM      2  C   UNL     1       1.658   8.789  19.468  0.00  0.00    +0.000 C 
ATOM      3  N   UNL     1       0.953   9.615  20.316  0.00  0.00    +0.000 N 
ATOM      4  H   UNL     1       0.699   9.112  21.162  0.00  0.00    +0.000 HD
ENDROOT
BRANCH   3   5
ATOM      5  C   UNL     1       0.072  10.747  19.977  0.00  0.00    +0.000 C 
ATOM      6  C   UNL     1      -0.959  10.427  18.866  0.00  0.00    +0.000 C 
ATOM      7  N   UNL     1      -1.801  11.597  18.574  0.00  0.00    +0.000 NA
ATOM      8  C   UNL     1      -2.567  11.956  19.760  0.00  0.00    +0.000 C 
ATOM      9  N   UNL     1      -1.677  12.314  20.864  0.00  0.00    +0.000 NA
ATOM     10  C   UNL     1      -0.880  13.465  20.440  0.00  0.00    +0.000 C 
ATOM     11  N   UNL     1      -0.068  13.130  19.274  0.00  0.00    +0.000 NA
ATOM     12  C   UNL     1      -0.954  12.728  18.180  0.00  0.00    +0.000 C 
ATOM     13  C   UNL     1       0.860  12.024  19.599  0.00  0.00    +0.000 C 
ATOM     14  C   UNL     1      -0.792  11.175  21.204  0.00  0.00    +0.000 C 
ENDBRANCH   3   5
BRANCH   1  18
ATOM     15  C   UNL     1       3.676   4.531  17.513  0.00  0.00    +0.000 A 
ATOM     16  C   UNL     1       4.108   5.843  17.372  0.00  0.00    +0.000 A 
ATOM     17  C   UNL     1       3.649   6.834  18.237  0.00  0.00    +0.000 A 
ATOM     18  C   UNL     1       2.631   6.578  19.159  0.00  0.00    +0.000 A 
ATOM     19  C   UNL     1       2.244   5.231  19.351  0.00  0.00    +0.000 A 
ATOM     20  C   UNL     1       2.782   4.218  18.533  0.00  0.00    +0.000 A 
BRANCH  15  22
ATOM     21  C   UNL     1       5.332   4.119  15.853  0.00  0.00    +0.000 C 
ATOM     22  O   UNL     1       4.217   3.665  16.604  0.00  0.00    +0.000 OA
ENDBRANCH  15  22
BRANCH  19  23
ATOM     23  O   UNL     1       1.359   4.989  20.378  0.00  0.00    +0.000 OA
ATOM     24  C   UNL     1       1.122   3.631  20.729  0.00  0.00    +0.000 C 
ENDBRANCH  19  23
ENDBRANCH   1  18
BRANCH   2  25
ATOM     25  S   UNL     1       2.029   9.397  17.859  0.00  0.00    +0.000 S 
ATOM     26  H   UNL     1       2.099  10.683  18.218  0.00  0.00    +0.000 HD
ENDBRANCH   2  25
TORSDOF 5
ENDMDL
MODEL 9
REMARK VINA RESULT:      -5.8      2.987      8.057
REMARK  Name = 
REMARK  7 active torsions:
REMARK  status: ('A' for Active; 'I' for Inactive)
REMARK    1  A    between atoms: C_1  and  O_2
REMARK    2  A    between atoms: O_2  and  C_3
REMARK    3  A    between atoms: C_6  and  N_7
REMARK    4  A    between atoms: C_8  and  S_9
REMARK    5  A    between atoms: N_10  and  C_11
REMARK    6  A    between atoms: C_21  and  O_22
REMARK    7  A    between atoms: O_22  and  C_23
REMARK                            x       y       z     vdW  Elec       q    Type
REMARK                         _______ _______ _______ _____ _____    ______ ____
ROOT
ATOM      1  N   UNL     1       2.005   7.563  19.928  0.00  0.00    +0.000 NA
ATOM      2  C   UNL     1       1.663   8.747  19.491  0.00  0.00    +0.000 C 
ATOM      3  N   UNL     1       0.967   9.568  20.351  0.00  0.00    +0.000 N 
ATOM      4  H   UNL     1       0.721   9.060  21.197  0.00  0.00    +0.000 HD
ENDROOT
BRANCH   3   5
ATOM      5  C   UNL     1       0.083  10.702  20.029  0.00  0.00    +0.000 C 
ATOM      6  C   UNL     1      -0.792  11.172  21.218  0.00  0.00    +0.000 C 
ATOM      7  N   UNL     1      -1.651  12.301  20.829  0.00  0.00    +0.000 NA
ATOM      8  C   UNL     1      -0.823  13.437  20.449  0.00  0.00    +0.000 C 
ATOM      9  N   UNL     1       0.020  13.105  19.302  0.00  0.00    +0.000 NA
ATOM     10  C   UNL     1      -0.860  12.757  18.186  0.00  0.00    +0.000 C 
ATOM     11  N   UNL     1      -1.680  11.596  18.517  0.00  0.00    +0.000 NA
ATOM     12  C   UNL     1      -2.493  11.910  19.693  0.00  0.00    +0.000 C 
ATOM     13  C   UNL     1      -0.819  10.427  18.802  0.00  0.00    +0.000 C 
ATOM     14  C   UNL     1       0.908  11.964  19.627  0.00  0.00    +0.000 C 
ENDBRANCH   3   5
BRANCH   1  18
ATOM     15  C   UNL     1       3.661   4.506  17.484  0.00  0.00    +0.000 A 
ATOM     16  C   UNL     1       4.112   5.814  17.371  0.00  0.00    +0.000 A 
ATOM     17  C   UNL     1       3.660   6.796  18.249  0.00  0.00    +0.000 A 
ATOM     18  C   UNL     1       2.632   6.538  19.158  0.00  0.00    +0.000 A 
ATOM     19  C   UNL     1       2.224   5.193  19.323  0.00  0.00    +0.000 A 
ATOM     20  C   UNL     1       2.754   4.188  18.492  0.00  0.00    +0.000 A 
BRANCH  15  22
ATOM     21  C   UNL     1       5.389   4.054  15.910  0.00  0.00    +0.000 C 
ATOM     22  O   UNL     1       4.196   3.648  16.565  0.00  0.00    +0.000 OA
ENDBRANCH  15  22
BRANCH  19  23
ATOM     23  O   UNL     1       1.327   4.946  20.338  0.00  0.00    +0.000 OA
ATOM     24  C   UNL     1       1.197   3.601  20.781  0.00  0.00    +0.000 C 
ENDBRANCH  19  23
ENDBRANCH   1  18
BRANCH   2  25
ATOM     25  S   UNL     1       2.017   9.365  17.882  0.00  0.00    +0.000 S 
ATOM     26  H   UNL     1       2.163   8.165  17.309  0.00  0.00    +0.000 HD
ENDBRANCH   2  25
TORSDOF 5
ENDMDL
