MODEL 1
REMARK VINA RESULT:      -7.4      0.000      0.000
REMARK  Name = 
REMARK  7 active torsions:
REMARK  status: ('A' for Active; 'I' for Inactive)
REMARK    1  A    between atoms: C_1  and  C_2
REMARK    2  A    between atoms: C_5  and  O_6
REMARK    3  A    between atoms: O_6  and  C_7
REMARK    4  A    between atoms: C_11  and  O_12
REMARK    5  A    between atoms: C_14  and  C_15
REMARK    6  A    between atoms: C_15  and  C_16
REMARK    7  A    between atoms: C_16  and  O_18
REMARK                            x       y       z     vdW  Elec       q    Type
REMARK                         _______ _______ _______ _____ _____    ______ ____
ROOT
ATOM      1  C   UNL     1       1.113   8.316  21.192  0.00  0.00    +0.000 C 
ATOM      2  C   UNL     1       1.777   7.371  20.235  0.00  0.00    +0.000 A 
ATOM      3  C   UNL     1       2.221   7.817  18.990  0.00  0.00    +0.000 A 
ATOM      4  C   UNL     1       2.791   6.922  18.088  0.00  0.00    +0.000 A 
ATOM      5  C   UNL     1       2.887   5.560  18.401  0.00  0.00    +0.000 A 
ATOM      6  C   UNL     1       2.533   5.105  19.684  0.00  0.00    +0.000 A 
ATOM      7  C   UNL     1       1.947   6.023  20.580  0.00  0.00    +0.000 A 
ENDROOT
BRANCH   5   8
ATOM      8  O   UNL     1       3.368   4.638  17.491  0.00  0.00    +0.000 OA
BRANCH   8   9
ATOM      9  C   UNL     1       4.722   4.608  17.217  0.00  0.00    +0.000 A 
ATOM     10  C   UNL     1       5.076   4.472  15.872  0.00  0.00    +0.000 A 
ATOM     11  C   UNL     1       6.422   4.428  15.499  0.00  0.00    +0.000 A 
ATOM     12  C   UNL     1       7.420   4.527  16.470  0.00  0.00    +0.000 A 
ATOM     13  C   UNL     1       7.061   4.689  17.804  0.00  0.00    +0.000 A 
ATOM     14  C   UNL     1       5.723   4.751  18.183  0.00  0.00    +0.000 A 
BRANCH  13  15
ATOM     15  O   UNL     1       8.004   4.789  18.785  0.00  0.00    +0.000 OA
ATOM     16  H   UNL     1       7.916   5.654  19.219  0.00  0.00    +0.000 HD
ENDBRANCH  13  15
ENDBRANCH   8   9
ENDBRANCH   5   8
BRANCH   6  17
ATOM     17  C   UNL     1       2.691   3.648  20.073  0.00  0.00    +0.000 C 
BRANCH  17  18
ATOM     18  C   UNL     1       1.696   3.137  21.091  0.00  0.00    +0.000 C 
ATOM     19  O   UNL     1       1.958   2.942  22.270  0.00  0.00    +0.000 OA
BRANCH  18  20
ATOM     20  O   UNL     1       0.446   2.945  20.599  0.00  0.00    +0.000 OA
ATOM     21  H   UNL     1      -0.007   2.173  20.994  0.00  0.00    +0.000 HD
ENDBRANCH  18  20
ENDBRANCH  17  18
ENDBRANCH   6  17
TORSDOF 6
ENDMDL
MODEL 2
REMARK VINA RESULT:      -7.3      1.120      1.576
REMARK  Name = 
REMARK  7 active torsions:
REMARK  status: ('A' for Active; 'I' for Inactive)
REMARK    1  A    between atoms: C_1  and  C_2
REMARK    2  A    between atoms: C_5  and  O_6
REMARK    3  A    between atoms: O_6  and  C_7
REMARK    4  A    between atoms: C_11  and  O_12
REMARK    5  A    between atoms: C_14  and  C_15
REMARK    6  A    between atoms: C_15  and  C_16
REMARK    7  A    between atoms: C_16  and  O_18
REMARK                            x       y       z     vdW  Elec       q    Type
REMARK                         _______ _______ _______ _____ _____    ______ ____
ROOT
ATOM      1  C   UNL     1       1.122   8.388  21.039  0.00  0.00    +0.000 C 
ATOM      2  C   UNL     1       1.794   7.343  20.201  0.00  0.00    +0.000 A 
ATOM      3  C   UNL     1       2.247   7.645  18.916  0.00  0.00    +0.000 A 
ATOM      4  C   UNL     1       2.824   6.655  18.125  0.00  0.00    +0.000 A 
ATOM      5  C   UNL     1       2.920   5.337  18.591  0.00  0.00    +0.000 A 
ATOM      6  C   UNL     1       2.558   5.031  19.916  0.00  0.00    +0.000 A 
ATOM      7  C   UNL     1       1.964   6.042  20.697  0.00  0.00    +0.000 A 
ENDROOT
BRANCH   5   8
ATOM      8  O   UNL     1       3.410   4.319  17.796  0.00  0.00    +0.000 OA
BRANCH   8   9
ATOM      9  C   UNL     1       4.704   4.402  17.319  0.00  0.00    +0.000 A 
ATOM     10  C   UNL     1       5.706   4.568  18.279  0.00  0.00    +0.000 A 
ATOM     11  C   UNL     1       7.045   4.666  17.890  0.00  0.00    +0.000 A 
ATOM     12  C   UNL     1       7.388   4.593  16.539  0.00  0.00    +0.000 A 
ATOM     13  C   UNL     1       6.388   4.401  15.591  0.00  0.00    +0.000 A 
ATOM     14  C   UNL     1       5.054   4.285  15.970  0.00  0.00    +0.000 A 
BRANCH  13  15
ATOM     15  O   UNL     1       6.679   4.324  14.260  0.00  0.00    +0.000 OA
ATOM     16  H   UNL     1       6.637   5.216  13.877  0.00  0.00    +0.000 HD
ENDBRANCH  13  15
ENDBRANCH   8   9
ENDBRANCH   5   8
BRANCH   6  17
ATOM     17  C   UNL     1       2.716   3.627  20.469  0.00  0.00    +0.000 C 
BRANCH  17  18
ATOM     18  C   UNL     1       1.464   3.018  21.059  0.00  0.00    +0.000 C 
ATOM     19  O   UNL     1       1.393   2.554  22.189  0.00  0.00    +0.000 OA
BRANCH  18  20
ATOM     20  O   UNL     1       0.385   3.061  20.238  0.00  0.00    +0.000 OA
ATOM     21  H   UNL     1      -0.410   2.646  20.628  0.00  0.00    +0.000 HD
ENDBRANCH  18  20
ENDBRANCH  17  18
ENDBRANCH   6  17
TORSDOF 6
ENDMDL
MODEL 3
REMARK VINA RESULT:      -7.3      0.887      1.056
REMARK  Name = 
REMARK  7 active torsions:
REMARK  status: ('A' for Active; 'I' for Inactive)
REMARK    1  A    between atoms: C_1  and  C_2
REMARK    2  A    between atoms: C_5  and  O_6
REMARK    3  A    between atoms: O_6  and  C_7
REMARK    4  A    between atoms: C_11  and  O_12
REMARK    5  A    between atoms: C_14  and  C_15
REMARK    6  A    between atoms: C_15  and  C_16
REMARK    7  A    between atoms: C_16  and  O_18
REMARK                            x       y       z     vdW  Elec       q    Type
REMARK                         _______ _______ _______ _____ _____    ______ ____
ROOT
ATOM      1  C   UNL     1       1.147   7.982  21.236  0.00  0.00    +0.000 C 
ATOM      2  C   UNL     1       1.777   7.042  20.252  0.00  0.00    +0.000 A 
ATOM      3  C   UNL     1       2.434   7.531  19.122  0.00  0.00    +0.000 A 
ATOM      4  C   UNL     1       2.971   6.650  18.188  0.00  0.00    +0.000 A 
ATOM      5  C   UNL     1       2.825   5.266  18.348  0.00  0.00    +0.000 A 
ATOM      6  C   UNL     1       2.250   4.750  19.524  0.00  0.00    +0.000 A 
ATOM      7  C   UNL     1       1.701   5.656  20.452  0.00  0.00    +0.000 A 
ENDROOT
BRANCH   5   8
ATOM      8  O   UNL     1       3.273   4.373  17.394  0.00  0.00    +0.000 OA
BRANCH   8   9
ATOM      9  C   UNL     1       4.596   4.421  16.997  0.00  0.00    +0.000 A 
ATOM     10  C   UNL     1       4.825   4.482  15.620  0.00  0.00    +0.000 A 
ATOM     11  C   UNL     1       6.131   4.531  15.125  0.00  0.00    +0.000 A 
ATOM     12  C   UNL     1       7.214   4.524  16.005  0.00  0.00    +0.000 A 
ATOM     13  C   UNL     1       6.978   4.491  17.377  0.00  0.00    +0.000 A 
ATOM     14  C   UNL     1       5.680   4.460  17.879  0.00  0.00    +0.000 A 
BRANCH  13  15
ATOM     15  O   UNL     1       8.007   4.483  18.272  0.00  0.00    +0.000 OA
ATOM     16  H   UNL     1       8.847   4.479  17.785  0.00  0.00    +0.000 HD
ENDBRANCH  13  15
ENDBRANCH   8   9
ENDBRANCH   5   8
BRANCH   6  17
ATOM     17  C   UNL     1       2.141   3.254  19.755  0.00  0.00    +0.000 C 
BRANCH  17  18
ATOM     18  C   UNL     1       3.054   2.694  20.822  0.00  0.00    +0.000 C 
ATOM     19  O   UNL     1       2.737   2.562  21.996  0.00  0.00    +0.000 OA
BRANCH  18  20
ATOM     20  O   UNL     1       4.269   2.299  20.363  0.00  0.00    +0.000 OA
ATOM     21  H   UNL     1       5.012   2.752  20.809  0.00  0.00    +0.000 HD
ENDBRANCH  18  20
ENDBRANCH  17  18
ENDBRANCH   6  17
TORSDOF 6
ENDMDL
MODEL 4
REMARK VINA RESULT:      -7.0      0.941      1.260
REMARK  Name = 
REMARK  7 active torsions:
REMARK  status: ('A' for Active; 'I' for Inactive)
REMARK    1  A    between atoms: C_1  and  C_2
REMARK    2  A    between atoms: C_5  and  O_6
REMARK    3  A    between atoms: O_6  and  C_7
REMARK    4  A    between atoms: C_11  and  O_12
REMARK    5  A    between atoms: C_14  and  C_15
REMARK    6  A    between atoms: C_15  and  C_16
REMARK    7  A    between atoms: C_16  and  O_18
REMARK                            x       y       z     vdW  Elec       q    Type
REMARK                         _______ _______ _______ _____ _____    ______ ____
ROOT
ATOM      1  C   UNL     1       0.715   9.417  20.259  0.00  0.00    +0.000 C 
ATOM      2  C   UNL     1       1.519   8.248  19.774  0.00  0.00    +0.000 A 
ATOM      3  C   UNL     1       2.169   8.296  18.540  0.00  0.00    +0.000 A 
ATOM      4  C   UNL     1       2.872   7.188  18.075  0.00  0.00    +0.000 A 
ATOM      5  C   UNL     1       2.901   6.000  18.817  0.00  0.00    +0.000 A 
ATOM      6  C   UNL     1       2.334   5.960  20.104  0.00  0.00    +0.000 A 
ATOM      7  C   UNL     1       1.616   7.087  20.553  0.00  0.00    +0.000 A 
ENDROOT
BRANCH   5   8
ATOM      8  O   UNL     1       3.518   4.860  18.339  0.00  0.00    +0.000 OA
BRANCH   8   9
ATOM      9  C   UNL     1       4.890   4.855  18.180  0.00  0.00    +0.000 A 
ATOM     10  C   UNL     1       5.364   4.479  16.920  0.00  0.00    +0.000 A 
ATOM     11  C   UNL     1       6.738   4.441  16.667  0.00  0.00    +0.000 A 
ATOM     12  C   UNL     1       7.644   4.785  17.671  0.00  0.00    +0.000 A 
ATOM     13  C   UNL     1       7.165   5.185  18.915  0.00  0.00    +0.000 A 
ATOM     14  C   UNL     1       5.798   5.242  19.171  0.00  0.00    +0.000 A 
BRANCH  13  15
ATOM     15  O   UNL     1       8.016   5.529  19.924  0.00  0.00    +0.000 OA
ATOM     16  H   UNL     1       8.305   6.447  19.792  0.00  0.00    +0.000 HD
ENDBRANCH  13  15
ENDBRANCH   8   9
ENDBRANCH   5   8
BRANCH   6  17
ATOM     17  C   UNL     1       2.411   4.708  20.958  0.00  0.00    +0.000 C 
BRANCH  17  18
ATOM     18  C   UNL     1       1.311   3.696  20.725  0.00  0.00    +0.000 C 
ATOM     19  O   UNL     1       0.566   3.704  19.754  0.00  0.00    +0.000 OA
BRANCH  18  20
ATOM     20  O   UNL     1       1.236   2.729  21.673  0.00  0.00    +0.000 OA
ATOM     21  H   UNL     1       1.598   3.011  22.536  0.00  0.00    +0.000 HD
ENDBRANCH  18  20
ENDBRANCH  17  18
ENDBRANCH   6  17
TORSDOF 6
ENDMDL
MODEL 5
REMARK VINA RESULT:      -7.0      2.560      6.125
REMARK  Name = 
REMARK  7 active torsions:
REMARK  status: ('A' for Active; 'I' for Inactive)
REMARK    1  A    between atoms: C_1  and  C_2
REMARK    2  A    between atoms: C_5  and  O_6
REMARK    3  A    between atoms: O_6  and  C_7
REMARK    4  A    between atoms: C_11  and  O_12
REMARK    5  A    between atoms: C_14  and  C_15
REMARK    6  A    between atoms: C_15  and  C_16
REMARK    7  A    between atoms: C_16  and  O_18
REMARK                            x       y       z     vdW  Elec       q    Type
REMARK                         _______ _______ _______ _____ _____    ______ ____
ROOT
ATOM      1  C   UNL     1       8.486   8.346  18.276  0.00  0.00    +0.000 C 
ATOM      2  C   UNL     1       7.601   7.161  18.027  0.00  0.00    +0.000 A 
ATOM      3  C   UNL     1       7.298   6.271  19.057  0.00  0.00    +0.000 A 
ATOM      4  C   UNL     1       6.516   5.147  18.805  0.00  0.00    +0.000 A 
ATOM      5  C   UNL     1       6.060   4.873  17.509  0.00  0.00    +0.000 A 
ATOM      6  C   UNL     1       6.273   5.805  16.476  0.00  0.00    +0.000 A 
ATOM      7  C   UNL     1       7.076   6.930  16.747  0.00  0.00    +0.000 A 
ENDROOT
BRANCH   5   8
ATOM      8  O   UNL     1       5.356   3.722  17.215  0.00  0.00    +0.000 OA
BRANCH   8   9
ATOM      9  C   UNL     1       4.038   3.618  17.619  0.00  0.00    +0.000 A 
ATOM     10  C   UNL     1       3.275   4.785  17.537  0.00  0.00    +0.000 A 
ATOM     11  C   UNL     1       1.932   4.777  17.927  0.00  0.00    +0.000 A 
ATOM     12  C   UNL     1       1.347   3.600  18.395  0.00  0.00    +0.000 A 
ATOM     13  C   UNL     1       2.106   2.435  18.448  0.00  0.00    +0.000 A 
ATOM     14  C   UNL     1       3.438   2.429  18.046  0.00  0.00    +0.000 A 
BRANCH  13  15
ATOM     15  O   UNL     1       1.573   1.263  18.899  0.00  0.00    +0.000 OA
ATOM     16  H   UNL     1       0.684   1.436  19.251  0.00  0.00    +0.000 HD
ENDBRANCH  13  15
ENDBRANCH   8   9
ENDBRANCH   5   8
BRANCH   6  17
ATOM     17  C   UNL     1       5.730   5.567  15.079  0.00  0.00    +0.000 C 
BRANCH  17  18
ATOM     18  C   UNL     1       6.641   4.793  14.153  0.00  0.00    +0.000 C 
ATOM     19  O   UNL     1       6.377   3.690  13.694  0.00  0.00    +0.000 OA
BRANCH  18  20
ATOM     20  O   UNL     1       7.785   5.446  13.825  0.00  0.00    +0.000 OA
ATOM     21  H   UNL     1       7.666   6.414  13.758  0.00  0.00    +0.000 HD
ENDBRANCH  18  20
ENDBRANCH  17  18
ENDBRANCH   6  17
TORSDOF 6
ENDMDL
MODEL 6
REMARK VINA RESULT:      -7.0      2.764      5.994
REMARK  Name = 
REMARK  7 active torsions:
REMARK  status: ('A' for Active; 'I' for Inactive)
REMARK    1  A    between atoms: C_1  and  C_2
REMARK    2  A    between atoms: C_5  and  O_6
REMARK    3  A    between atoms: O_6  and  C_7
REMARK    4  A    between atoms: C_11  and  O_12
REMARK    5  A    between atoms: C_14  and  C_15
REMARK    6  A    between atoms: C_15  and  C_16
REMARK    7  A    between atoms: C_16  and  O_18
REMARK                            x       y       z     vdW  Elec       q    Type
REMARK                         _______ _______ _______ _____ _____    ______ ____
ROOT
ATOM      1  C   UNL     1       8.366   7.711  18.400  0.00  0.00    +0.000 C 
ATOM      2  C   UNL     1       7.347   6.626  18.220  0.00  0.00    +0.000 A 
ATOM      3  C   UNL     1       6.913   5.869  19.309  0.00  0.00    +0.000 A 
ATOM      4  C   UNL     1       6.005   4.831  19.124  0.00  0.00    +0.000 A 
ATOM      5  C   UNL     1       5.547   4.505  17.840  0.00  0.00    +0.000 A 
ATOM      6  C   UNL     1       5.896   5.313  16.743  0.00  0.00    +0.000 A 
ATOM      7  C   UNL     1       6.826   6.352  16.947  0.00  0.00    +0.000 A 
ENDROOT
BRANCH   5   8
ATOM      8  O   UNL     1       4.713   3.427  17.619  0.00  0.00    +0.000 OA
BRANCH   8   9
ATOM      9  C   UNL     1       3.631   3.230  18.456  0.00  0.00    +0.000 A 
ATOM     10  C   UNL     1       2.368   3.333  17.866  0.00  0.00    +0.000 A 
ATOM     11  C   UNL     1       1.215   3.153  18.635  0.00  0.00    +0.000 A 
ATOM     12  C   UNL     1       1.320   2.864  19.996  0.00  0.00    +0.000 A 
ATOM     13  C   UNL     1       2.581   2.736  20.571  0.00  0.00    +0.000 A 
ATOM     14  C   UNL     1       3.735   2.897  19.810  0.00  0.00    +0.000 A 
BRANCH  13  15
ATOM     15  O   UNL     1       2.729   2.455  21.898  0.00  0.00    +0.000 OA
ATOM     16  H   UNL     1       2.478   3.238  22.415  0.00  0.00    +0.000 HD
ENDBRANCH  13  15
ENDBRANCH   8   9
ENDBRANCH   5   8
BRANCH   6  17
ATOM     17  C   UNL     1       5.359   5.025  15.353  0.00  0.00    +0.000 C 
BRANCH  17  18
ATOM     18  C   UNL     1       6.389   4.575  14.341  0.00  0.00    +0.000 C 
ATOM     19  O   UNL     1       7.248   5.305  13.865  0.00  0.00    +0.000 OA
BRANCH  18  20
ATOM     20  O   UNL     1       6.317   3.258  14.023  0.00  0.00    +0.000 OA
ATOM     21  H   UNL     1       5.400   2.921  13.994  0.00  0.00    +0.000 HD
ENDBRANCH  18  20
ENDBRANCH  17  18
ENDBRANCH   6  17
TORSDOF 6
ENDMDL
MODEL 7
REMARK VINA RESULT:      -6.9      1.433      6.161
REMARK  Name = 
REMARK  7 active torsions:
REMARK  status: ('A' for Active; 'I' for Inactive)
REMARK    1  A    between atoms: C_1  and  C_2
REMARK    2  A    between atoms: C_5  and  O_6
REMARK    3  A    between atoms: O_6  and  C_7
REMARK    4  A    between atoms: C_11  and  O_12
REMARK    5  A    between atoms: C_14  and  C_15
REMARK    6  A    between atoms: C_15  and  C_16
REMARK    7  A    between atoms: C_16  and  O_18
REMARK                            x       y       z     vdW  Elec       q    Type
REMARK                         _______ _______ _______ _____ _____    ______ ____
ROOT
ATOM      1  C   UNL     1       6.214   4.262  13.524  0.00  0.00    +0.000 C 
ATOM      2  C   UNL     1       5.999   4.164  15.005  0.00  0.00    +0.000 A 
ATOM      3  C   UNL     1       4.740   3.855  15.522  0.00  0.00    +0.000 A 
ATOM      4  C   UNL     1       4.538   3.815  16.898  0.00  0.00    +0.000 A 
ATOM      5  C   UNL     1       5.582   4.126  17.781  0.00  0.00    +0.000 A 
ATOM      6  C   UNL     1       6.880   4.347  17.285  0.00  0.00    +0.000 A 
ATOM      7  C   UNL     1       7.063   4.395  15.889  0.00  0.00    +0.000 A 
ENDROOT
BRANCH   5   8
ATOM      8  O   UNL     1       5.386   4.178  19.147  0.00  0.00    +0.000 OA
BRANCH   8   9
ATOM      9  C   UNL     1       4.119   4.431  19.635  0.00  0.00    +0.000 A 
ATOM     10  C   UNL     1       3.624   5.721  19.425  0.00  0.00    +0.000 A 
ATOM     11  C   UNL     1       2.352   6.071  19.887  0.00  0.00    +0.000 A 
ATOM     12  C   UNL     1       1.568   5.131  20.557  0.00  0.00    +0.000 A 
ATOM     13  C   UNL     1       2.056   3.841  20.739  0.00  0.00    +0.000 A 
ATOM     14  C   UNL     1       3.314   3.478  20.267  0.00  0.00    +0.000 A 
BRANCH  13  15
ATOM     15  O   UNL     1       1.323   2.891  21.388  0.00  0.00    +0.000 OA
ATOM     16  H   UNL     1       0.625   3.330  21.903  0.00  0.00    +0.000 HD
ENDBRANCH  13  15
ENDBRANCH   8   9
ENDBRANCH   5   8
BRANCH   6  17
ATOM     17  C   UNL     1       8.043   4.617  18.221  0.00  0.00    +0.000 C 
BRANCH  17  18
ATOM     18  C   UNL     1       7.928   5.876  19.051  0.00  0.00    +0.000 C 
ATOM     19  O   UNL     1       7.991   7.008  18.592  0.00  0.00    +0.000 OA
BRANCH  18  20
ATOM     20  O   UNL     1       7.702   5.654  20.371  0.00  0.00    +0.000 OA
ATOM     21  H   UNL     1       8.524   5.500  20.878  0.00  0.00    +0.000 HD
ENDBRANCH  18  20
ENDBRANCH  17  18
ENDBRANCH   6  17
TORSDOF 6
ENDMDL
MODEL 8
REMARK VINA RESULT:      -6.9      1.411      1.906
REMARK  Name = 
REMARK  7 active torsions:
REMARK  status: ('A' for Active; 'I' for Inactive)
REMARK    1  A    between atoms: C_1  and  C_2
REMARK    2  A    between atoms: C_5  and  O_6
REMARK    3  A    between atoms: O_6  and  C_7
REMARK    4  A    between atoms: C_11  and  O_12
REMARK    5  A    between atoms: C_14  and  C_15
REMARK    6  A    between atoms: C_15  and  C_16
REMARK    7  A    between atoms: C_16  and  O_18
REMARK                            x       y       z     vdW  Elec       q    Type
REMARK                         _______ _______ _______ _____ _____    ______ ____
ROOT
ATOM      1  C   UNL     1       1.149   8.105  21.181  0.00  0.00    +0.000 C 
ATOM      2  C   UNL     1       1.823   7.168  20.224  0.00  0.00    +0.000 A 
ATOM      3  C   UNL     1       2.314   7.631  19.002  0.00  0.00    +0.000 A 
ATOM      4  C   UNL     1       2.893   6.745  18.098  0.00  0.00    +0.000 A 
ATOM      5  C   UNL     1       2.953   5.375  18.383  0.00  0.00    +0.000 A 
ATOM      6  C   UNL     1       2.552   4.900  19.645  0.00  0.00    +0.000 A 
ATOM      7  C   UNL     1       1.958   5.809  20.543  0.00  0.00    +0.000 A 
ENDROOT
BRANCH   5   8
ATOM      8  O   UNL     1       3.444   4.464  17.468  0.00  0.00    +0.000 OA
BRANCH   8   9
ATOM      9  C   UNL     1       4.769   4.544  17.084  0.00  0.00    +0.000 A 
ATOM     10  C   UNL     1       5.712   4.535  18.115  0.00  0.00    +0.000 A 
ATOM     11  C   UNL     1       7.076   4.616  17.823  0.00  0.00    +0.000 A 
ATOM     12  C   UNL     1       7.504   4.702  16.498  0.00  0.00    +0.000 A 
ATOM     13  C   UNL     1       6.561   4.684  15.474  0.00  0.00    +0.000 A 
ATOM     14  C   UNL     1       5.201   4.585  15.755  0.00  0.00    +0.000 A 
BRANCH  13  15
ATOM     15  O   UNL     1       6.936   4.766  14.165  0.00  0.00    +0.000 OA
ATOM     16  H   UNL     1       7.828   4.394  14.069  0.00  0.00    +0.000 HD
ENDBRANCH  13  15
ENDBRANCH   8   9
ENDBRANCH   5   8
BRANCH   6  17
ATOM     17  C   UNL     1       2.671   3.431  20.007  0.00  0.00    +0.000 C 
BRANCH  17  18
ATOM     18  C   UNL     1       1.646   2.522  19.367  0.00  0.00    +0.000 C 
ATOM     19  O   UNL     1       0.444   2.749  19.347  0.00  0.00    +0.000 OA
BRANCH  18  20
ATOM     20  O   UNL     1       2.174   1.427  18.763  0.00  0.00    +0.000 OA
ATOM     21  H   UNL     1       2.552   1.622  17.882  0.00  0.00    +0.000 HD
ENDBRANCH  18  20
ENDBRANCH  17  18
ENDBRANCH   6  17
TORSDOF 6
ENDMDL
MODEL 9
REMARK VINA RESULT:      -6.8      2.699      6.060
REMARK  Name = 
REMARK  7 active torsions:
REMARK  status: ('A' for Active; 'I' for Inactive)
REMARK    1  A    between atoms: C_1  and  C_2
REMARK    2  A    between atoms: C_5  and  O_6
REMARK    3  A    between atoms: O_6  and  C_7
REMARK    4  A    between atoms: C_11  and  O_12
REMARK    5  A    between atoms: C_14  and  C_15
REMARK    6  A    between atoms: C_15  and  C_16
REMARK    7  A    between atoms: C_16  and  O_18
REMARK                            x       y       z     vdW  Elec       q    Type
REMARK                         _______ _______ _______ _____ _____    ______ ____
ROOT
ATOM      1  C   UNL     1       7.467   4.337  12.559  0.00  0.00    +0.000 C 
ATOM      2  C   UNL     1       6.680   4.538  13.819  0.00  0.00    +0.000 A 
ATOM      3  C   UNL     1       5.354   4.112  13.905  0.00  0.00    +0.000 A 
ATOM      4  C   UNL     1       4.615   4.348  15.061  0.00  0.00    +0.000 A 
ATOM      5  C   UNL     1       5.177   5.051  16.134  0.00  0.00    +0.000 A 
ATOM      6  C   UNL     1       6.538   5.405  16.108  0.00  0.00    +0.000 A 
ATOM      7  C   UNL     1       7.267   5.170  14.925  0.00  0.00    +0.000 A 
ENDROOT
BRANCH   5   8
ATOM      8  O   UNL     1       4.440   5.373  17.257  0.00  0.00    +0.000 OA
BRANCH   8   9
ATOM      9  C   UNL     1       3.937   4.356  18.046  0.00  0.00    +0.000 A 
ATOM     10  C   UNL     1       2.562   4.127  17.954  0.00  0.00    +0.000 A 
ATOM     11  C   UNL     1       1.963   3.120  18.717  0.00  0.00    +0.000 A 
ATOM     12  C   UNL     1       2.738   2.335  19.571  0.00  0.00    +0.000 A 
ATOM     13  C   UNL     1       4.111   2.550  19.637  0.00  0.00    +0.000 A 
ATOM     14  C   UNL     1       4.719   3.539  18.868  0.00  0.00    +0.000 A 
BRANCH  13  15
ATOM     15  O   UNL     1       4.906   1.806  20.459  0.00  0.00    +0.000 OA
ATOM     16  H   UNL     1       4.347   1.353  21.111  0.00  0.00    +0.000 HD
ENDBRANCH  13  15
ENDBRANCH   8   9
ENDBRANCH   5   8
BRANCH   6  17
ATOM     17  C   UNL     1       7.191   6.106  17.284  0.00  0.00    +0.000 C 
BRANCH  17  18
ATOM     18  C   UNL     1       7.793   5.193  18.330  0.00  0.00    +0.000 C 
ATOM     19  O   UNL     1       7.789   5.429  19.530  0.00  0.00    +0.000 OA
BRANCH  18  20
ATOM     20  O   UNL     1       8.313   4.044  17.831  0.00  0.00    +0.000 OA
ATOM     21  H   UNL     1       9.279   3.971  17.965  0.00  0.00    +0.000 HD
ENDBRANCH  18  20
ENDBRANCH  17  18
ENDBRANCH   6  17
TORSDOF 6
ENDMDL
