MODEL 1
REMARK VINA RESULT:      -7.1      0.000      0.000
REMARK  Name = 
REMARK  12 active torsions:
REMARK  status: ('A' for Active; 'I' for Inactive)
REMARK    1  A    between atoms: C_1  and  C_2
REMARK    2  A    between atoms: C_2  and  C_3
REMARK    3  A    between atoms: C_2  and  O_4
REMARK    4  A    between atoms: O_4  and  C_5
REMARK    5  A    between atoms: C_8  and  N_9
REMARK    6  A    between atoms: N_14  and  C_15
REMARK    7  A    between atoms: C_15  and  C_16
REMARK    8  A    between atoms: C_16  and  N_17
REMARK    9  A    between atoms: N_17  and  C_18
REMARK   10  A    between atoms: N_17  and  C_19
REMARK   11  A    between atoms: N_22  and  C_23
REMARK   12  A    between atoms: C_23  and  C_24
REMARK                            x       y       z     vdW  Elec       q    Type
REMARK                         _______ _______ _______ _____ _____    ______ ____
ROOT
ATOM      1  N   UNL     1       0.129  11.069  18.377  0.00  0.00    +0.000 N 
ATOM      2  C   UNL     1       0.564  12.318  18.750  0.00  0.00    +0.000 A 
ATOM      3  N   UNL     1       1.823  12.560  18.784  0.00  0.00    +0.000 NA
ATOM      4  C   UNL     1       2.292  13.788  19.111  0.00  0.00    +0.000 A 
ATOM      5  O   UNL     1       3.465  13.948  19.420  0.00  0.00    +0.000 OA
ATOM      6  N   UNL     1       1.395  14.838  19.113  0.00  0.00    +0.000 N 
ATOM      7  C   UNL     1       0.051  14.609  19.216  0.00  0.00    +0.000 A 
ATOM      8  O   UNL     1      -0.751  15.508  19.481  0.00  0.00    +0.000 OA
ATOM      9  N   UNL     1      -0.364  13.295  19.039  0.00  0.00    +0.000 N 
ATOM     10  H   UNL     1      -0.849  10.937  18.149  0.00  0.00    +0.000 HD
ENDROOT
BRANCH   1  14
ATOM     11  C   UNL     1       2.233   7.577  19.455  0.00  0.00    +0.000 A 
ATOM     12  C   UNL     1       2.250   7.997  18.125  0.00  0.00    +0.000 A 
ATOM     13  C   UNL     1       1.505   9.114  17.731  0.00  0.00    +0.000 A 
ATOM     14  C   UNL     1       0.767   9.845  18.669  0.00  0.00    +0.000 A 
ATOM     15  C   UNL     1       0.676   9.360  19.972  0.00  0.00    +0.000 A 
ATOM     16  C   UNL     1       1.434   8.264  20.366  0.00  0.00    +0.000 A 
ATOM     17  F   UNL     1       1.413   7.944  21.667  0.00  0.00    +0.000 F 
BRANCH  11  18
ATOM     18  O   UNL     1       3.068   6.537  19.762  0.00  0.00    +0.000 OA
BRANCH  18  20
ATOM     19  C   UNL     1       4.343   4.674  19.024  0.00  0.00    +0.000 C 
ATOM     20  C   UNL     1       3.016   5.404  18.885  0.00  0.00    +0.000 C 
ATOM     21  C   UNL     1       1.852   4.501  19.282  0.00  0.00    +0.000 C 
ENDBRANCH  18  20
ENDBRANCH  11  18
ENDBRANCH   1  14
BRANCH   6  22
ATOM     22  C   UNL     1       1.931  16.181  19.285  0.00  0.00    +0.000 C 
BRANCH  22  23
ATOM     23  C   UNL     1       2.222  16.896  17.947  0.00  0.00    +0.000 C 
BRANCH  23  24
ATOM     24  N   UNL     1       1.692  18.273  17.827  0.00  0.00    +0.000 NA
ATOM     25  C   UNL     1       0.849  18.437  16.641  0.00  0.00    +0.000 C 
ATOM     26  C   UNL     1       0.913  18.595  19.030  0.00  0.00    +0.000 C 
ENDBRANCH  23  24
ENDBRANCH  22  23
ENDBRANCH   6  22
BRANCH   9  27
ATOM     27  C   UNL     1      -1.793  13.022  19.189  0.00  0.00    +0.000 C 
BRANCH  27  28
ATOM     28  C   UNL     1      -2.280  12.958  20.630  0.00  0.00    +0.000 A 
ATOM     29  C   UNL     1      -1.641  12.185  21.611  0.00  0.00    +0.000 A 
ATOM     30  C   UNL     1      -2.226  12.003  22.866  0.00  0.00    +0.000 A 
ATOM     31  C   UNL     1      -3.441  12.614  23.160  0.00  0.00    +0.000 A 
ATOM     32 CL   UNL     1      -4.219  12.286  24.658  0.00  0.00    +0.000 Cl
ATOM     33  C   UNL     1      -4.044  13.459  22.234  0.00  0.00    +0.000 A 
ATOM     34  C   UNL     1      -3.463  13.637  20.976  0.00  0.00    +0.000 A 
ENDBRANCH  27  28
ENDBRANCH   9  27
TORSDOF 8
ENDMDL
MODEL 2
REMARK VINA RESULT:      -6.9      3.611      5.887
REMARK  Name = 
REMARK  12 active torsions:
REMARK  status: ('A' for Active; 'I' for Inactive)
REMARK    1  A    between atoms: C_1  and  C_2
REMARK    2  A    between atoms: C_2  and  C_3
REMARK    3  A    between atoms: C_2  and  O_4
REMARK    4  A    between atoms: O_4  and  C_5
REMARK    5  A    between atoms: C_8  and  N_9
REMARK    6  A    between atoms: N_14  and  C_15
REMARK    7  A    between atoms: C_15  and  C_16
REMARK    8  A    between atoms: C_16  and  N_17
REMARK    9  A    between atoms: N_17  and  C_18
REMARK   10  A    between atoms: N_17  and  C_19
REMARK   11  A    between atoms: N_22  and  C_23
REMARK   12  A    between atoms: C_23  and  C_24
REMARK                            x       y       z     vdW  Elec       q    Type
REMARK                         _______ _______ _______ _____ _____    ______ ____
ROOT
ATOM      1  N   UNL     1       0.791   9.495  19.965  0.00  0.00    +0.000 N 
ATOM      2  C   UNL     1      -0.261  10.178  19.403  0.00  0.00    +0.000 A 
ATOM      3  N   UNL     1      -0.992   9.593  18.526  0.00  0.00    +0.000 NA
ATOM      4  C   UNL     1      -2.060  10.219  17.975  0.00  0.00    +0.000 A 
ATOM      5  O   UNL     1      -2.579   9.787  16.954  0.00  0.00    +0.000 OA
ATOM      6  N   UNL     1      -2.515  11.371  18.584  0.00  0.00    +0.000 N 
ATOM      7  C   UNL     1      -1.701  12.089  19.416  0.00  0.00    +0.000 A 
ATOM      8  O   UNL     1      -1.972  13.241  19.768  0.00  0.00    +0.000 OA
ATOM      9  N   UNL     1      -0.529  11.463  19.822  0.00  0.00    +0.000 N 
ATOM     10  H   UNL     1       1.235   9.872  20.794  0.00  0.00    +0.000 HD
ENDROOT
BRANCH   1  14
ATOM     11  C   UNL     1       3.475   6.725  18.260  0.00  0.00    +0.000 A 
ATOM     12  C   UNL     1       3.131   7.870  17.540  0.00  0.00    +0.000 A 
ATOM     13  C   UNL     1       2.191   8.769  18.056  0.00  0.00    +0.000 A 
ATOM     14  C   UNL     1       1.615   8.554  19.313  0.00  0.00    +0.000 A 
ATOM     15  C   UNL     1       1.889   7.360  19.978  0.00  0.00    +0.000 A 
ATOM     16  C   UNL     1       2.838   6.479  19.474  0.00  0.00    +0.000 A 
ATOM     17  F   UNL     1       3.160   5.427  20.238  0.00  0.00    +0.000 F 
BRANCH  11  18
ATOM     18  O   UNL     1       4.472   5.960  17.720  0.00  0.00    +0.000 OA
BRANCH  18  20
ATOM     19  C   UNL     1       6.660   6.814  17.365  0.00  0.00    +0.000 C 
ATOM     20  C   UNL     1       5.294   6.596  16.732  0.00  0.00    +0.000 C 
ATOM     21  C   UNL     1       5.399   5.704  15.499  0.00  0.00    +0.000 C 
ENDBRANCH  18  20
ENDBRANCH  11  18
ENDBRANCH   1  14
BRANCH   6  22
ATOM     22  C   UNL     1      -3.765  11.940  18.102  0.00  0.00    +0.000 C 
BRANCH  22  23
ATOM     23  C   UNL     1      -4.973  11.612  19.008  0.00  0.00    +0.000 C 
BRANCH  23  24
ATOM     24  N   UNL     1      -6.163  11.067  18.317  0.00  0.00    +0.000 NA
ATOM     25  C   UNL     1      -6.813  10.009  19.091  0.00  0.00    +0.000 C 
ATOM     26  C   UNL     1      -7.119  12.156  18.075  0.00  0.00    +0.000 C 
ENDBRANCH  23  24
ENDBRANCH  22  23
ENDBRANCH   6  22
BRANCH   9  27
ATOM     27  C   UNL     1       0.376  12.231  20.677  0.00  0.00    +0.000 C 
BRANCH  27  28
ATOM     28  C   UNL     1       1.444  13.016  19.928  0.00  0.00    +0.000 A 
ATOM     29  C   UNL     1       1.808  12.726  18.604  0.00  0.00    +0.000 A 
ATOM     30  C   UNL     1       2.918  13.339  18.020  0.00  0.00    +0.000 A 
ATOM     31  C   UNL     1       3.659  14.267  18.746  0.00  0.00    +0.000 A 
ATOM     32 CL   UNL     1       5.097  14.925  18.069  0.00  0.00    +0.000 Cl
ATOM     33  C   UNL     1       3.260  14.638  20.025  0.00  0.00    +0.000 A 
ATOM     34  C   UNL     1       2.152  14.020  20.613  0.00  0.00    +0.000 A 
ENDBRANCH  27  28
ENDBRANCH   9  27
TORSDOF 8
ENDMDL
MODEL 3
REMARK VINA RESULT:      -6.8      1.166      1.763
REMARK  Name = 
REMARK  12 active torsions:
REMARK  status: ('A' for Active; 'I' for Inactive)
REMARK    1  A    between atoms: C_1  and  C_2
REMARK    2  A    between atoms: C_2  and  C_3
REMARK    3  A    between atoms: C_2  and  O_4
REMARK    4  A    between atoms: O_4  and  C_5
REMARK    5  A    between atoms: C_8  and  N_9
REMARK    6  A    between atoms: N_14  and  C_15
REMARK    7  A    between atoms: C_15  and  C_16
REMARK    8  A    between atoms: C_16  and  N_17
REMARK    9  A    between atoms: N_17  and  C_18
REMARK   10  A    between atoms: N_17  and  C_19
REMARK   11  A    between atoms: N_22  and  C_23
REMARK   12  A    between atoms: C_23  and  C_24
REMARK                            x       y       z     vdW  Elec       q    Type
REMARK                         _______ _______ _______ _____ _____    ______ ____
ROOT
ATOM      1  N   UNL     1       0.389  11.413  18.647  0.00  0.00    +0.000 N 
ATOM      2  C   UNL     1       0.775  12.551  19.313  0.00  0.00    +0.000 A 
ATOM      3  N   UNL     1       2.008  12.702  19.634  0.00  0.00    +0.000 NA
ATOM      4  C   UNL     1       2.436  13.825  20.259  0.00  0.00    +0.000 A 
ATOM      5  O   UNL     1       3.527  13.855  20.813  0.00  0.00    +0.000 OA
ATOM      6  N   UNL     1       1.588  14.915  20.274  0.00  0.00    +0.000 N 
ATOM      7  C   UNL     1       0.245  14.758  20.072  0.00  0.00    +0.000 A 
ATOM      8  O   UNL     1      -0.568  15.649  20.332  0.00  0.00    +0.000 OA
ATOM      9  N   UNL     1      -0.164  13.522  19.586  0.00  0.00    +0.000 N 
ATOM     10  H   UNL     1      -0.527  11.384  18.213  0.00  0.00    +0.000 HD
ENDROOT
BRANCH   1  14
ATOM     11  C   UNL     1       2.173   7.674  19.435  0.00  0.00    +0.000 A 
ATOM     12  C   UNL     1       2.278   8.222  18.155  0.00  0.00    +0.000 A 
ATOM     13  C   UNL     1       1.637   9.428  17.852  0.00  0.00    +0.000 A 
ATOM     14  C   UNL     1       0.919  10.120  18.834  0.00  0.00    +0.000 A 
ATOM     15  C   UNL     1       0.736   9.516  20.077  0.00  0.00    +0.000 A 
ATOM     16  C   UNL     1       1.391   8.329  20.383  0.00  0.00    +0.000 A 
ATOM     17  F   UNL     1       1.290   7.885  21.642  0.00  0.00    +0.000 F 
BRANCH  11  18
ATOM     18  O   UNL     1       2.913   6.546  19.662  0.00  0.00    +0.000 OA
BRANCH  18  20
ATOM     19  C   UNL     1       2.906   4.494  18.465  0.00  0.00    +0.000 C 
ATOM     20  C   UNL     1       2.213   5.299  19.555  0.00  0.00    +0.000 C 
ATOM     21  C   UNL     1       2.264   4.565  20.892  0.00  0.00    +0.000 C 
ENDBRANCH  18  20
ENDBRANCH  11  18
ENDBRANCH   1  14
BRANCH   6  22
ATOM     22  C   UNL     1       2.116  16.172  20.784  0.00  0.00    +0.000 C 
BRANCH  22  23
ATOM     23  C   UNL     1       2.495  17.170  19.666  0.00  0.00    +0.000 C 
BRANCH  23  24
ATOM     24  N   UNL     1       3.945  17.398  19.474  0.00  0.00    +0.000 NA
ATOM     25  C   UNL     1       4.697  17.244  20.721  0.00  0.00    +0.000 C 
ATOM     26  C   UNL     1       4.452  16.449  18.474  0.00  0.00    +0.000 C 
ENDBRANCH  23  24
ENDBRANCH  22  23
ENDBRANCH   6  22
BRANCH   9  27
ATOM     27  C   UNL     1      -1.601  13.320  19.404  0.00  0.00    +0.000 C 
BRANCH  27  28
ATOM     28  C   UNL     1      -2.353  12.929  20.669  0.00  0.00    +0.000 A 
ATOM     29  C   UNL     1      -3.685  13.302  20.903  0.00  0.00    +0.000 A 
ATOM     30  C   UNL     1      -4.275  13.089  22.150  0.00  0.00    +0.000 A 
ATOM     31  C   UNL     1      -3.547  12.478  23.167  0.00  0.00    +0.000 A 
ATOM     32 CL   UNL     1      -4.233  12.332  24.737  0.00  0.00    +0.000 Cl
ATOM     33  C   UNL     1      -2.257  12.017  22.926  0.00  0.00    +0.000 A 
ATOM     34  C   UNL     1      -1.664  12.234  21.680  0.00  0.00    +0.000 A 
ENDBRANCH  27  28
ENDBRANCH   9  27
TORSDOF 8
ENDMDL
MODEL 4
REMARK VINA RESULT:      -6.8      1.410      1.982
REMARK  Name = 
REMARK  12 active torsions:
REMARK  status: ('A' for Active; 'I' for Inactive)
REMARK    1  A    between atoms: C_1  and  C_2
REMARK    2  A    between atoms: C_2  and  C_3
REMARK    3  A    between atoms: C_2  and  O_4
REMARK    4  A    between atoms: O_4  and  C_5
REMARK    5  A    between atoms: C_8  and  N_9
REMARK    6  A    between atoms: N_14  and  C_15
REMARK    7  A    between atoms: C_15  and  C_16
REMARK    8  A    between atoms: C_16  and  N_17
REMARK    9  A    between atoms: N_17  and  C_18
REMARK   10  A    between atoms: N_17  and  C_19
REMARK   11  A    between atoms: N_22  and  C_23
REMARK   12  A    between atoms: C_23  and  C_24
REMARK                            x       y       z     vdW  Elec       q    Type
REMARK                         _______ _______ _______ _____ _____    ______ ____
ROOT
ATOM      1  N   UNL     1       0.570  10.775  18.385  0.00  0.00    +0.000 N 
ATOM      2  C   UNL     1       0.865  12.072  18.728  0.00  0.00    +0.000 A 
ATOM      3  N   UNL     1       2.088  12.403  18.932  0.00  0.00    +0.000 NA
ATOM      4  C   UNL     1       2.426  13.679  19.238  0.00  0.00    +0.000 A 
ATOM      5  O   UNL     1       3.527  13.940  19.705  0.00  0.00    +0.000 OA
ATOM      6  N   UNL     1       1.478  14.662  19.033  0.00  0.00    +0.000 N 
ATOM      7  C   UNL     1       0.150  14.345  18.953  0.00  0.00    +0.000 A 
ATOM      8  O   UNL     1      -0.736  15.200  19.032  0.00  0.00    +0.000 OA
ATOM      9  N   UNL     1      -0.153  12.996  18.808  0.00  0.00    +0.000 N 
ATOM     10  H   UNL     1      -0.353  10.561  18.024  0.00  0.00    +0.000 HD
ENDROOT
BRANCH   1  14
ATOM     11  C   UNL     1       2.368   7.147  19.559  0.00  0.00    +0.000 A 
ATOM     12  C   UNL     1       1.614   7.864  20.489  0.00  0.00    +0.000 A 
ATOM     13  C   UNL     1       1.065   9.103  20.143  0.00  0.00    +0.000 A 
ATOM     14  C   UNL     1       1.228   9.619  18.852  0.00  0.00    +0.000 A 
ATOM     15  C   UNL     1       2.065   8.945  17.964  0.00  0.00    +0.000 A 
ATOM     16  C   UNL     1       2.592   7.705  18.303  0.00  0.00    +0.000 A 
ATOM     17  F   UNL     1       3.263   7.046  17.349  0.00  0.00    +0.000 F 
BRANCH  11  18
ATOM     18  O   UNL     1       2.781   5.904  19.958  0.00  0.00    +0.000 OA
BRANCH  18  20
ATOM     19  C   UNL     1       1.624   4.175  18.812  0.00  0.00    +0.000 C 
ATOM     20  C   UNL     1       1.751   4.922  20.131  0.00  0.00    +0.000 C 
ATOM     21  C   UNL     1       2.133   3.971  21.262  0.00  0.00    +0.000 C 
ENDBRANCH  18  20
ENDBRANCH  11  18
ENDBRANCH   1  14
BRANCH   6  22
ATOM     22  C   UNL     1       1.898  16.047  19.188  0.00  0.00    +0.000 C 
BRANCH  22  23
ATOM     23  C   UNL     1       1.965  16.501  20.663  0.00  0.00    +0.000 C 
BRANCH  23  24
ATOM     24  N   UNL     1       1.129  17.672  21.012  0.00  0.00    +0.000 NA
ATOM     25  C   UNL     1       0.665  18.390  19.825  0.00  0.00    +0.000 C 
ATOM     26  C   UNL     1      -0.027  17.220  21.797  0.00  0.00    +0.000 C 
ENDBRANCH  23  24
ENDBRANCH  22  23
ENDBRANCH   6  22
BRANCH   9  27
ATOM     27  C   UNL     1      -1.569  12.633  18.763  0.00  0.00    +0.000 C 
BRANCH  27  28
ATOM     28  C   UNL     1      -2.222  12.454  20.127  0.00  0.00    +0.000 A 
ATOM     29  C   UNL     1      -3.559  12.804  20.377  0.00  0.00    +0.000 A 
ATOM     30  C   UNL     1      -4.062  12.804  21.679  0.00  0.00    +0.000 A 
ATOM     31  C   UNL     1      -3.242  12.430  22.740  0.00  0.00    +0.000 A 
ATOM     32 CL   UNL     1      -3.826  12.553  24.353  0.00  0.00    +0.000 Cl
ATOM     33  C   UNL     1      -1.944  11.990  22.502  0.00  0.00    +0.000 A 
ATOM     34  C   UNL     1      -1.438  11.995  21.200  0.00  0.00    +0.000 A 
ENDBRANCH  27  28
ENDBRANCH   9  27
TORSDOF 8
ENDMDL
MODEL 5
REMARK VINA RESULT:      -6.7      1.375      1.827
REMARK  Name = 
REMARK  12 active torsions:
REMARK  status: ('A' for Active; 'I' for Inactive)
REMARK    1  A    between atoms: C_1  and  C_2
REMARK    2  A    between atoms: C_2  and  C_3
REMARK    3  A    between atoms: C_2  and  O_4
REMARK    4  A    between atoms: O_4  and  C_5
REMARK    5  A    between atoms: C_8  and  N_9
REMARK    6  A    between atoms: N_14  and  C_15
REMARK    7  A    between atoms: C_15  and  C_16
REMARK    8  A    between atoms: C_16  and  N_17
REMARK    9  A    between atoms: N_17  and  C_18
REMARK   10  A    between atoms: N_17  and  C_19
REMARK   11  A    between atoms: N_22  and  C_23
REMARK   12  A    between atoms: C_23  and  C_24
REMARK                            x       y       z     vdW  Elec       q    Type
REMARK                         _______ _______ _______ _____ _____    ______ ____
ROOT
ATOM      1  N   UNL     1       0.516  10.626  18.399  0.00  0.00    +0.000 N 
ATOM      2  C   UNL     1       0.894  11.935  18.584  0.00  0.00    +0.000 A 
ATOM      3  N   UNL     1       2.143  12.231  18.595  0.00  0.00    +0.000 NA
ATOM      4  C   UNL     1       2.556  13.513  18.739  0.00  0.00    +0.000 A 
ATOM      5  O   UNL     1       3.718  13.765  19.032  0.00  0.00    +0.000 OA
ATOM      6  N   UNL     1       1.619  14.513  18.575  0.00  0.00    +0.000 N 
ATOM      7  C   UNL     1       0.284  14.246  18.699  0.00  0.00    +0.000 A 
ATOM      8  O   UNL     1      -0.558  15.140  18.818  0.00  0.00    +0.000 OA
ATOM      9  N   UNL     1      -0.076  12.904  18.715  0.00  0.00    +0.000 N 
ATOM     10  H   UNL     1      -0.453  10.421  18.184  0.00  0.00    +0.000 HD
ENDROOT
BRANCH   1  14
ATOM     11  C   UNL     1       2.379   7.043  19.609  0.00  0.00    +0.000 A 
ATOM     12  C   UNL     1       1.634   7.769  20.538  0.00  0.00    +0.000 A 
ATOM     13  C   UNL     1       1.063   8.994  20.179  0.00  0.00    +0.000 A 
ATOM     14  C   UNL     1       1.197   9.488  18.876  0.00  0.00    +0.000 A 
ATOM     15  C   UNL     1       2.025   8.806  17.986  0.00  0.00    +0.000 A 
ATOM     16  C   UNL     1       2.573   7.579  18.338  0.00  0.00    +0.000 A 
ATOM     17  F   UNL     1       3.234   6.910  17.384  0.00  0.00    +0.000 F 
BRANCH  11  18
ATOM     18  O   UNL     1       2.814   5.813  20.024  0.00  0.00    +0.000 OA
BRANCH  18  20
ATOM     19  C   UNL     1       3.217   3.663  19.098  0.00  0.00    +0.000 C 
ATOM     20  C   UNL     1       2.144   4.681  19.454  0.00  0.00    +0.000 C 
ATOM     21  C   UNL     1       1.159   4.104  20.467  0.00  0.00    +0.000 C 
ENDBRANCH  18  20
ENDBRANCH  11  18
ENDBRANCH   1  14
BRANCH   6  22
ATOM     22  C   UNL     1       2.098  15.887  18.550  0.00  0.00    +0.000 C 
BRANCH  22  23
ATOM     23  C   UNL     1       2.224  16.514  19.956  0.00  0.00    +0.000 C 
BRANCH  23  24
ATOM     24  N   UNL     1       3.049  17.739  20.041  0.00  0.00    +0.000 NA
ATOM     25  C   UNL     1       2.604  18.631  21.113  0.00  0.00    +0.000 C 
ATOM     26  C   UNL     1       4.450  17.361  20.267  0.00  0.00    +0.000 C 
ENDBRANCH  23  24
ENDBRANCH  22  23
ENDBRANCH   6  22
BRANCH   9  27
ATOM     27  C   UNL     1      -1.496  12.597  18.890  0.00  0.00    +0.000 C 
BRANCH  27  28
ATOM     28  C   UNL     1      -1.984  12.650  20.331  0.00  0.00    +0.000 A 
ATOM     29  C   UNL     1      -1.315  12.004  21.382  0.00  0.00    +0.000 A 
ATOM     30  C   UNL     1      -1.896  11.918  22.649  0.00  0.00    +0.000 A 
ATOM     31  C   UNL     1      -3.138  12.500  22.884  0.00  0.00    +0.000 A 
ATOM     32 CL   UNL     1      -3.906  12.284  24.407  0.00  0.00    +0.000 Cl
ATOM     33  C   UNL     1      -3.774  13.226  21.882  0.00  0.00    +0.000 A 
ATOM     34  C   UNL     1      -3.196  13.307  20.612  0.00  0.00    +0.000 A 
ENDBRANCH  27  28
ENDBRANCH   9  27
TORSDOF 8
ENDMDL
MODEL 6
REMARK VINA RESULT:      -6.7      3.471      5.753
REMARK  Name = 
REMARK  12 active torsions:
REMARK  status: ('A' for Active; 'I' for Inactive)
REMARK    1  A    between atoms: C_1  and  C_2
REMARK    2  A    between atoms: C_2  and  C_3
REMARK    3  A    between atoms: C_2  and  O_4
REMARK    4  A    between atoms: O_4  and  C_5
REMARK    5  A    between atoms: C_8  and  N_9
REMARK    6  A    between atoms: N_14  and  C_15
REMARK    7  A    between atoms: C_15  and  C_16
REMARK    8  A    between atoms: C_16  and  N_17
REMARK    9  A    between atoms: N_17  and  C_18
REMARK   10  A    between atoms: N_17  and  C_19
REMARK   11  A    between atoms: N_22  and  C_23
REMARK   12  A    between atoms: C_23  and  C_24
REMARK                            x       y       z     vdW  Elec       q    Type
REMARK                         _______ _______ _______ _____ _____    ______ ____
ROOT
ATOM      1  N   UNL     1       1.032   9.234  19.830  0.00  0.00    +0.000 N 
ATOM      2  C   UNL     1       0.033   9.951  19.217  0.00  0.00    +0.000 A 
ATOM      3  N   UNL     1      -0.660   9.395  18.292  0.00  0.00    +0.000 NA
ATOM      4  C   UNL     1      -1.678  10.055  17.687  0.00  0.00    +0.000 A 
ATOM      5  O   UNL     1      -2.147   9.648  16.633  0.00  0.00    +0.000 OA
ATOM      6  N   UNL     1      -2.139  11.211  18.284  0.00  0.00    +0.000 N 
ATOM      7  C   UNL     1      -1.357  11.899  19.171  0.00  0.00    +0.000 A 
ATOM      8  O   UNL     1      -1.619  13.052  19.521  0.00  0.00    +0.000 OA
ATOM      9  N   UNL     1      -0.227  11.238  19.636  0.00  0.00    +0.000 N 
ATOM     10  H   UNL     1       1.437   9.591  20.688  0.00  0.00    +0.000 HD
ENDROOT
BRANCH   1  14
ATOM     11  C   UNL     1       3.744   6.420  18.245  0.00  0.00    +0.000 A 
ATOM     12  C   UNL     1       3.454   7.573  17.513  0.00  0.00    +0.000 A 
ATOM     13  C   UNL     1       2.507   8.487  17.986  0.00  0.00    +0.000 A 
ATOM     14  C   UNL     1       1.870   8.280  19.215  0.00  0.00    +0.000 A 
ATOM     15  C   UNL     1       2.091   7.081  19.889  0.00  0.00    +0.000 A 
ATOM     16  C   UNL     1       3.047   6.184  19.428  0.00  0.00    +0.000 A 
ATOM     17  F   UNL     1       3.314   5.124  20.203  0.00  0.00    +0.000 F 
BRANCH  11  18
ATOM     18  O   UNL     1       4.752   5.638  17.751  0.00  0.00    +0.000 OA
BRANCH  18  20
ATOM     19  C   UNL     1       6.693   5.499  19.113  0.00  0.00    +0.000 C 
ATOM     20  C   UNL     1       6.081   6.159  17.886  0.00  0.00    +0.000 C 
ATOM     21  C   UNL     1       6.889   5.837  16.632  0.00  0.00    +0.000 C 
ENDBRANCH  18  20
ENDBRANCH  11  18
ENDBRANCH   1  14
BRANCH   6  22
ATOM     22  C   UNL     1      -3.343  11.818  17.737  0.00  0.00    +0.000 C 
BRANCH  22  23
ATOM     23  C   UNL     1      -4.591  11.596  18.621  0.00  0.00    +0.000 C 
BRANCH  23  24
ATOM     24  N   UNL     1      -5.845  11.292  17.895  0.00  0.00    +0.000 NA
ATOM     25  C   UNL     1      -6.780  10.517  18.712  0.00  0.00    +0.000 C 
ATOM     26  C   UNL     1      -6.480  12.551  17.483  0.00  0.00    +0.000 C 
ENDBRANCH  23  24
ENDBRANCH  22  23
ENDBRANCH   6  22
BRANCH   9  27
ATOM     27  C   UNL     1       0.646  11.972  20.552  0.00  0.00    +0.000 C 
BRANCH  27  28
ATOM     28  C   UNL     1       1.481  13.063  19.896  0.00  0.00    +0.000 A 
ATOM     29  C   UNL     1       1.484  14.391  20.351  0.00  0.00    +0.000 A 
ATOM     30  C   UNL     1       2.110  15.395  19.611  0.00  0.00    +0.000 A 
ATOM     31  C   UNL     1       2.763  15.077  18.423  0.00  0.00    +0.000 A 
ATOM     32 CL   UNL     1       3.423  16.333  17.451  0.00  0.00    +0.000 Cl
ATOM     33  C   UNL     1       2.852  13.754  18.004  0.00  0.00    +0.000 A 
ATOM     34  C   UNL     1       2.220  12.749  18.741  0.00  0.00    +0.000 A 
ENDBRANCH  27  28
ENDBRANCH   9  27
TORSDOF 8
ENDMDL
MODEL 7
REMARK VINA RESULT:      -6.6      2.030      2.658
REMARK  Name = 
REMARK  12 active torsions:
REMARK  status: ('A' for Active; 'I' for Inactive)
REMARK    1  A    between atoms: C_1  and  C_2
REMARK    2  A    between atoms: C_2  and  C_3
REMARK    3  A    between atoms: C_2  and  O_4
REMARK    4  A    between atoms: O_4  and  C_5
REMARK    5  A    between atoms: C_8  and  N_9
REMARK    6  A    between atoms: N_14  and  C_15
REMARK    7  A    between atoms: C_15  and  C_16
REMARK    8  A    between atoms: C_16  and  N_17
REMARK    9  A    between atoms: N_17  and  C_18
REMARK   10  A    between atoms: N_17  and  C_19
REMARK   11  A    between atoms: N_22  and  C_23
REMARK   12  A    between atoms: C_23  and  C_24
REMARK                            x       y       z     vdW  Elec       q    Type
REMARK                         _______ _______ _______ _____ _____    ______ ____
ROOT
ATOM      1  N   UNL     1       0.155  10.539  19.283  0.00  0.00    +0.000 N 
ATOM      2  C   UNL     1       0.479  11.851  19.534  0.00  0.00    +0.000 A 
ATOM      3  N   UNL     1       1.614  12.301  19.143  0.00  0.00    +0.000 NA
ATOM      4  C   UNL     1       1.957  13.597  19.338  0.00  0.00    +0.000 A 
ATOM      5  O   UNL     1       3.122  13.959  19.230  0.00  0.00    +0.000 OA
ATOM      6  N   UNL     1       0.957  14.481  19.691  0.00  0.00    +0.000 N 
ATOM      7  C   UNL     1      -0.210  14.031  20.242  0.00  0.00    +0.000 A 
ATOM      8  O   UNL     1      -1.008  14.786  20.803  0.00  0.00    +0.000 OA
ATOM      9  N   UNL     1      -0.439  12.662  20.164  0.00  0.00    +0.000 N 
ATOM     10  H   UNL     1      -0.807  10.239  19.401  0.00  0.00    +0.000 HD
ENDROOT
BRANCH   1  14
ATOM     11  C   UNL     1       2.641   7.141  19.050  0.00  0.00    +0.000 A 
ATOM     12  C   UNL     1       1.956   7.402  20.238  0.00  0.00    +0.000 A 
ATOM     13  C   UNL     1       1.180   8.559  20.362  0.00  0.00    +0.000 A 
ATOM     14  C   UNL     1       1.046   9.446  19.287  0.00  0.00    +0.000 A 
ATOM     15  C   UNL     1       1.812   9.229  18.143  0.00  0.00    +0.000 A 
ATOM     16  C   UNL     1       2.566   8.069  18.014  0.00  0.00    +0.000 A 
ATOM     17  F   UNL     1       3.157   7.854  16.832  0.00  0.00    +0.000 F 
BRANCH  11  18
ATOM     18  O   UNL     1       3.294   5.940  18.991  0.00  0.00    +0.000 OA
BRANCH  18  20
ATOM     19  C   UNL     1       1.905   4.366  17.879  0.00  0.00    +0.000 C 
ATOM     20  C   UNL     1       2.493   4.773  19.222  0.00  0.00    +0.000 C 
ATOM     21  C   UNL     1       3.362   3.659  19.798  0.00  0.00    +0.000 C 
ENDBRANCH  18  20
ENDBRANCH  11  18
ENDBRANCH   1  14
BRANCH   6  22
ATOM     22  C   UNL     1       1.290  15.898  19.723  0.00  0.00    +0.000 C 
BRANCH  22  23
ATOM     23  C   UNL     1       0.832  16.659  18.459  0.00  0.00    +0.000 C 
BRANCH  23  24
ATOM     24  N   UNL     1       1.821  17.595  17.880  0.00  0.00    +0.000 NA
ATOM     25  C   UNL     1       2.992  16.898  17.346  0.00  0.00    +0.000 C 
ATOM     26  C   UNL     1       1.181  18.370  16.809  0.00  0.00    +0.000 C 
ENDBRANCH  23  24
ENDBRANCH  22  23
ENDBRANCH   6  22
BRANCH   9  27
ATOM     27  C   UNL     1      -1.662  12.154  20.786  0.00  0.00    +0.000 C 
BRANCH  27  28
ATOM     28  C   UNL     1      -2.919  12.318  19.943  0.00  0.00    +0.000 A 
ATOM     29  C   UNL     1      -4.044  13.028  20.391  0.00  0.00    +0.000 A 
ATOM     30  C   UNL     1      -5.240  12.994  19.672  0.00  0.00    +0.000 A 
ATOM     31  C   UNL     1      -5.315  12.272  18.484  0.00  0.00    +0.000 A 
ATOM     32 CL   UNL     1      -6.822  12.129  17.668  0.00  0.00    +0.000 Cl
ATOM     33  C   UNL     1      -4.186  11.640  17.975  0.00  0.00    +0.000 A 
ATOM     34  C   UNL     1      -2.989  11.669  18.697  0.00  0.00    +0.000 A 
ENDBRANCH  27  28
ENDBRANCH   9  27
TORSDOF 8
ENDMDL
MODEL 8
REMARK VINA RESULT:      -6.6      3.323      5.665
REMARK  Name = 
REMARK  12 active torsions:
REMARK  status: ('A' for Active; 'I' for Inactive)
REMARK    1  A    between atoms: C_1  and  C_2
REMARK    2  A    between atoms: C_2  and  C_3
REMARK    3  A    between atoms: C_2  and  O_4
REMARK    4  A    between atoms: O_4  and  C_5
REMARK    5  A    between atoms: C_8  and  N_9
REMARK    6  A    between atoms: N_14  and  C_15
REMARK    7  A    between atoms: C_15  and  C_16
REMARK    8  A    between atoms: C_16  and  N_17
REMARK    9  A    between atoms: N_17  and  C_18
REMARK   10  A    between atoms: N_17  and  C_19
REMARK   11  A    between atoms: N_22  and  C_23
REMARK   12  A    between atoms: C_23  and  C_24
REMARK                            x       y       z     vdW  Elec       q    Type
REMARK                         _______ _______ _______ _____ _____    ______ ____
ROOT
ATOM      1  N   UNL     1       0.583   9.628  20.503  0.00  0.00    +0.000 N 
ATOM      2  C   UNL     1      -0.434  10.341  19.915  0.00  0.00    +0.000 A 
ATOM      3  N   UNL     1      -1.244   9.740  19.122  0.00  0.00    +0.000 NA
ATOM      4  C   UNL     1      -2.281  10.398  18.551  0.00  0.00    +0.000 A 
ATOM      5  O   UNL     1      -2.873   9.919  17.592  0.00  0.00    +0.000 OA
ATOM      6  N   UNL     1      -2.621  11.633  19.066  0.00  0.00    +0.000 N 
ATOM      7  C   UNL     1      -1.721  12.355  19.800  0.00  0.00    +0.000 A 
ATOM      8  O   UNL     1      -1.888  13.551  20.052  0.00  0.00    +0.000 OA
ATOM      9  N   UNL     1      -0.585  11.675  20.222  0.00  0.00    +0.000 N 
ATOM     10  H   UNL     1       1.089  10.041  21.278  0.00  0.00    +0.000 HD
ENDROOT
BRANCH   1  14
ATOM     11  C   UNL     1       2.958   6.489  18.991  0.00  0.00    +0.000 A 
ATOM     12  C   UNL     1       2.778   7.637  18.219  0.00  0.00    +0.000 A 
ATOM     13  C   UNL     1       1.940   8.663  18.670  0.00  0.00    +0.000 A 
ATOM     14  C   UNL     1       1.306   8.570  19.914  0.00  0.00    +0.000 A 
ATOM     15  C   UNL     1       1.412   7.379  20.630  0.00  0.00    +0.000 A 
ATOM     16  C   UNL     1       2.262   6.370  20.191  0.00  0.00    +0.000 A 
ATOM     17  F   UNL     1       2.430   5.318  21.002  0.00  0.00    +0.000 F 
BRANCH  11  18
ATOM     18  O   UNL     1       3.871   5.587  18.513  0.00  0.00    +0.000 OA
BRANCH  18  20
ATOM     19  C   UNL     1       4.720   4.101  16.865  0.00  0.00    +0.000 C 
ATOM     20  C   UNL     1       3.492   4.872  17.330  0.00  0.00    +0.000 C 
ATOM     21  C   UNL     1       2.341   3.923  17.649  0.00  0.00    +0.000 C 
ENDBRANCH  18  20
ENDBRANCH  11  18
ENDBRANCH   1  14
BRANCH   6  22
ATOM     22  C   UNL     1      -3.842  12.255  18.575  0.00  0.00    +0.000 C 
BRANCH  22  23
ATOM     23  C   UNL     1      -4.994  12.231  19.604  0.00  0.00    +0.000 C 
BRANCH  23  24
ATOM     24  N   UNL     1      -6.077  11.260  19.331  0.00  0.00    +0.000 NA
ATOM     25  C   UNL     1      -7.160  11.353  20.311  0.00  0.00    +0.000 C 
ATOM     26  C   UNL     1      -6.612  11.502  17.984  0.00  0.00    +0.000 C 
ENDBRANCH  23  24
ENDBRANCH  22  23
ENDBRANCH   6  22
BRANCH   9  27
ATOM     27  C   UNL     1       0.410  12.442  20.972  0.00  0.00    +0.000 C 
BRANCH  27  28
ATOM     28  C   UNL     1       1.334  13.294  20.113  0.00  0.00    +0.000 A 
ATOM     29  C   UNL     1       1.425  14.688  20.253  0.00  0.00    +0.000 A 
ATOM     30  C   UNL     1       2.136  15.451  19.325  0.00  0.00    +0.000 A 
ATOM     31  C   UNL     1       2.785  14.825  18.263  0.00  0.00    +0.000 A 
ATOM     32 CL   UNL     1       3.552  15.777  17.054  0.00  0.00    +0.000 Cl
ATOM     33  C   UNL     1       2.785  13.439  18.161  0.00  0.00    +0.000 A 
ATOM     34  C   UNL     1       2.069  12.674  19.086  0.00  0.00    +0.000 A 
ENDBRANCH  27  28
ENDBRANCH   9  27
TORSDOF 8
ENDMDL
MODEL 9
REMARK VINA RESULT:      -6.6      3.306      5.743
REMARK  Name = 
REMARK  12 active torsions:
REMARK  status: ('A' for Active; 'I' for Inactive)
REMARK    1  A    between atoms: C_1  and  C_2
REMARK    2  A    between atoms: C_2  and  C_3
REMARK    3  A    between atoms: C_2  and  O_4
REMARK    4  A    between atoms: O_4  and  C_5
REMARK    5  A    between atoms: C_8  and  N_9
REMARK    6  A    between atoms: N_14  and  C_15
REMARK    7  A    between atoms: C_15  and  C_16
REMARK    8  A    between atoms: C_16  and  N_17
REMARK    9  A    between atoms: N_17  and  C_18
REMARK   10  A    between atoms: N_17  and  C_19
REMARK   11  A    between atoms: N_22  and  C_23
REMARK   12  A    between atoms: C_23  and  C_24
REMARK                            x       y       z     vdW  Elec       q    Type
REMARK                         _______ _______ _______ _____ _____    ______ ____
ROOT
ATOM      1  N   UNL     1       0.683   9.767  20.184  0.00  0.00    +0.000 N 
ATOM      2  C   UNL     1      -0.405  10.470  19.725  0.00  0.00    +0.000 A 
ATOM      3  N   UNL     1      -1.233   9.895  18.931  0.00  0.00    +0.000 NA
ATOM      4  C   UNL     1      -2.337  10.541  18.484  0.00  0.00    +0.000 A 
ATOM      5  O   UNL     1      -2.965  10.114  17.524  0.00  0.00    +0.000 OA
ATOM      6  N   UNL     1      -2.705  11.705  19.128  0.00  0.00    +0.000 N 
ATOM      7  C   UNL     1      -1.798  12.411  19.868  0.00  0.00    +0.000 A 
ATOM      8  O   UNL     1      -2.008  13.569  20.237  0.00  0.00    +0.000 OA
ATOM      9  N   UNL     1      -0.604  11.762  20.160  0.00  0.00    +0.000 N 
ATOM     10  H   UNL     1       1.216  10.139  20.962  0.00  0.00    +0.000 HD
ENDROOT
BRANCH   1  14
ATOM     11  C   UNL     1       3.119   6.922  18.247  0.00  0.00    +0.000 A 
ATOM     12  C   UNL     1       2.774   8.094  17.572  0.00  0.00    +0.000 A 
ATOM     13  C   UNL     1       1.912   9.021  18.168  0.00  0.00    +0.000 A 
ATOM     14  C   UNL     1       1.418   8.806  19.460  0.00  0.00    +0.000 A 
ATOM     15  C   UNL     1       1.688   7.589  20.084  0.00  0.00    +0.000 A 
ATOM     16  C   UNL     1       2.561   6.680  19.500  0.00  0.00    +0.000 A 
ATOM     17  F   UNL     1       2.890   5.600  20.221  0.00  0.00    +0.000 F 
BRANCH  11  18
ATOM     18  O   UNL     1       4.043   6.126  17.625  0.00  0.00    +0.000 OA
BRANCH  18  20
ATOM     19  C   UNL     1       5.766   4.688  18.403  0.00  0.00    +0.000 C 
ATOM     20  C   UNL     1       5.364   6.138  18.180  0.00  0.00    +0.000 C 
ATOM     21  C   UNL     1       6.322   6.828  17.213  0.00  0.00    +0.000 C 
ENDBRANCH  18  20
ENDBRANCH  11  18
ENDBRANCH   1  14
BRANCH   6  22
ATOM     22  C   UNL     1      -3.985  12.298  18.769  0.00  0.00    +0.000 C 
BRANCH  22  23
ATOM     23  C   UNL     1      -5.049  12.171  19.882  0.00  0.00    +0.000 C 
BRANCH  23  24
ATOM     24  N   UNL     1      -6.420  11.851  19.426  0.00  0.00    +0.000 NA
ATOM     25  C   UNL     1      -6.434  10.779  18.431  0.00  0.00    +0.000 C 
ATOM     26  C   UNL     1      -7.232  11.457  20.585  0.00  0.00    +0.000 C 
ENDBRANCH  23  24
ENDBRANCH  22  23
ENDBRANCH   6  22
BRANCH   9  27
ATOM     27  C   UNL     1       0.398  12.515  20.914  0.00  0.00    +0.000 C 
BRANCH  27  28
ATOM     28  C   UNL     1       1.308  13.390  20.063  0.00  0.00    +0.000 A 
ATOM     29  C   UNL     1       1.287  14.792  20.127  0.00  0.00    +0.000 A 
ATOM     30  C   UNL     1       1.997  15.557  19.200  0.00  0.00    +0.000 A 
ATOM     31  C   UNL     1       2.755  14.929  18.217  0.00  0.00    +0.000 A 
ATOM     32 CL   UNL     1       3.525  15.871  17.002  0.00  0.00    +0.000 Cl
ATOM     33  C   UNL     1       2.865  13.542  18.195  0.00  0.00    +0.000 A 
ATOM     34  C   UNL     1       2.150  12.775  19.119  0.00  0.00    +0.000 A 
ENDBRANCH  27  28
ENDBRANCH   9  27
TORSDOF 8
ENDMDL
