MODEL 1
REMARK VINA RESULT:      -8.3      0.000      0.000
REMARK  Name = 
REMARK  9 active torsions:
REMARK  status: ('A' for Active; 'I' for Inactive)
REMARK    1  A    between atoms: C_1  and  C_2
REMARK    2  A    between atoms: C_2  and  O_3
REMARK    3  A    between atoms: O_3  and  C_4
REMARK    4  A    between atoms: C_7  and  N_8
REMARK    5  A    between atoms: C_9  and  C_11
REMARK    6  A    between atoms: C_11  and  O_12
REMARK    7  A    between atoms: O_12  and  C_13
REMARK    8  A    between atoms: C_16  and  C_17
REMARK    9  A    between atoms: C_17  and  N_18
REMARK                            x       y       z     vdW  Elec       q    Type
REMARK                         _______ _______ _______ _____ _____    ______ ____
ROOT
ATOM      1  C   UNL     1       7.762   7.140  18.213  0.00  0.00    +0.000 A 
ATOM      2  C   UNL     1       7.043   7.274  17.099  0.00  0.00    +0.000 A 
ATOM      3  O   UNL     1       6.234   6.317  16.557  0.00  0.00    +0.000 OA
ATOM      4  C   UNL     1       6.194   5.055  17.118  0.00  0.00    +0.000 A 
ATOM      5  C   UNL     1       6.848   4.771  18.261  0.00  0.00    +0.000 A 
ATOM      6  C   UNL     1       7.663   5.818  18.912  0.00  0.00    +0.000 A 
ATOM      7  O   UNL     1       8.201   5.587  19.961  0.00  0.00    +0.000 OA
ENDROOT
BRANCH   1   8
ATOM      8  O   UNL     1       8.484   8.225  18.676  0.00  0.00    +0.000 OA
BRANCH   8   9
ATOM      9  C   UNL     1       8.701   9.241  17.701  0.00  0.00    +0.000 C 
BRANCH   9  11
ATOM     10  N   UNL     1       9.231  10.607  19.665  0.00  0.00    +0.000 N 
ATOM     11  C   UNL     1       8.753  10.623  18.364  0.00  0.00    +0.000 C 
ATOM     12  O   UNL     1       8.411  11.617  17.726  0.00  0.00    +0.000 OA
ATOM     13  H   UNL     1       9.471   9.690  20.033  0.00  0.00    +0.000 HD
BRANCH  10  17
ATOM     14  C   UNL     1       9.540  13.888  22.322  0.00  0.00    +0.000 A 
ATOM     15  C   UNL     1      10.288  13.873  21.150  0.00  0.00    +0.000 A 
ATOM     16  C   UNL     1      10.203  12.798  20.260  0.00  0.00    +0.000 A 
ATOM     17  C   UNL     1       9.375  11.710  20.535  0.00  0.00    +0.000 A 
ATOM     18  C   UNL     1       8.647  11.714  21.732  0.00  0.00    +0.000 A 
ATOM     19  C   UNL     1       8.734  12.794  22.627  0.00  0.00    +0.000 A 
BRANCH  14  20
ATOM     20  O   UNL     1       9.700  15.009  23.086  0.00  0.00    +0.000 OA
BRANCH  20  22
ATOM     21  C   UNL     1      10.967  16.917  23.732  0.00  0.00    +0.000 C 
ATOM     22  C   UNL     1      10.577  16.011  22.576  0.00  0.00    +0.000 C 
ENDBRANCH  20  22
ENDBRANCH  14  20
ENDBRANCH  10  17
ENDBRANCH   9  11
ENDBRANCH   8   9
ENDBRANCH   1   8
BRANCH   4  23
ATOM     23  C   UNL     1       5.261   4.096  16.415  0.00  0.00    +0.000 C 
BRANCH  23  24
ATOM     24  N   UNL     1       3.937   3.882  16.988  0.00  0.00    +0.000 NA
ATOM     25  C   UNL     1       3.215   5.007  17.597  0.00  0.00    +0.000 C 
ATOM     26  C   UNL     1       1.720   4.579  17.961  0.00  0.00    +0.000 C 
ATOM     27  C   UNL     1       1.680   3.203  18.680  0.00  0.00    +0.000 A 
ATOM     28  C   UNL     1       0.716   2.816  19.589  0.00  0.00    +0.000 A 
ATOM     29  C   UNL     1       1.079   2.772  20.929  0.00  0.00    +0.000 A 
ATOM     30  C   UNL     1       2.380   3.136  21.277  0.00  0.00    +0.000 A 
ATOM     31  C   UNL     1       3.364   3.120  20.282  0.00  0.00    +0.000 A 
ATOM     32  C   UNL     1       2.971   2.836  18.982  0.00  0.00    +0.000 A 
ATOM     33  C   UNL     1       3.779   2.641  17.738  0.00  0.00    +0.000 C 
ENDBRANCH  23  24
ENDBRANCH   4  23
TORSDOF 8
ENDMDL
MODEL 2
REMARK VINA RESULT:      -7.4      8.481     11.566
REMARK  Name = 
REMARK  9 active torsions:
REMARK  status: ('A' for Active; 'I' for Inactive)
REMARK    1  A    between atoms: C_1  and  C_2
REMARK    2  A    between atoms: C_2  and  O_3
REMARK    3  A    between atoms: O_3  and  C_4
REMARK    4  A    between atoms: C_7  and  N_8
REMARK    5  A    between atoms: C_9  and  C_11
REMARK    6  A    between atoms: C_11  and  O_12
REMARK    7  A    between atoms: O_12  and  C_13
REMARK    8  A    between atoms: C_16  and  C_17
REMARK    9  A    between atoms: C_17  and  N_18
REMARK                            x       y       z     vdW  Elec       q    Type
REMARK                         _______ _______ _______ _____ _____    ______ ____
ROOT
ATOM      1  C   UNL     1       0.349  10.158  19.808  0.00  0.00    +0.000 A 
ATOM      2  C   UNL     1      -0.717  10.225  19.012  0.00  0.00    +0.000 A 
ATOM      3  O   UNL     1      -1.724  11.143  19.109  0.00  0.00    +0.000 OA
ATOM      4  C   UNL     1      -1.734  12.041  20.159  0.00  0.00    +0.000 A 
ATOM      5  C   UNL     1      -0.712  12.112  21.034  0.00  0.00    +0.000 A 
ATOM      6  C   UNL     1       0.429  11.184  20.898  0.00  0.00    +0.000 A 
ATOM      7  O   UNL     1       1.369  11.282  21.640  0.00  0.00    +0.000 OA
ENDROOT
BRANCH   1   8
ATOM      8  O   UNL     1       1.321   9.211  19.543  0.00  0.00    +0.000 OA
BRANCH   8   9
ATOM      9  C   UNL     1       1.331   8.113  20.451  0.00  0.00    +0.000 C 
BRANCH   9  11
ATOM     10  N   UNL     1       2.704   7.205  18.637  0.00  0.00    +0.000 N 
ATOM     11  C   UNL     1       2.166   6.956  19.890  0.00  0.00    +0.000 C 
ATOM     12  O   UNL     1       2.325   5.939  20.562  0.00  0.00    +0.000 OA
ATOM     13  H   UNL     1       2.470   8.107  18.230  0.00  0.00    +0.000 HD
BRANCH  10  17
ATOM     14  C   UNL     1       5.036   4.483  16.382  0.00  0.00    +0.000 A 
ATOM     15  C   UNL     1       5.391   5.828  16.428  0.00  0.00    +0.000 A 
ATOM     16  C   UNL     1       4.633   6.743  17.165  0.00  0.00    +0.000 A 
ATOM     17  C   UNL     1       3.496   6.331  17.859  0.00  0.00    +0.000 A 
ATOM     18  C   UNL     1       3.123   4.982  17.785  0.00  0.00    +0.000 A 
ATOM     19  C   UNL     1       3.885   4.062  17.044  0.00  0.00    +0.000 A 
BRANCH  14  20
ATOM     20  O   UNL     1       5.877   3.697  15.648  0.00  0.00    +0.000 OA
BRANCH  20  22
ATOM     21  C   UNL     1       5.930   3.745  13.270  0.00  0.00    +0.000 C 
ATOM     22  C   UNL     1       6.531   4.316  14.544  0.00  0.00    +0.000 C 
ENDBRANCH  20  22
ENDBRANCH  14  20
ENDBRANCH  10  17
ENDBRANCH   9  11
ENDBRANCH   8   9
ENDBRANCH   1   8
BRANCH   4  23
ATOM     23  C   UNL     1      -2.905  12.995  20.146  0.00  0.00    +0.000 C 
BRANCH  23  24
ATOM     24  N   UNL     1      -4.101  12.625  20.894  0.00  0.00    +0.000 NA
ATOM     25  C   UNL     1      -5.429  12.949  20.356  0.00  0.00    +0.000 C 
ATOM     26  C   UNL     1      -6.571  12.266  21.239  0.00  0.00    +0.000 C 
ATOM     27  C   UNL     1      -6.320  12.476  22.757  0.00  0.00    +0.000 A 
ATOM     28  C   UNL     1      -7.309  12.534  23.719  0.00  0.00    +0.000 A 
ATOM     29  C   UNL     1      -7.603  13.779  24.261  0.00  0.00    +0.000 A 
ATOM     30  C   UNL     1      -6.902  14.890  23.792  0.00  0.00    +0.000 A 
ATOM     31  C   UNL     1      -5.683  14.680  23.137  0.00  0.00    +0.000 A 
ATOM     32  C   UNL     1      -5.286  13.371  22.904  0.00  0.00    +0.000 A 
ATOM     33  C   UNL     1      -4.016  12.822  22.336  0.00  0.00    +0.000 C 
ENDBRANCH  23  24
ENDBRANCH   4  23
TORSDOF 8
ENDMDL
MODEL 3
REMARK VINA RESULT:      -7.4      4.909      7.920
REMARK  Name = 
REMARK  9 active torsions:
REMARK  status: ('A' for Active; 'I' for Inactive)
REMARK    1  A    between atoms: C_1  and  C_2
REMARK    2  A    between atoms: C_2  and  O_3
REMARK    3  A    between atoms: O_3  and  C_4
REMARK    4  A    between atoms: C_7  and  N_8
REMARK    5  A    between atoms: C_9  and  C_11
REMARK    6  A    between atoms: C_11  and  O_12
REMARK    7  A    between atoms: O_12  and  C_13
REMARK    8  A    between atoms: C_16  and  C_17
REMARK    9  A    between atoms: C_17  and  N_18
REMARK                            x       y       z     vdW  Elec       q    Type
REMARK                         _______ _______ _______ _____ _____    ______ ____
ROOT
ATOM      1  C   UNL     1       2.624   2.467  19.720  0.00  0.00    +0.000 A 
ATOM      2  C   UNL     1       3.911   2.793  19.610  0.00  0.00    +0.000 A 
ATOM      3  O   UNL     1       4.562   3.074  18.443  0.00  0.00    +0.000 OA
ATOM      4  C   UNL     1       3.901   2.933  17.239  0.00  0.00    +0.000 A 
ATOM      5  C   UNL     1       2.588   2.633  17.186  0.00  0.00    +0.000 A 
ATOM      6  C   UNL     1       1.843   2.406  18.442  0.00  0.00    +0.000 A 
ATOM      7  O   UNL     1       0.662   2.195  18.404  0.00  0.00    +0.000 OA
ENDROOT
BRANCH   1   8
ATOM      8  O   UNL     1       2.090   2.275  20.981  0.00  0.00    +0.000 OA
BRANCH   8   9
ATOM      9  C   UNL     1       2.056   3.449  21.786  0.00  0.00    +0.000 C 
BRANCH   9  11
ATOM     10  N   UNL     1       2.274   5.729  20.917  0.00  0.00    +0.000 N 
ATOM     11  C   UNL     1       1.446   4.621  21.007  0.00  0.00    +0.000 C 
ATOM     12  O   UNL     1       0.328   4.506  20.510  0.00  0.00    +0.000 OA
ATOM     13  H   UNL     1       3.171   5.646  21.388  0.00  0.00    +0.000 HD
BRANCH  10  17
ATOM     14  C   UNL     1       1.524   9.400  18.944  0.00  0.00    +0.000 A 
ATOM     15  C   UNL     1       1.058   9.202  20.240  0.00  0.00    +0.000 A 
ATOM     16  C   UNL     1       1.293   7.996  20.908  0.00  0.00    +0.000 A 
ATOM     17  C   UNL     1       1.988   6.960  20.285  0.00  0.00    +0.000 A 
ATOM     18  C   UNL     1       2.429   7.151  18.969  0.00  0.00    +0.000 A 
ATOM     19  C   UNL     1       2.192   8.363  18.297  0.00  0.00    +0.000 A 
BRANCH  14  20
ATOM     20  O   UNL     1       1.248  10.631  18.422  0.00  0.00    +0.000 OA
BRANCH  20  22
ATOM     21  C   UNL     1       1.038  12.997  18.559  0.00  0.00    +0.000 C 
ATOM     22  C   UNL     1       1.096  11.701  19.351  0.00  0.00    +0.000 C 
ENDBRANCH  20  22
ENDBRANCH  14  20
ENDBRANCH  10  17
ENDBRANCH   9  11
ENDBRANCH   8   9
ENDBRANCH   1   8
BRANCH   4  23
ATOM     23  C   UNL     1       4.740   3.274  16.029  0.00  0.00    +0.000 C 
BRANCH  23  24
ATOM     24  N   UNL     1       5.499   4.519  16.048  0.00  0.00    +0.000 NA
ATOM     25  C   UNL     1       6.936   4.504  15.745  0.00  0.00    +0.000 C 
ATOM     26  C   UNL     1       7.497   5.994  15.625  0.00  0.00    +0.000 C 
ATOM     27  C   UNL     1       7.002   6.886  16.795  0.00  0.00    +0.000 A 
ATOM     28  C   UNL     1       7.688   7.969  17.306  0.00  0.00    +0.000 A 
ATOM     29  C   UNL     1       8.299   7.815  18.544  0.00  0.00    +0.000 A 
ATOM     30  C   UNL     1       8.199   6.580  19.185  0.00  0.00    +0.000 A 
ATOM     31  C   UNL     1       7.178   5.708  18.792  0.00  0.00    +0.000 A 
ATOM     32  C   UNL     1       6.380   6.080  17.719  0.00  0.00    +0.000 A 
ATOM     33  C   UNL     1       5.164   5.432  17.136  0.00  0.00    +0.000 C 
ENDBRANCH  23  24
ENDBRANCH   4  23
TORSDOF 8
ENDMDL
MODEL 4
REMARK VINA RESULT:      -7.3      8.083      9.628
REMARK  Name = 
REMARK  9 active torsions:
REMARK  status: ('A' for Active; 'I' for Inactive)
REMARK    1  A    between atoms: C_1  and  C_2
REMARK    2  A    between atoms: C_2  and  O_3
REMARK    3  A    between atoms: O_3  and  C_4
REMARK    4  A    between atoms: C_7  and  N_8
REMARK    5  A    between atoms: C_9  and  C_11
REMARK    6  A    between atoms: C_11  and  O_12
REMARK    7  A    between atoms: O_12  and  C_13
REMARK    8  A    between atoms: C_16  and  C_17
REMARK    9  A    between atoms: C_17  and  N_18
REMARK                            x       y       z     vdW  Elec       q    Type
REMARK                         _______ _______ _______ _____ _____    ______ ____
ROOT
ATOM      1  C   UNL     1       0.630  10.087  19.305  0.00  0.00    +0.000 A 
ATOM      2  C   UNL     1       1.365   9.438  18.403  0.00  0.00    +0.000 A 
ATOM      3  O   UNL     1       1.984   8.236  18.600  0.00  0.00    +0.000 OA
ATOM      4  C   UNL     1       1.955   7.648  19.849  0.00  0.00    +0.000 A 
ATOM      5  C   UNL     1       1.233   8.171  20.858  0.00  0.00    +0.000 A 
ATOM      6  C   UNL     1       0.486   9.427  20.643  0.00  0.00    +0.000 A 
ATOM      7  O   UNL     1      -0.206   9.868  21.521  0.00  0.00    +0.000 OA
ENDROOT
BRANCH   1   8
ATOM      8  O   UNL     1       0.008  11.266  18.935  0.00  0.00    +0.000 OA
BRANCH   8   9
ATOM      9  C   UNL     1      -1.241  11.085  18.274  0.00  0.00    +0.000 C 
BRANCH   9  11
ATOM     10  N   UNL     1      -1.968  12.282  20.284  0.00  0.00    +0.000 N 
ATOM     11  C   UNL     1      -2.381  11.697  19.097  0.00  0.00    +0.000 C 
ATOM     12  O   UNL     1      -3.532  11.658  18.666  0.00  0.00    +0.000 OA
ATOM     13  H   UNL     1      -0.972  12.223  20.479  0.00  0.00    +0.000 HD
BRANCH  10  17
ATOM     14  C   UNL     1      -4.420  14.028  23.260  0.00  0.00    +0.000 A 
ATOM     15  C   UNL     1      -4.313  14.630  22.011  0.00  0.00    +0.000 A 
ATOM     16  C   UNL     1      -3.506  14.071  21.014  0.00  0.00    +0.000 A 
ATOM     17  C   UNL     1      -2.781  12.905  21.257  0.00  0.00    +0.000 A 
ATOM     18  C   UNL     1      -2.867  12.319  22.527  0.00  0.00    +0.000 A 
ATOM     19  C   UNL     1      -3.677  12.882  23.528  0.00  0.00    +0.000 A 
BRANCH  14  20
ATOM     20  O   UNL     1      -5.261  14.665  24.128  0.00  0.00    +0.000 OA
BRANCH  20  22
ATOM     21  C   UNL     1      -4.445  16.752  24.929  0.00  0.00    +0.000 C 
ATOM     22  C   UNL     1      -5.403  16.074  23.964  0.00  0.00    +0.000 C 
ENDBRANCH  20  22
ENDBRANCH  14  20
ENDBRANCH  10  17
ENDBRANCH   9  11
ENDBRANCH   8   9
ENDBRANCH   1   8
BRANCH   4  23
ATOM     23  C   UNL     1       2.683   6.325  19.926  0.00  0.00    +0.000 C 
BRANCH  23  24
ATOM     24  N   UNL     1       3.175   5.739  18.684  0.00  0.00    +0.000 NA
ATOM     25  C   UNL     1       3.436   4.296  18.611  0.00  0.00    +0.000 C 
ATOM     26  C   UNL     1       3.764   3.863  17.109  0.00  0.00    +0.000 C 
ATOM     27  C   UNL     1       4.782   4.830  16.446  0.00  0.00    +0.000 A 
ATOM     28  C   UNL     1       5.672   4.477  15.452  0.00  0.00    +0.000 A 
ATOM     29  C   UNL     1       7.011   4.352  15.803  0.00  0.00    +0.000 A 
ATOM     30  C   UNL     1       7.371   4.570  17.133  0.00  0.00    +0.000 A 
ATOM     31  C   UNL     1       6.496   5.294  17.950  0.00  0.00    +0.000 A 
ATOM     32  C   UNL     1       5.271   5.673  17.417  0.00  0.00    +0.000 A 
ATOM     33  C   UNL     1       4.182   6.528  17.984  0.00  0.00    +0.000 C 
ENDBRANCH  23  24
ENDBRANCH   4  23
TORSDOF 8
ENDMDL
MODEL 5
REMARK VINA RESULT:      -7.3      3.501      9.354
REMARK  Name = 
REMARK  9 active torsions:
REMARK  status: ('A' for Active; 'I' for Inactive)
REMARK    1  A    between atoms: C_1  and  C_2
REMARK    2  A    between atoms: C_2  and  O_3
REMARK    3  A    between atoms: O_3  and  C_4
REMARK    4  A    between atoms: C_7  and  N_8
REMARK    5  A    between atoms: C_9  and  C_11
REMARK    6  A    between atoms: C_11  and  O_12
REMARK    7  A    between atoms: O_12  and  C_13
REMARK    8  A    between atoms: C_16  and  C_17
REMARK    9  A    between atoms: C_17  and  N_18
REMARK                            x       y       z     vdW  Elec       q    Type
REMARK                         _______ _______ _______ _____ _____    ______ ____
ROOT
ATOM      1  C   UNL     1       6.390   5.646  18.094  0.00  0.00    +0.000 A 
ATOM      2  C   UNL     1       5.963   6.566  17.231  0.00  0.00    +0.000 A 
ATOM      3  O   UNL     1       6.556   7.775  17.000  0.00  0.00    +0.000 OA
ATOM      4  C   UNL     1       7.637   8.165  17.766  0.00  0.00    +0.000 A 
ATOM      5  C   UNL     1       8.200   7.334  18.665  0.00  0.00    +0.000 A 
ATOM      6  C   UNL     1       7.626   5.989  18.871  0.00  0.00    +0.000 A 
ATOM      7  O   UNL     1       8.158   5.223  19.629  0.00  0.00    +0.000 OA
ENDROOT
BRANCH   1   8
ATOM      8  O   UNL     1       5.721   4.439  18.168  0.00  0.00    +0.000 OA
BRANCH   8   9
ATOM      9  C   UNL     1       4.729   4.382  19.188  0.00  0.00    +0.000 C 
BRANCH   9  11
ATOM     10  N   UNL     1       3.439   6.406  19.681  0.00  0.00    +0.000 N 
ATOM     11  C   UNL     1       3.551   5.303  18.848  0.00  0.00    +0.000 C 
ATOM     12  O   UNL     1       2.828   5.039  17.890  0.00  0.00    +0.000 OA
ATOM     13  H   UNL     1       4.131   6.466  20.425  0.00  0.00    +0.000 HD
BRANCH  10  17
ATOM     14  C   UNL     1       0.556   9.497  19.440  0.00  0.00    +0.000 A 
ATOM     15  C   UNL     1       0.689   8.764  20.615  0.00  0.00    +0.000 A 
ATOM     16  C   UNL     1       1.634   7.737  20.714  0.00  0.00    +0.000 A 
ATOM     17  C   UNL     1       2.453   7.416  19.633  0.00  0.00    +0.000 A 
ATOM     18  C   UNL     1       2.295   8.136  18.441  0.00  0.00    +0.000 A 
ATOM     19  C   UNL     1       1.345   9.167  18.340  0.00  0.00    +0.000 A 
BRANCH  14  20
ATOM     20  O   UNL     1      -0.385  10.485  19.489  0.00  0.00    +0.000 OA
BRANCH  20  22
ATOM     21  C   UNL     1       0.015  12.826  19.641  0.00  0.00    +0.000 C 
ATOM     22  C   UNL     1      -0.138  11.645  18.698  0.00  0.00    +0.000 C 
ENDBRANCH  20  22
ENDBRANCH  14  20
ENDBRANCH  10  17
ENDBRANCH   9  11
ENDBRANCH   8   9
ENDBRANCH   1   8
BRANCH   4  23
ATOM     23  C   UNL     1       8.191   9.525  17.408  0.00  0.00    +0.000 C 
BRANCH  23  24
ATOM     24  N   UNL     1       9.204  10.105  18.282  0.00  0.00    +0.000 NA
ATOM     25  C   UNL     1       8.805  10.722  19.553  0.00  0.00    +0.000 C 
ATOM     26  C   UNL     1      10.093  11.095  20.422  0.00  0.00    +0.000 C 
ATOM     27  C   UNL     1      11.171  11.810  19.564  0.00  0.00    +0.000 A 
ATOM     28  C   UNL     1      12.085  12.724  20.048  0.00  0.00    +0.000 A 
ATOM     29  C   UNL     1      11.883  14.061  19.732  0.00  0.00    +0.000 A 
ATOM     30  C   UNL     1      10.768  14.402  18.966  0.00  0.00    +0.000 A 
ATOM     31  C   UNL     1      10.150  13.401  18.209  0.00  0.00    +0.000 A 
ATOM     32  C   UNL     1      10.623  12.102  18.337  0.00  0.00    +0.000 A 
ATOM     33  C   UNL     1      10.256  10.852  17.601  0.00  0.00    +0.000 C 
ENDBRANCH  23  24
ENDBRANCH   4  23
TORSDOF 8
ENDMDL
MODEL 6
REMARK VINA RESULT:      -7.2      5.533      8.007
REMARK  Name = 
REMARK  9 active torsions:
REMARK  status: ('A' for Active; 'I' for Inactive)
REMARK    1  A    between atoms: C_1  and  C_2
REMARK    2  A    between atoms: C_2  and  O_3
REMARK    3  A    between atoms: O_3  and  C_4
REMARK    4  A    between atoms: C_7  and  N_8
REMARK    5  A    between atoms: C_9  and  C_11
REMARK    6  A    between atoms: C_11  and  O_12
REMARK    7  A    between atoms: O_12  and  C_13
REMARK    8  A    between atoms: C_16  and  C_17
REMARK    9  A    between atoms: C_17  and  N_18
REMARK                            x       y       z     vdW  Elec       q    Type
REMARK                         _______ _______ _______ _____ _____    ______ ____
ROOT
ATOM      1  C   UNL     1       3.716   3.249  19.244  0.00  0.00    +0.000 A 
ATOM      2  C   UNL     1       4.948   3.617  19.593  0.00  0.00    +0.000 A 
ATOM      3  O   UNL     1       5.832   4.287  18.796  0.00  0.00    +0.000 OA
ATOM      4  C   UNL     1       5.507   4.546  17.479  0.00  0.00    +0.000 A 
ATOM      5  C   UNL     1       4.288   4.256  16.984  0.00  0.00    +0.000 A 
ATOM      6  C   UNL     1       3.285   3.608  17.853  0.00  0.00    +0.000 A 
ATOM      7  O   UNL     1       2.179   3.399  17.435  0.00  0.00    +0.000 OA
ENDROOT
BRANCH   1   8
ATOM      8  O   UNL     1       2.911   2.635  20.186  0.00  0.00    +0.000 OA
BRANCH   8   9
ATOM      9  C   UNL     1       2.447   3.505  21.214  0.00  0.00    +0.000 C 
BRANCH   9  11
ATOM     10  N   UNL     1       2.420   5.861  20.543  0.00  0.00    +0.000 N 
ATOM     11  C   UNL     1       1.680   4.690  20.615  0.00  0.00    +0.000 C 
ATOM     12  O   UNL     1       0.524   4.534  20.227  0.00  0.00    +0.000 OA
ATOM     13  H   UNL     1       3.367   5.805  20.909  0.00  0.00    +0.000 HD
BRANCH  10  17
ATOM     14  C   UNL     1       1.219   9.619  19.006  0.00  0.00    +0.000 A 
ATOM     15  C   UNL     1       0.935   9.288  20.327  0.00  0.00    +0.000 A 
ATOM     16  C   UNL     1       1.320   8.050  20.853  0.00  0.00    +0.000 A 
ATOM     17  C   UNL     1       1.986   7.116  20.061  0.00  0.00    +0.000 A 
ATOM     18  C   UNL     1       2.244   7.441  18.722  0.00  0.00    +0.000 A 
ATOM     19  C   UNL     1       1.855   8.683  18.193  0.00  0.00    +0.000 A 
BRANCH  14  20
ATOM     20  O   UNL     1       0.809  10.866  18.631  0.00  0.00    +0.000 OA
BRANCH  20  22
ATOM     21  C   UNL     1       2.333  12.664  18.306  0.00  0.00    +0.000 C 
ATOM     22  C   UNL     1       1.418  11.968  19.299  0.00  0.00    +0.000 C 
ENDBRANCH  20  22
ENDBRANCH  14  20
ENDBRANCH  10  17
ENDBRANCH   9  11
ENDBRANCH   8   9
ENDBRANCH   1   8
BRANCH   4  23
ATOM     23  C   UNL     1       6.577   5.289  16.712  0.00  0.00    +0.000 C 
BRANCH  23  24
ATOM     24  N   UNL     1       6.942   4.794  15.390  0.00  0.00    +0.000 NA
ATOM     25  C   UNL     1       6.967   5.715  14.247  0.00  0.00    +0.000 C 
ATOM     26  C   UNL     1       7.591   4.997  12.964  0.00  0.00    +0.000 C 
ATOM     27  C   UNL     1       6.991   3.581  12.754  0.00  0.00    +0.000 A 
ATOM     28  C   UNL     1       6.861   2.952  11.532  0.00  0.00    +0.000 A 
ATOM     29  C   UNL     1       5.585   2.861  10.991  0.00  0.00    +0.000 A 
ATOM     30  C   UNL     1       4.521   3.422  11.698  0.00  0.00    +0.000 A 
ATOM     31  C   UNL     1       4.687   3.666  13.065  0.00  0.00    +0.000 A 
ATOM     32  C   UNL     1       5.935   3.427  13.623  0.00  0.00    +0.000 A 
ATOM     33  C   UNL     1       6.397   3.486  15.045  0.00  0.00    +0.000 C 
ENDBRANCH  23  24
ENDBRANCH   4  23
TORSDOF 8
ENDMDL
MODEL 7
REMARK VINA RESULT:      -7.2      6.819     10.335
REMARK  Name = 
REMARK  9 active torsions:
REMARK  status: ('A' for Active; 'I' for Inactive)
REMARK    1  A    between atoms: C_1  and  C_2
REMARK    2  A    between atoms: C_2  and  O_3
REMARK    3  A    between atoms: O_3  and  C_4
REMARK    4  A    between atoms: C_7  and  N_8
REMARK    5  A    between atoms: C_9  and  C_11
REMARK    6  A    between atoms: C_11  and  O_12
REMARK    7  A    between atoms: O_12  and  C_13
REMARK    8  A    between atoms: C_16  and  C_17
REMARK    9  A    between atoms: C_17  and  N_18
REMARK                            x       y       z     vdW  Elec       q    Type
REMARK                         _______ _______ _______ _____ _____    ______ ____
ROOT
ATOM      1  C   UNL     1       0.898  11.183  20.765  0.00  0.00    +0.000 A 
ATOM      2  C   UNL     1       1.334  10.761  19.579  0.00  0.00    +0.000 A 
ATOM      3  O   UNL     1       1.633   9.468  19.257  0.00  0.00    +0.000 OA
ATOM      4  C   UNL     1       1.586   8.491  20.232  0.00  0.00    +0.000 A 
ATOM      5  C   UNL     1       1.141   8.757  21.476  0.00  0.00    +0.000 A 
ATOM      6  C   UNL     1       0.732  10.133  21.823  0.00  0.00    +0.000 A 
ATOM      7  O   UNL     1       0.280  10.364  22.911  0.00  0.00    +0.000 OA
ENDROOT
BRANCH   1   8
ATOM      8  O   UNL     1       0.573  12.517  20.920  0.00  0.00    +0.000 OA
BRANCH   8   9
ATOM      9  C   UNL     1      -0.808  12.809  20.725  0.00  0.00    +0.000 C 
BRANCH   9  11
ATOM     10  N   UNL     1      -2.142  11.597  19.066  0.00  0.00    +0.000 N 
ATOM     11  C   UNL     1      -1.203  12.598  19.259  0.00  0.00    +0.000 C 
ATOM     12  O   UNL     1      -0.710  13.311  18.387  0.00  0.00    +0.000 OA
ATOM     13  H   UNL     1      -2.443  11.110  19.907  0.00  0.00    +0.000 HD
BRANCH  10  17
ATOM     14  C   UNL     1      -3.890  10.302  15.434  0.00  0.00    +0.000 A 
ATOM     15  C   UNL     1      -2.608   9.882  15.775  0.00  0.00    +0.000 A 
ATOM     16  C   UNL     1      -2.012  10.300  16.969  0.00  0.00    +0.000 A 
ATOM     17  C   UNL     1      -2.683  11.159  17.838  0.00  0.00    +0.000 A 
ATOM     18  C   UNL     1      -3.962  11.604  17.477  0.00  0.00    +0.000 A 
ATOM     19  C   UNL     1      -4.561  11.185  16.276  0.00  0.00    +0.000 A 
BRANCH  14  20
ATOM     20  O   UNL     1      -4.360   9.798  14.255  0.00  0.00    +0.000 OA
BRANCH  20  22
ATOM     21  C   UNL     1      -4.290   9.925  11.880  0.00  0.00    +0.000 C 
ATOM     22  C   UNL     1      -3.461   9.815  13.149  0.00  0.00    +0.000 C 
ENDBRANCH  20  22
ENDBRANCH  14  20
ENDBRANCH  10  17
ENDBRANCH   9  11
ENDBRANCH   8   9
ENDBRANCH   1   8
BRANCH   4  23
ATOM     23  C   UNL     1       1.943   7.107  19.739  0.00  0.00    +0.000 C 
BRANCH  23  24
ATOM     24  N   UNL     1       3.220   6.930  19.056  0.00  0.00    +0.000 NA
ATOM     25  C   UNL     1       3.354   7.320  17.646  0.00  0.00    +0.000 C 
ATOM     26  C   UNL     1       4.880   7.229  17.185  0.00  0.00    +0.000 C 
ATOM     27  C   UNL     1       5.537   5.900  17.647  0.00  0.00    +0.000 A 
ATOM     28  C   UNL     1       6.571   5.262  16.991  0.00  0.00    +0.000 A 
ATOM     29  C   UNL     1       6.265   4.105  16.285  0.00  0.00    +0.000 A 
ATOM     30  C   UNL     1       4.939   3.670  16.265  0.00  0.00    +0.000 A 
ATOM     31  C   UNL     1       4.071   4.137  17.257  0.00  0.00    +0.000 A 
ATOM     32  C   UNL     1       4.552   5.084  18.151  0.00  0.00    +0.000 A 
ATOM     33  C   UNL     1       3.921   5.690  19.365  0.00  0.00    +0.000 C 
ENDBRANCH  23  24
ENDBRANCH   4  23
TORSDOF 8
ENDMDL
MODEL 8
REMARK VINA RESULT:      -7.2      6.631     10.191
REMARK  Name = 
REMARK  9 active torsions:
REMARK  status: ('A' for Active; 'I' for Inactive)
REMARK    1  A    between atoms: C_1  and  C_2
REMARK    2  A    between atoms: C_2  and  O_3
REMARK    3  A    between atoms: O_3  and  C_4
REMARK    4  A    between atoms: C_7  and  N_8
REMARK    5  A    between atoms: C_9  and  C_11
REMARK    6  A    between atoms: C_11  and  O_12
REMARK    7  A    between atoms: O_12  and  C_13
REMARK    8  A    between atoms: C_16  and  C_17
REMARK    9  A    between atoms: C_17  and  N_18
REMARK                            x       y       z     vdW  Elec       q    Type
REMARK                         _______ _______ _______ _____ _____    ______ ____
ROOT
ATOM      1  C   UNL     1       0.849   9.483  21.537  0.00  0.00    +0.000 A 
ATOM      2  C   UNL     1       0.587  10.005  20.340  0.00  0.00    +0.000 A 
ATOM      3  O   UNL     1      -0.325  10.990  20.086  0.00  0.00    +0.000 OA
ATOM      4  C   UNL     1      -1.134  11.453  21.105  0.00  0.00    +0.000 A 
ATOM      5  C   UNL     1      -0.973  11.039  22.377  0.00  0.00    +0.000 A 
ATOM      6  C   UNL     1       0.065  10.035  22.689  0.00  0.00    +0.000 A 
ATOM      7  O   UNL     1       0.251   9.705  23.828  0.00  0.00    +0.000 OA
ENDROOT
BRANCH   1   8
ATOM      8  O   UNL     1       1.851   8.535  21.646  0.00  0.00    +0.000 OA
BRANCH   8   9
ATOM      9  C   UNL     1       1.523   7.270  21.079  0.00  0.00    +0.000 C 
BRANCH   9  11
ATOM     10  N   UNL     1       3.241   6.008  19.872  0.00  0.00    +0.000 N 
ATOM     11  C   UNL     1       2.314   7.036  19.787  0.00  0.00    +0.000 C 
ATOM     12  O   UNL     1       2.075   7.719  18.794  0.00  0.00    +0.000 OA
ATOM     13  H   UNL     1       3.302   5.546  20.776  0.00  0.00    +0.000 HD
BRANCH  10  17
ATOM     14  C   UNL     1       5.999   4.733  16.924  0.00  0.00    +0.000 A 
ATOM     15  C   UNL     1       4.713   5.114  16.552  0.00  0.00    +0.000 A 
ATOM     16  C   UNL     1       3.786   5.535  17.510  0.00  0.00    +0.000 A 
ATOM     17  C   UNL     1       4.126   5.570  18.862  0.00  0.00    +0.000 A 
ATOM     18  C   UNL     1       5.412   5.157  19.236  0.00  0.00    +0.000 A 
ATOM     19  C   UNL     1       6.343   4.732  18.273  0.00  0.00    +0.000 A 
BRANCH  14  20
ATOM     20  O   UNL     1       6.808   4.369  15.885  0.00  0.00    +0.000 OA
BRANCH  20  22
ATOM     21  C   UNL     1       6.377   3.858  13.601  0.00  0.00    +0.000 C 
ATOM     22  C   UNL     1       6.538   4.972  14.622  0.00  0.00    +0.000 C 
ENDBRANCH  20  22
ENDBRANCH  14  20
ENDBRANCH  10  17
ENDBRANCH   9  11
ENDBRANCH   8   9
ENDBRANCH   1   8
BRANCH   4  23
ATOM     23  C   UNL     1      -2.098  12.539  20.684  0.00  0.00    +0.000 C 
BRANCH  23  24
ATOM     24  N   UNL     1      -2.800  12.380  19.416  0.00  0.00    +0.000 NA
ATOM     25  C   UNL     1      -3.958  11.481  19.330  0.00  0.00    +0.000 C 
ATOM     26  C   UNL     1      -4.679  11.633  17.912  0.00  0.00    +0.000 C 
ATOM     27  C   UNL     1      -3.652  11.623  16.748  0.00  0.00    +0.000 A 
ATOM     28  C   UNL     1      -3.916  11.179  15.467  0.00  0.00    +0.000 A 
ATOM     29  C   UNL     1      -3.375   9.957  15.088  0.00  0.00    +0.000 A 
ATOM     30  C   UNL     1      -2.619   9.247  16.020  0.00  0.00    +0.000 A 
ATOM     31  C   UNL     1      -2.087   9.941  17.112  0.00  0.00    +0.000 A 
ATOM     32  C   UNL     1      -2.422  11.281  17.259  0.00  0.00    +0.000 A 
ATOM     33  C   UNL     1      -1.943  12.305  18.238  0.00  0.00    +0.000 C 
ENDBRANCH  23  24
ENDBRANCH   4  23
TORSDOF 8
ENDMDL
MODEL 9
REMARK VINA RESULT:      -7.1      9.071     12.271
REMARK  Name = 
REMARK  9 active torsions:
REMARK  status: ('A' for Active; 'I' for Inactive)
REMARK    1  A    between atoms: C_1  and  C_2
REMARK    2  A    between atoms: C_2  and  O_3
REMARK    3  A    between atoms: O_3  and  C_4
REMARK    4  A    between atoms: C_7  and  N_8
REMARK    5  A    between atoms: C_9  and  C_11
REMARK    6  A    between atoms: C_11  and  O_12
REMARK    7  A    between atoms: O_12  and  C_13
REMARK    8  A    between atoms: C_16  and  C_17
REMARK    9  A    between atoms: C_17  and  N_18
REMARK                            x       y       z     vdW  Elec       q    Type
REMARK                         _______ _______ _______ _____ _____    ______ ____
ROOT
ATOM      1  C   UNL     1      -0.305   9.727  21.486  0.00  0.00    +0.000 A 
ATOM      2  C   UNL     1      -0.308  10.019  22.786  0.00  0.00    +0.000 A 
ATOM      3  O   UNL     1      -0.616  11.235  23.327  0.00  0.00    +0.000 OA
ATOM      4  C   UNL     1      -0.862  12.311  22.496  0.00  0.00    +0.000 A 
ATOM      5  C   UNL     1      -0.919  12.169  21.157  0.00  0.00    +0.000 A 
ATOM      6  C   UNL     1      -0.672  10.843  20.555  0.00  0.00    +0.000 A 
ATOM      7  O   UNL     1      -0.778  10.699  19.367  0.00  0.00    +0.000 OA
ENDROOT
BRANCH   1   8
ATOM      8  O   UNL     1      -0.037   8.429  21.095  0.00  0.00    +0.000 OA
BRANCH   8   9
ATOM      9  C   UNL     1       1.292   7.997  21.375  0.00  0.00    +0.000 C 
BRANCH   9  11
ATOM     10  N   UNL     1       2.555   6.255  20.202  0.00  0.00    +0.000 N 
ATOM     11  C   UNL     1       1.985   7.515  20.094  0.00  0.00    +0.000 C 
ATOM     12  O   UNL     1       1.971   8.224  19.091  0.00  0.00    +0.000 OA
ATOM     13  H   UNL     1       2.466   5.810  21.111  0.00  0.00    +0.000 HD
BRANCH  10  17
ATOM     14  C   UNL     1       4.818   4.232  17.251  0.00  0.00    +0.000 A 
ATOM     15  C   UNL     1       3.434   4.310  17.130  0.00  0.00    +0.000 A 
ATOM     16  C   UNL     1       2.668   4.972  18.095  0.00  0.00    +0.000 A 
ATOM     17  C   UNL     1       3.273   5.556  19.207  0.00  0.00    +0.000 A 
ATOM     18  C   UNL     1       4.664   5.449  19.341  0.00  0.00    +0.000 A 
ATOM     19  C   UNL     1       5.434   4.783  18.372  0.00  0.00    +0.000 A 
BRANCH  14  20
ATOM     20  O   UNL     1       5.443   3.581  16.225  0.00  0.00    +0.000 OA
BRANCH  20  22
ATOM     21  C   UNL     1       6.958   4.876  14.926  0.00  0.00    +0.000 C 
ATOM     22  C   UNL     1       5.558   4.289  14.994  0.00  0.00    +0.000 C 
ENDBRANCH  20  22
ENDBRANCH  14  20
ENDBRANCH  10  17
ENDBRANCH   9  11
ENDBRANCH   8   9
ENDBRANCH   1   8
BRANCH   4  23
ATOM     23  C   UNL     1      -1.186  13.594  23.226  0.00  0.00    +0.000 C 
BRANCH  23  24
ATOM     24  N   UNL     1      -2.408  14.301  22.861  0.00  0.00    +0.000 NA
ATOM     25  C   UNL     1      -2.327  15.650  22.286  0.00  0.00    +0.000 C 
ATOM     26  C   UNL     1      -3.765  16.128  21.780  0.00  0.00    +0.000 C 
ATOM     27  C   UNL     1      -4.865  15.844  22.837  0.00  0.00    +0.000 A 
ATOM     28  C   UNL     1      -6.022  16.582  22.990  0.00  0.00    +0.000 A 
ATOM     29  C   UNL     1      -6.102  17.429  24.088  0.00  0.00    +0.000 A 
ATOM     30  C   UNL     1      -5.011  17.497  24.955  0.00  0.00    +0.000 A 
ATOM     31  C   UNL     1      -4.086  16.448  24.944  0.00  0.00    +0.000 A 
ATOM     32  C   UNL     1      -4.252  15.443  24.001  0.00  0.00    +0.000 A 
ATOM     33  C   UNL     1      -3.512  14.158  23.803  0.00  0.00    +0.000 C 
ENDBRANCH  23  24
ENDBRANCH   4  23
TORSDOF 8
ENDMDL
