MODEL 1
REMARK VINA RESULT:      -8.7      0.000      0.000
REMARK  Name = 
REMARK  8 active torsions:
REMARK  status: ('A' for Active; 'I' for Inactive)
REMARK    1  A    between atoms: C_1  and  C_2
REMARK    2  A    between atoms: C_6  and  C_7
REMARK    3  A    between atoms: C_7  and  O_8
REMARK    4  A    between atoms: C_7  and  C_9
REMARK    5  A    between atoms: C_15  and  C_16
REMARK    6  A    between atoms: N_18  and  C_19
REMARK    7  A    between atoms: C_19  and  C_20
REMARK    8  A    between atoms: C_26  and  N_27
REMARK                            x       y       z     vdW  Elec       q    Type
REMARK                         _______ _______ _______ _____ _____    ______ ____
ROOT
ATOM      1  C   UNL     1       6.871   5.137  15.323  0.00  0.00    +0.000 C 
ATOM      2  O   UNL     1       7.633   5.671  14.511  0.00  0.00    +0.000 OA
ATOM      3  N   UNL     1       6.759   5.583  16.648  0.00  0.00    +0.000 N 
ATOM      4  N   UNL     1       7.462   6.713  17.013  0.00  0.00    +0.000 NA
ATOM      5  C   UNL     1       7.592   6.685  18.296  0.00  0.00    +0.000 C 
ATOM      6  C   UNL     1       7.013   5.502  18.990  0.00  0.00    +0.000 C 
ATOM      7  C   UNL     1       6.432   4.741  17.809  0.00  0.00    +0.000 C 
ENDROOT
BRANCH   7   8
ATOM      8  C   UNL     1       4.936   4.491  18.045  0.00  0.00    +0.000 C 
ATOM      9  O   UNL     1       4.565   3.754  18.967  0.00  0.00    +0.000 OA
ATOM     10  N   UNL     1       4.043   5.236  17.302  0.00  0.00    +0.000 N 
ATOM     11  H   UNL     1       4.415   6.083  16.882  0.00  0.00    +0.000 HD
BRANCH  10  12
ATOM     12  C   UNL     1       2.639   5.243  17.682  0.00  0.00    +0.000 C 
BRANCH  12  13
ATOM     13  C   UNL     1       2.241   6.359  18.630  0.00  0.00    +0.000 A 
ATOM     14  C   UNL     1       2.290   7.678  18.120  0.00  0.00    +0.000 A 
ATOM     15  C   UNL     1       1.917   8.780  18.894  0.00  0.00    +0.000 A 
ATOM     16 CL   UNL     1       2.008  10.366  18.234  0.00  0.00    +0.000 Cl
ATOM     17  C   UNL     1       1.470   8.603  20.194  0.00  0.00    +0.000 A 
ATOM     18  C   UNL     1       1.429   7.321  20.733  0.00  0.00    +0.000 A 
ATOM     19  C   UNL     1       1.824   6.198  19.971  0.00  0.00    +0.000 A 
BRANCH  19  20
ATOM     20  N   UNL     1       1.786   4.941  20.614  0.00  0.00    +0.000 N 
ATOM     21  C   UNL     1       0.913   3.907  20.387  0.00  0.00    +0.000 A 
ATOM     22  N   UNL     1       1.230   2.893  21.162  0.00  0.00    +0.000 NA
ATOM     23  N   UNL     1       2.293   3.320  21.907  0.00  0.00    +0.000 NA
ATOM     24  N   UNL     1       2.616   4.572  21.613  0.00  0.00    +0.000 NA
ENDBRANCH  19  20
ENDBRANCH  12  13
ENDBRANCH  10  12
ENDBRANCH   7   8
BRANCH   1  25
ATOM     25  C   UNL     1       5.968   3.931  14.956  0.00  0.00    +0.000 C 
BRANCH  25  31
ATOM     26  C   UNL     1       3.228   3.114  10.743  0.00  0.00    +0.000 C 
ATOM     27  C   UNL     1       4.562   3.228  11.424  0.00  0.00    +0.000 A 
ATOM     28  C   UNL     1       5.747   2.990  10.725  0.00  0.00    +0.000 A 
ATOM     29  C   UNL     1       6.975   3.075  11.379  0.00  0.00    +0.000 A 
ATOM     30  C   UNL     1       7.021   3.382  12.738  0.00  0.00    +0.000 A 
ATOM     31  C   UNL     1       5.844   3.600  13.475  0.00  0.00    +0.000 A 
ATOM     32  C   UNL     1       4.619   3.544  12.792  0.00  0.00    +0.000 A 
ENDBRANCH  25  31
BRANCH  25  33
ATOM     33  O   UNL     1       6.325   2.758  15.679  0.00  0.00    +0.000 OA
ATOM     34  H   UNL     1       5.830   2.020  15.282  0.00  0.00    +0.000 HD
ENDBRANCH  25  33
ENDBRANCH   1  25
TORSDOF 7
ENDMDL
MODEL 2
REMARK VINA RESULT:      -8.7      4.828      9.041
REMARK  Name = 
REMARK  8 active torsions:
REMARK  status: ('A' for Active; 'I' for Inactive)
REMARK    1  A    between atoms: C_1  and  C_2
REMARK    2  A    between atoms: C_6  and  C_7
REMARK    3  A    between atoms: C_7  and  O_8
REMARK    4  A    between atoms: C_7  and  C_9
REMARK    5  A    between atoms: C_15  and  C_16
REMARK    6  A    between atoms: N_18  and  C_19
REMARK    7  A    between atoms: C_19  and  C_20
REMARK    8  A    between atoms: C_26  and  N_27
REMARK                            x       y       z     vdW  Elec       q    Type
REMARK                         _______ _______ _______ _____ _____    ______ ____
ROOT
ATOM      1  C   UNL     1      -1.199  11.117  20.436  0.00  0.00    +0.000 C 
ATOM      2  O   UNL     1      -2.133  11.665  21.030  0.00  0.00    +0.000 OA
ATOM      3  N   UNL     1      -0.356  10.188  21.063  0.00  0.00    +0.000 N 
ATOM      4  N   UNL     1      -0.650   9.819  22.360  0.00  0.00    +0.000 NA
ATOM      5  C   UNL     1       0.435   9.354  22.881  0.00  0.00    +0.000 C 
ATOM      6  C   UNL     1       1.642   9.370  22.010  0.00  0.00    +0.000 C 
ATOM      7  C   UNL     1       1.059   9.961  20.736  0.00  0.00    +0.000 C 
ENDROOT
BRANCH   7   8
ATOM      8  C   UNL     1       1.323   9.008  19.561  0.00  0.00    +0.000 C 
ATOM      9  O   UNL     1       1.069   9.360  18.403  0.00  0.00    +0.000 OA
ATOM     10  N   UNL     1       1.988   7.830  19.837  0.00  0.00    +0.000 N 
ATOM     11  H   UNL     1       2.509   7.810  20.710  0.00  0.00    +0.000 HD
BRANCH  10  12
ATOM     12  C   UNL     1       2.506   7.035  18.735  0.00  0.00    +0.000 C 
BRANCH  12  13
ATOM     13  C   UNL     1       2.997   5.653  19.122  0.00  0.00    +0.000 A 
ATOM     14  C   UNL     1       2.251   4.962  20.106  0.00  0.00    +0.000 A 
ATOM     15  C   UNL     1       2.594   3.672  20.518  0.00  0.00    +0.000 A 
ATOM     16 CL   UNL     1       1.665   2.880  21.730  0.00  0.00    +0.000 Cl
ATOM     17  C   UNL     1       3.679   3.021  19.952  0.00  0.00    +0.000 A 
ATOM     18  C   UNL     1       4.446   3.680  18.996  0.00  0.00    +0.000 A 
ATOM     19  C   UNL     1       4.127   4.993  18.584  0.00  0.00    +0.000 A 
BRANCH  19  20
ATOM     20  N   UNL     1       4.984   5.595  17.638  0.00  0.00    +0.000 N 
ATOM     21  C   UNL     1       6.121   6.325  17.877  0.00  0.00    +0.000 A 
ATOM     22  N   UNL     1       6.658   6.682  16.731  0.00  0.00    +0.000 NA
ATOM     23  N   UNL     1       5.818   6.198  15.767  0.00  0.00    +0.000 NA
ATOM     24  N   UNL     1       4.780   5.572  16.303  0.00  0.00    +0.000 NA
ENDBRANCH  19  20
ENDBRANCH  12  13
ENDBRANCH  10  12
ENDBRANCH   7   8
BRANCH   1  25
ATOM     25  C   UNL     1      -0.874  11.400  18.946  0.00  0.00    +0.000 C 
BRANCH  25  31
ATOM     26  C   UNL     1      -5.553  12.198  17.104  0.00  0.00    +0.000 C 
ATOM     27  C   UNL     1      -4.222  11.510  17.015  0.00  0.00    +0.000 A 
ATOM     28  C   UNL     1      -3.971  10.559  16.024  0.00  0.00    +0.000 A 
ATOM     29  C   UNL     1      -2.738   9.910  15.972  0.00  0.00    +0.000 A 
ATOM     30  C   UNL     1      -1.757  10.199  16.919  0.00  0.00    +0.000 A 
ATOM     31  C   UNL     1      -1.989  11.133  17.944  0.00  0.00    +0.000 A 
ATOM     32  C   UNL     1      -3.224  11.800  17.961  0.00  0.00    +0.000 A 
ENDBRANCH  25  31
BRANCH  25  33
ATOM     33  O   UNL     1      -0.361  12.713  18.752  0.00  0.00    +0.000 OA
ATOM     34  H   UNL     1      -1.077  13.240  18.356  0.00  0.00    +0.000 HD
ENDBRANCH  25  33
ENDBRANCH   1  25
TORSDOF 7
ENDMDL
MODEL 3
REMARK VINA RESULT:      -8.7      4.836      9.072
REMARK  Name = 
REMARK  8 active torsions:
REMARK  status: ('A' for Active; 'I' for Inactive)
REMARK    1  A    between atoms: C_1  and  C_2
REMARK    2  A    between atoms: C_6  and  C_7
REMARK    3  A    between atoms: C_7  and  O_8
REMARK    4  A    between atoms: C_7  and  C_9
REMARK    5  A    between atoms: C_15  and  C_16
REMARK    6  A    between atoms: N_18  and  C_19
REMARK    7  A    between atoms: C_19  and  C_20
REMARK    8  A    between atoms: C_26  and  N_27
REMARK                            x       y       z     vdW  Elec       q    Type
REMARK                         _______ _______ _______ _____ _____    ______ ____
ROOT
ATOM      1  C   UNL     1      -1.235  11.239  20.568  0.00  0.00    +0.000 C 
ATOM      2  O   UNL     1      -2.148  11.795  21.186  0.00  0.00    +0.000 OA
ATOM      3  N   UNL     1      -0.388  10.298  21.172  0.00  0.00    +0.000 N 
ATOM      4  N   UNL     1      -0.655   9.928  22.474  0.00  0.00    +0.000 NA
ATOM      5  C   UNL     1       0.436   9.448  22.967  0.00  0.00    +0.000 C 
ATOM      6  C   UNL     1       1.622   9.453  22.068  0.00  0.00    +0.000 C 
ATOM      7  C   UNL     1       1.016  10.055  20.810  0.00  0.00    +0.000 C 
ENDROOT
BRANCH   7   8
ATOM      8  C   UNL     1       1.240   9.103  19.627  0.00  0.00    +0.000 C 
ATOM      9  O   UNL     1       0.938   9.452  18.479  0.00  0.00    +0.000 OA
ATOM     10  N   UNL     1       1.925   7.931  19.876  0.00  0.00    +0.000 N 
ATOM     11  H   UNL     1       2.481   7.916  20.727  0.00  0.00    +0.000 HD
BRANCH  10  12
ATOM     12  C   UNL     1       2.405   7.139  18.754  0.00  0.00    +0.000 C 
BRANCH  12  13
ATOM     13  C   UNL     1       2.929   5.764  19.123  0.00  0.00    +0.000 A 
ATOM     14  C   UNL     1       2.202   5.044  20.101  0.00  0.00    +0.000 A 
ATOM     15  C   UNL     1       2.575   3.757  20.496  0.00  0.00    +0.000 A 
ATOM     16 CL   UNL     1       1.668   2.928  21.700  0.00  0.00    +0.000 Cl
ATOM     17  C   UNL     1       3.674   3.138  19.920  0.00  0.00    +0.000 A 
ATOM     18  C   UNL     1       4.423   3.827  18.970  0.00  0.00    +0.000 A 
ATOM     19  C   UNL     1       4.072   5.137  18.576  0.00  0.00    +0.000 A 
BRANCH  19  20
ATOM     20  N   UNL     1       4.913   5.771  17.635  0.00  0.00    +0.000 N 
ATOM     21  C   UNL     1       6.022   6.542  17.881  0.00  0.00    +0.000 A 
ATOM     22  N   UNL     1       6.552   6.918  16.739  0.00  0.00    +0.000 NA
ATOM     23  N   UNL     1       5.737   6.404  15.770  0.00  0.00    +0.000 NA
ATOM     24  N   UNL     1       4.719   5.740  16.298  0.00  0.00    +0.000 NA
ENDBRANCH  19  20
ENDBRANCH  12  13
ENDBRANCH  10  12
ENDBRANCH   7   8
BRANCH   1  25
ATOM     25  C   UNL     1      -0.943  11.522  19.072  0.00  0.00    +0.000 C 
BRANCH  25  31
ATOM     26  C   UNL     1      -2.917  10.064  14.611  0.00  0.00    +0.000 C 
ATOM     27  C   UNL     1      -3.098  10.641  15.985  0.00  0.00    +0.000 A 
ATOM     28  C   UNL     1      -4.349  11.088  16.417  0.00  0.00    +0.000 A 
ATOM     29  C   UNL     1      -4.493  11.645  17.686  0.00  0.00    +0.000 A 
ATOM     30  C   UNL     1      -3.385  11.771  18.523  0.00  0.00    +0.000 A 
ATOM     31  C   UNL     1      -2.109  11.354  18.107  0.00  0.00    +0.000 A 
ATOM     32  C   UNL     1      -1.988  10.765  16.839  0.00  0.00    +0.000 A 
ENDBRANCH  25  31
BRANCH  25  33
ATOM     33  O   UNL     1      -0.343  12.798  18.879  0.00  0.00    +0.000 OA
ATOM     34  H   UNL     1      -0.263  12.930  17.918  0.00  0.00    +0.000 HD
ENDBRANCH  25  33
ENDBRANCH   1  25
TORSDOF 7
ENDMDL
MODEL 4
REMARK VINA RESULT:      -8.5      9.586     11.990
REMARK  Name = 
REMARK  8 active torsions:
REMARK  status: ('A' for Active; 'I' for Inactive)
REMARK    1  A    between atoms: C_1  and  C_2
REMARK    2  A    between atoms: C_6  and  C_7
REMARK    3  A    between atoms: C_7  and  O_8
REMARK    4  A    between atoms: C_7  and  C_9
REMARK    5  A    between atoms: C_15  and  C_16
REMARK    6  A    between atoms: N_18  and  C_19
REMARK    7  A    between atoms: C_19  and  C_20
REMARK    8  A    between atoms: C_26  and  N_27
REMARK                            x       y       z     vdW  Elec       q    Type
REMARK                         _______ _______ _______ _____ _____    ______ ____
ROOT
ATOM      1  C   UNL     1      -6.164  11.554  18.771  0.00  0.00    +0.000 C 
ATOM      2  O   UNL     1      -6.870  10.601  18.430  0.00  0.00    +0.000 OA
ATOM      3  N   UNL     1      -6.165  12.054  20.082  0.00  0.00    +0.000 N 
ATOM      4  N   UNL     1      -6.917  11.388  21.028  0.00  0.00    +0.000 NA
ATOM      5  C   UNL     1      -7.147  12.217  21.989  0.00  0.00    +0.000 C 
ATOM      6  C   UNL     1      -6.602  13.592  21.814  0.00  0.00    +0.000 C 
ATOM      7  C   UNL     1      -5.915  13.451  20.465  0.00  0.00    +0.000 C 
ENDROOT
BRANCH   7   8
ATOM      8  C   UNL     1      -4.438  13.847  20.598  0.00  0.00    +0.000 C 
ATOM      9  O   UNL     1      -4.120  14.875  21.207  0.00  0.00    +0.000 OA
ATOM     10  N   UNL     1      -3.495  12.940  20.155  0.00  0.00    +0.000 N 
ATOM     11  H   UNL     1      -3.817  11.982  20.055  0.00  0.00    +0.000 HD
BRANCH  10  12
ATOM     12  C   UNL     1      -2.099  13.140  20.512  0.00  0.00    +0.000 C 
BRANCH  12  13
ATOM     13  C   UNL     1      -1.474  12.003  21.299  0.00  0.00    +0.000 A 
ATOM     14  C   UNL     1      -0.578  11.160  20.601  0.00  0.00    +0.000 A 
ATOM     15  C   UNL     1       0.078  10.100  21.233  0.00  0.00    +0.000 A 
ATOM     16 CL   UNL     1       1.147   9.093  20.338  0.00  0.00    +0.000 Cl
ATOM     17  C   UNL     1      -0.124   9.856  22.582  0.00  0.00    +0.000 A 
ATOM     18  C   UNL     1      -1.015  10.654  23.294  0.00  0.00    +0.000 A 
ATOM     19  C   UNL     1      -1.704  11.716  22.664  0.00  0.00    +0.000 A 
BRANCH  19  20
ATOM     20  N   UNL     1      -2.616  12.447  23.456  0.00  0.00    +0.000 N 
ATOM     21  C   UNL     1      -2.451  13.701  23.988  0.00  0.00    +0.000 A 
ATOM     22  N   UNL     1      -3.544  14.048  24.631  0.00  0.00    +0.000 NA
ATOM     23  N   UNL     1      -4.385  12.975  24.528  0.00  0.00    +0.000 NA
ATOM     24  N   UNL     1      -3.821  11.984  23.853  0.00  0.00    +0.000 NA
ENDBRANCH  19  20
ENDBRANCH  12  13
ENDBRANCH  10  12
ENDBRANCH   7   8
BRANCH   1  25
ATOM     25  C   UNL     1      -5.212  12.285  17.790  0.00  0.00    +0.000 C 
BRANCH  25  31
ATOM     26  C   UNL     1      -0.906   9.582  17.509  0.00  0.00    +0.000 C 
ATOM     27  C   UNL     1      -2.168  10.086  16.870  0.00  0.00    +0.000 A 
ATOM     28  C   UNL     1      -2.455   9.807  15.532  0.00  0.00    +0.000 A 
ATOM     29  C   UNL     1      -3.619  10.305  14.947  0.00  0.00    +0.000 A 
ATOM     30  C   UNL     1      -4.491  11.096  15.693  0.00  0.00    +0.000 A 
ATOM     31  C   UNL     1      -4.216  11.416  17.034  0.00  0.00    +0.000 A 
ATOM     32  C   UNL     1      -3.057  10.879  17.616  0.00  0.00    +0.000 A 
ENDBRANCH  25  31
BRANCH  25  33
ATOM     33  O   UNL     1      -5.922  13.108  16.870  0.00  0.00    +0.000 OA
ATOM     34  H   UNL     1      -6.693  13.463  17.347  0.00  0.00    +0.000 HD
ENDBRANCH  25  33
ENDBRANCH   1  25
TORSDOF 7
ENDMDL
MODEL 5
REMARK VINA RESULT:      -8.3      4.756      8.621
REMARK  Name = 
REMARK  8 active torsions:
REMARK  status: ('A' for Active; 'I' for Inactive)
REMARK    1  A    between atoms: C_1  and  C_2
REMARK    2  A    between atoms: C_6  and  C_7
REMARK    3  A    between atoms: C_7  and  O_8
REMARK    4  A    between atoms: C_7  and  C_9
REMARK    5  A    between atoms: C_15  and  C_16
REMARK    6  A    between atoms: N_18  and  C_19
REMARK    7  A    between atoms: C_19  and  C_20
REMARK    8  A    between atoms: C_26  and  N_27
REMARK                            x       y       z     vdW  Elec       q    Type
REMARK                         _______ _______ _______ _____ _____    ______ ____
ROOT
ATOM      1  C   UNL     1      -1.169  11.228  20.473  0.00  0.00    +0.000 C 
ATOM      2  O   UNL     1      -2.033  11.769  21.170  0.00  0.00    +0.000 OA
ATOM      3  N   UNL     1      -0.318  10.232  20.975  0.00  0.00    +0.000 N 
ATOM      4  N   UNL     1      -0.529   9.791  22.266  0.00  0.00    +0.000 NA
ATOM      5  C   UNL     1       0.573   9.256  22.672  0.00  0.00    +0.000 C 
ATOM      6  C   UNL     1       1.711   9.286  21.713  0.00  0.00    +0.000 C 
ATOM      7  C   UNL     1       1.058   9.977  20.526  0.00  0.00    +0.000 C 
ENDROOT
BRANCH   7   8
ATOM      8  C   UNL     1       1.195   9.093  19.279  0.00  0.00    +0.000 C 
ATOM      9  O   UNL     1       0.827   9.510  18.174  0.00  0.00    +0.000 OA
ATOM     10  N   UNL     1       1.879   7.901  19.418  0.00  0.00    +0.000 N 
ATOM     11  H   UNL     1       2.486   7.832  20.230  0.00  0.00    +0.000 HD
BRANCH  10  12
ATOM     12  C   UNL     1       2.277   7.171  18.225  0.00  0.00    +0.000 C 
BRANCH  12  13
ATOM     13  C   UNL     1       3.558   6.370  18.366  0.00  0.00    +0.000 A 
ATOM     14  C   UNL     1       4.723   6.919  17.779  0.00  0.00    +0.000 A 
ATOM     15  C   UNL     1       5.963   6.283  17.872  0.00  0.00    +0.000 A 
ATOM     16 CL   UNL     1       7.348   6.983  17.128  0.00  0.00    +0.000 Cl
ATOM     17  C   UNL     1       6.088   5.090  18.566  0.00  0.00    +0.000 A 
ATOM     18  C   UNL     1       4.958   4.513  19.139  0.00  0.00    +0.000 A 
ATOM     19  C   UNL     1       3.692   5.131  19.034  0.00  0.00    +0.000 A 
BRANCH  19  20
ATOM     20  N   UNL     1       2.597   4.453  19.612  0.00  0.00    +0.000 N 
ATOM     21  C   UNL     1       2.321   4.285  20.946  0.00  0.00    +0.000 A 
ATOM     22  N   UNL     1       1.190   3.629  21.076  0.00  0.00    +0.000 NA
ATOM     23  N   UNL     1       0.778   3.353  19.803  0.00  0.00    +0.000 NA
ATOM     24  N   UNL     1       1.640   3.811  18.907  0.00  0.00    +0.000 NA
ENDBRANCH  19  20
ENDBRANCH  12  13
ENDBRANCH  10  12
ENDBRANCH   7   8
BRANCH   1  25
ATOM     25  C   UNL     1      -0.945  11.594  18.983  0.00  0.00    +0.000 C 
BRANCH  25  31
ATOM     26  C   UNL     1      -2.971  10.085  14.562  0.00  0.00    +0.000 C 
ATOM     27  C   UNL     1      -3.141  10.645  15.945  0.00  0.00    +0.000 A 
ATOM     28  C   UNL     1      -4.397  11.037  16.411  0.00  0.00    +0.000 A 
ATOM     29  C   UNL     1      -4.532  11.578  17.688  0.00  0.00    +0.000 A 
ATOM     30  C   UNL     1      -3.410  11.745  18.498  0.00  0.00    +0.000 A 
ATOM     31  C   UNL     1      -2.128  11.384  18.046  0.00  0.00    +0.000 A 
ATOM     32  C   UNL     1      -2.016  10.810  16.771  0.00  0.00    +0.000 A 
ENDBRANCH  25  31
BRANCH  25  33
ATOM     33  O   UNL     1      -0.442  12.916  18.828  0.00  0.00    +0.000 OA
ATOM     34  H   UNL     1      -1.149  13.441  18.414  0.00  0.00    +0.000 HD
ENDBRANCH  25  33
ENDBRANCH   1  25
TORSDOF 7
ENDMDL
MODEL 6
REMARK VINA RESULT:      -8.3      0.756      1.385
REMARK  Name = 
REMARK  8 active torsions:
REMARK  status: ('A' for Active; 'I' for Inactive)
REMARK    1  A    between atoms: C_1  and  C_2
REMARK    2  A    between atoms: C_6  and  C_7
REMARK    3  A    between atoms: C_7  and  O_8
REMARK    4  A    between atoms: C_7  and  C_9
REMARK    5  A    between atoms: C_15  and  C_16
REMARK    6  A    between atoms: N_18  and  C_19
REMARK    7  A    between atoms: C_19  and  C_20
REMARK    8  A    between atoms: C_26  and  N_27
REMARK                            x       y       z     vdW  Elec       q    Type
REMARK                         _______ _______ _______ _____ _____    ______ ____
ROOT
ATOM      1  C   UNL     1       6.696   5.224  15.106  0.00  0.00    +0.000 C 
ATOM      2  O   UNL     1       7.243   5.806  14.165  0.00  0.00    +0.000 OA
ATOM      3  N   UNL     1       6.767   5.699  16.424  0.00  0.00    +0.000 N 
ATOM      4  N   UNL     1       7.396   6.907  16.643  0.00  0.00    +0.000 NA
ATOM      5  C   UNL     1       7.749   6.936  17.884  0.00  0.00    +0.000 C 
ATOM      6  C   UNL     1       7.431   5.723  18.685  0.00  0.00    +0.000 C 
ATOM      7  C   UNL     1       6.740   4.867  17.635  0.00  0.00    +0.000 C 
ENDROOT
BRANCH   7   8
ATOM      8  C   UNL     1       5.344   4.470  18.135  0.00  0.00    +0.000 C 
ATOM      9  O   UNL     1       5.186   4.075  19.296  0.00  0.00    +0.000 OA
ATOM     10  N   UNL     1       4.275   4.722  17.298  0.00  0.00    +0.000 N 
ATOM     11  H   UNL     1       4.440   5.404  16.563  0.00  0.00    +0.000 HD
BRANCH  10  12
ATOM     12  C   UNL     1       2.923   4.629  17.828  0.00  0.00    +0.000 C 
BRANCH  12  13
ATOM     13  C   UNL     1       2.478   5.824  18.649  0.00  0.00    +0.000 A 
ATOM     14  C   UNL     1       2.582   7.095  18.036  0.00  0.00    +0.000 A 
ATOM     15  C   UNL     1       2.173   8.262  18.688  0.00  0.00    +0.000 A 
ATOM     16 CL   UNL     1       2.333   9.786  17.907  0.00  0.00    +0.000 Cl
ATOM     17  C   UNL     1       1.634   8.199  19.964  0.00  0.00    +0.000 A 
ATOM     18  C   UNL     1       1.536   6.967  20.603  0.00  0.00    +0.000 A 
ATOM     19  C   UNL     1       1.966   5.781  19.967  0.00  0.00    +0.000 A 
BRANCH  19  20
ATOM     20  N   UNL     1       1.864   4.583  20.708  0.00  0.00    +0.000 N 
ATOM     21  C   UNL     1       2.730   4.107  21.661  0.00  0.00    +0.000 A 
ATOM     22  N   UNL     1       2.265   2.977  22.144  0.00  0.00    +0.000 NA
ATOM     23  N   UNL     1       1.112   2.729  21.453  0.00  0.00    +0.000 NA
ATOM     24  N   UNL     1       0.878   3.673  20.553  0.00  0.00    +0.000 NA
ENDBRANCH  19  20
ENDBRANCH  12  13
ENDBRANCH  10  12
ENDBRANCH   7   8
BRANCH   1  25
ATOM     25  C   UNL     1       5.879   3.918  14.921  0.00  0.00    +0.000 C 
BRANCH  25  31
ATOM     26  C   UNL     1       7.146   1.413  10.674  0.00  0.00    +0.000 C 
ATOM     27  C   UNL     1       6.175   2.267  11.438  0.00  0.00    +0.000 A 
ATOM     28  C   UNL     1       5.001   2.730  10.840  0.00  0.00    +0.000 A 
ATOM     29  C   UNL     1       4.125   3.543  11.556  0.00  0.00    +0.000 A 
ATOM     30  C   UNL     1       4.426   3.909  12.867  0.00  0.00    +0.000 A 
ATOM     31  C   UNL     1       5.612   3.480  13.487  0.00  0.00    +0.000 A 
ATOM     32  C   UNL     1       6.467   2.635  12.762  0.00  0.00    +0.000 A 
ENDBRANCH  25  31
BRANCH  25  33
ATOM     33  O   UNL     1       6.433   2.834  15.657  0.00  0.00    +0.000 OA
ATOM     34  H   UNL     1       6.609   3.163  16.555  0.00  0.00    +0.000 HD
ENDBRANCH  25  33
ENDBRANCH   1  25
TORSDOF 7
ENDMDL
MODEL 7
REMARK VINA RESULT:      -8.3      4.711      8.509
REMARK  Name = 
REMARK  8 active torsions:
REMARK  status: ('A' for Active; 'I' for Inactive)
REMARK    1  A    between atoms: C_1  and  C_2
REMARK    2  A    between atoms: C_6  and  C_7
REMARK    3  A    between atoms: C_7  and  O_8
REMARK    4  A    between atoms: C_7  and  C_9
REMARK    5  A    between atoms: C_15  and  C_16
REMARK    6  A    between atoms: N_18  and  C_19
REMARK    7  A    between atoms: C_19  and  C_20
REMARK    8  A    between atoms: C_26  and  N_27
REMARK                            x       y       z     vdW  Elec       q    Type
REMARK                         _______ _______ _______ _____ _____    ______ ____
ROOT
ATOM      1  C   UNL     1      -1.025  11.045  20.112  0.00  0.00    +0.000 C 
ATOM      2  O   UNL     1      -1.892  11.622  20.774  0.00  0.00    +0.000 OA
ATOM      3  N   UNL     1      -0.163  10.092  20.677  0.00  0.00    +0.000 N 
ATOM      4  N   UNL     1      -0.366   9.736  21.994  0.00  0.00    +0.000 NA
ATOM      5  C   UNL     1       0.741   9.240  22.431  0.00  0.00    +0.000 C 
ATOM      6  C   UNL     1       1.877   9.216  21.469  0.00  0.00    +0.000 C 
ATOM      7  C   UNL     1       1.215   9.821  20.241  0.00  0.00    +0.000 C 
ENDROOT
BRANCH   7   8
ATOM      8  C   UNL     1       1.356   8.857  19.055  0.00  0.00    +0.000 C 
ATOM      9  O   UNL     1       1.112   9.242  17.905  0.00  0.00    +0.000 OA
ATOM     10  N   UNL     1       1.910   7.617  19.307  0.00  0.00    +0.000 N 
ATOM     11  H   UNL     1       2.447   7.540  20.167  0.00  0.00    +0.000 HD
BRANCH  10  12
ATOM     12  C   UNL     1       2.323   6.785  18.188  0.00  0.00    +0.000 C 
BRANCH  12  13
ATOM     13  C   UNL     1       3.642   6.062  18.384  0.00  0.00    +0.000 A 
ATOM     14  C   UNL     1       4.788   6.655  17.802  0.00  0.00    +0.000 A 
ATOM     15  C   UNL     1       6.059   6.091  17.944  0.00  0.00    +0.000 A 
ATOM     16 CL   UNL     1       7.420   6.841  17.205  0.00  0.00    +0.000 Cl
ATOM     17  C   UNL     1       6.233   4.931  18.682  0.00  0.00    +0.000 A 
ATOM     18  C   UNL     1       5.123   4.312  19.250  0.00  0.00    +0.000 A 
ATOM     19  C   UNL     1       3.828   4.856  19.097  0.00  0.00    +0.000 A 
BRANCH  19  20
ATOM     20  N   UNL     1       2.759   4.138  19.676  0.00  0.00    +0.000 N 
ATOM     21  C   UNL     1       2.278   4.234  20.958  0.00  0.00    +0.000 A 
ATOM     22  N   UNL     1       1.250   3.427  21.098  0.00  0.00    +0.000 NA
ATOM     23  N   UNL     1       1.115   2.793  19.894  0.00  0.00    +0.000 NA
ATOM     24  N   UNL     1       2.047   3.185  19.036  0.00  0.00    +0.000 NA
ENDBRANCH  19  20
ENDBRANCH  12  13
ENDBRANCH  10  12
ENDBRANCH   7   8
BRANCH   1  25
ATOM     25  C   UNL     1      -0.809  11.312  18.600  0.00  0.00    +0.000 C 
BRANCH  25  31
ATOM     26  C   UNL     1      -5.593  12.230  17.120  0.00  0.00    +0.000 C 
ATOM     27  C   UNL     1      -4.292  11.505  16.933  0.00  0.00    +0.000 A 
ATOM     28  C   UNL     1      -4.144  10.543  15.931  0.00  0.00    +0.000 A 
ATOM     29  C   UNL     1      -2.936   9.862  15.788  0.00  0.00    +0.000 A 
ATOM     30  C   UNL     1      -1.878  10.128  16.655  0.00  0.00    +0.000 A 
ATOM     31  C   UNL     1      -2.005  11.072  17.689  0.00  0.00    +0.000 A 
ATOM     32  C   UNL     1      -3.216  11.772  17.797  0.00  0.00    +0.000 A 
ENDBRANCH  25  31
BRANCH  25  33
ATOM     33  O   UNL     1      -0.278  12.611  18.359  0.00  0.00    +0.000 OA
ATOM     34  H   UNL     1      -0.356  12.774  17.403  0.00  0.00    +0.000 HD
ENDBRANCH  25  33
ENDBRANCH   1  25
TORSDOF 7
ENDMDL
MODEL 8
REMARK VINA RESULT:      -8.3     10.305     12.664
REMARK  Name = 
REMARK  8 active torsions:
REMARK  status: ('A' for Active; 'I' for Inactive)
REMARK    1  A    between atoms: C_1  and  C_2
REMARK    2  A    between atoms: C_6  and  C_7
REMARK    3  A    between atoms: C_7  and  O_8
REMARK    4  A    between atoms: C_7  and  C_9
REMARK    5  A    between atoms: C_15  and  C_16
REMARK    6  A    between atoms: N_18  and  C_19
REMARK    7  A    between atoms: C_19  and  C_20
REMARK    8  A    between atoms: C_26  and  N_27
REMARK                            x       y       z     vdW  Elec       q    Type
REMARK                         _______ _______ _______ _____ _____    ______ ____
ROOT
ATOM      1  C   UNL     1      -6.517  11.284  19.300  0.00  0.00    +0.000 C 
ATOM      2  O   UNL     1      -6.779  10.078  19.297  0.00  0.00    +0.000 OA
ATOM      3  N   UNL     1      -6.749  12.098  20.419  0.00  0.00    +0.000 N 
ATOM      4  N   UNL     1      -7.199  11.495  21.576  0.00  0.00    +0.000 NA
ATOM      5  C   UNL     1      -7.763  12.409  22.290  0.00  0.00    +0.000 C 
ATOM      6  C   UNL     1      -7.803  13.774  21.698  0.00  0.00    +0.000 C 
ATOM      7  C   UNL     1      -7.082  13.529  20.382  0.00  0.00    +0.000 C 
ENDROOT
BRANCH   7   8
ATOM      8  C   UNL     1      -5.886  14.485  20.266  0.00  0.00    +0.000 C 
ATOM      9  O   UNL     1      -6.069  15.692  20.068  0.00  0.00    +0.000 OA
ATOM     10  N   UNL     1      -4.635  13.972  20.548  0.00  0.00    +0.000 N 
ATOM     11  H   UNL     1      -4.621  13.111  21.087  0.00  0.00    +0.000 HD
BRANCH  10  12
ATOM     12  C   UNL     1      -3.520  14.889  20.727  0.00  0.00    +0.000 C 
BRANCH  12  13
ATOM     13  C   UNL     1      -2.184  14.221  20.992  0.00  0.00    +0.000 A 
ATOM     14  C   UNL     1      -1.176  14.396  20.013  0.00  0.00    +0.000 A 
ATOM     15  C   UNL     1       0.101  13.851  20.167  0.00  0.00    +0.000 A 
ATOM     16 CL   UNL     1       1.288  14.079  18.943  0.00  0.00    +0.000 Cl
ATOM     17  C   UNL     1       0.422  13.128  21.306  0.00  0.00    +0.000 A 
ATOM     18  C   UNL     1      -0.552  12.919  22.278  0.00  0.00    +0.000 A 
ATOM     19  C   UNL     1      -1.855  13.445  22.128  0.00  0.00    +0.000 A 
BRANCH  19  20
ATOM     20  N   UNL     1      -2.787  13.150  23.146  0.00  0.00    +0.000 N 
ATOM     21  C   UNL     1      -3.038  13.865  24.290  0.00  0.00    +0.000 A 
ATOM     22  N   UNL     1      -4.004  13.283  24.964  0.00  0.00    +0.000 NA
ATOM     23  N   UNL     1      -4.332  12.168  24.245  0.00  0.00    +0.000 NA
ATOM     24  N   UNL     1      -3.576  12.053  23.163  0.00  0.00    +0.000 NA
ENDBRANCH  19  20
ENDBRANCH  12  13
ENDBRANCH  10  12
ENDBRANCH   7   8
BRANCH   1  25
ATOM     25  C   UNL     1      -5.908  12.012  18.074  0.00  0.00    +0.000 C 
BRANCH  25  31
ATOM     26  C   UNL     1      -2.927  10.039  14.448  0.00  0.00    +0.000 C 
ATOM     27  C   UNL     1      -3.100  10.565  15.843  0.00  0.00    +0.000 A 
ATOM     28  C   UNL     1      -2.039  10.555  16.751  0.00  0.00    +0.000 A 
ATOM     29  C   UNL     1      -2.225  11.023  18.051  0.00  0.00    +0.000 A 
ATOM     30  C   UNL     1      -3.476  11.490  18.452  0.00  0.00    +0.000 A 
ATOM     31  C   UNL     1      -4.569  11.489  17.569  0.00  0.00    +0.000 A 
ATOM     32  C   UNL     1      -4.356  11.045  16.255  0.00  0.00    +0.000 A 
ENDBRANCH  25  31
BRANCH  25  33
ATOM     33  O   UNL     1      -6.828  12.094  16.991  0.00  0.00    +0.000 OA
ATOM     34  H   UNL     1      -7.515  11.425  17.153  0.00  0.00    +0.000 HD
ENDBRANCH  25  33
ENDBRANCH   1  25
TORSDOF 7
ENDMDL
MODEL 9
REMARK VINA RESULT:      -8.0      2.752      7.623
REMARK  Name = 
REMARK  8 active torsions:
REMARK  status: ('A' for Active; 'I' for Inactive)
REMARK    1  A    between atoms: C_1  and  C_2
REMARK    2  A    between atoms: C_6  and  C_7
REMARK    3  A    between atoms: C_7  and  O_8
REMARK    4  A    between atoms: C_7  and  C_9
REMARK    5  A    between atoms: C_15  and  C_16
REMARK    6  A    between atoms: N_18  and  C_19
REMARK    7  A    between atoms: C_19  and  C_20
REMARK    8  A    between atoms: C_26  and  N_27
REMARK                            x       y       z     vdW  Elec       q    Type
REMARK                         _______ _______ _______ _____ _____    ______ ____
ROOT
ATOM      1  C   UNL     1       2.547   5.137  20.436  0.00  0.00    +0.000 C 
ATOM      2  O   UNL     1       1.906   5.577  21.395  0.00  0.00    +0.000 OA
ATOM      3  N   UNL     1       2.944   3.794  20.355  0.00  0.00    +0.000 N 
ATOM      4  N   UNL     1       2.518   2.931  21.343  0.00  0.00    +0.000 NA
ATOM      5  C   UNL     1       3.322   1.923  21.345  0.00  0.00    +0.000 C 
ATOM      6  C   UNL     1       4.441   1.973  20.365  0.00  0.00    +0.000 C 
ATOM      7  C   UNL     1       4.153   3.300  19.679  0.00  0.00    +0.000 C 
ENDROOT
BRANCH   7   8
ATOM      8  C   UNL     1       4.023   3.077  18.166  0.00  0.00    +0.000 C 
ATOM      9  O   UNL     1       3.108   2.378  17.715  0.00  0.00    +0.000 OA
ATOM     10  N   UNL     1       4.857   3.807  17.343  0.00  0.00    +0.000 N 
ATOM     11  H   UNL     1       5.276   4.634  17.759  0.00  0.00    +0.000 HD
BRANCH  10  12
ATOM     12  C   UNL     1       4.586   3.846  15.914  0.00  0.00    +0.000 C 
BRANCH  12  13
ATOM     13  C   UNL     1       5.778   4.207  15.049  0.00  0.00    +0.000 A 
ATOM     14  C   UNL     1       5.725   3.813  13.691  0.00  0.00    +0.000 A 
ATOM     15  C   UNL     1       6.754   4.119  12.796  0.00  0.00    +0.000 A 
ATOM     16 CL   UNL     1       6.650   3.605  11.158  0.00  0.00    +0.000 Cl
ATOM     17  C   UNL     1       7.860   4.840  13.219  0.00  0.00    +0.000 A 
ATOM     18  C   UNL     1       7.953   5.225  14.553  0.00  0.00    +0.000 A 
ATOM     19  C   UNL     1       6.932   4.904  15.477  0.00  0.00    +0.000 A 
BRANCH  19  20
ATOM     20  N   UNL     1       7.131   5.302  16.817  0.00  0.00    +0.000 N 
ATOM     21  C   UNL     1       7.022   6.564  17.344  0.00  0.00    +0.000 A 
ATOM     22  N   UNL     1       7.248   6.515  18.638  0.00  0.00    +0.000 NA
ATOM     23  N   UNL     1       7.538   5.208  18.910  0.00  0.00    +0.000 NA
ATOM     24  N   UNL     1       7.510   4.469  17.810  0.00  0.00    +0.000 NA
ENDBRANCH  19  20
ENDBRANCH  12  13
ENDBRANCH  10  12
ENDBRANCH   7   8
BRANCH   1  25
ATOM     25  C   UNL     1       2.970   6.022  19.235  0.00  0.00    +0.000 C 
BRANCH  25  31
ATOM     26  C   UNL     1       0.310   9.897  21.193  0.00  0.00    +0.000 C 
ATOM     27  C   UNL     1       1.047   9.278  20.040  0.00  0.00    +0.000 A 
ATOM     28  C   UNL     1       1.110   9.920  18.801  0.00  0.00    +0.000 A 
ATOM     29  C   UNL     1       1.776   9.318  17.735  0.00  0.00    +0.000 A 
ATOM     30  C   UNL     1       2.369   8.068  17.898  0.00  0.00    +0.000 A 
ATOM     31  C   UNL     1       2.300   7.386  19.126  0.00  0.00    +0.000 A 
ATOM     32  C   UNL     1       1.654   8.021  20.198  0.00  0.00    +0.000 A 
ENDBRANCH  25  31
BRANCH  25  33
ATOM     33  O   UNL     1       4.383   6.176  19.157  0.00  0.00    +0.000 OA
ATOM     34  H   UNL     1       4.776   5.380  19.555  0.00  0.00    +0.000 HD
ENDBRANCH  25  33
ENDBRANCH   1  25
TORSDOF 7
ENDMDL
