MODEL 1
REMARK VINA RESULT:      -8.3      0.000      0.000
REMARK  Name = 
REMARK  4 active torsions:
REMARK  status: ('A' for Active; 'I' for Inactive)
REMARK    1  A    between atoms: C_2  and  C_16
REMARK    2  A    between atoms: N_3  and  C_4
REMARK    3  A    between atoms: C_7  and  C_8
REMARK    4  A    between atoms: C_19  and  C_20
REMARK                            x       y       z     vdW  Elec       q    Type
REMARK                         _______ _______ _______ _____ _____    ______ ____
ROOT
ATOM      1  O   UNL     1       7.475   9.802  17.573  0.00  0.00    +0.000 OA
ATOM      2  C   UNL     1       8.105   8.925  18.164  0.00  0.00    +0.000 C 
ATOM      3  N   UNL     1       9.141   9.166  19.052  0.00  0.00    +0.000 N 
ATOM      4  H   UNL     1       9.688   8.369  19.344  0.00  0.00    +0.000 HD
ENDROOT
BRANCH   3   5
ATOM      5  C   UNL     1       9.561  10.461  19.444  0.00  0.00    +0.000 A 
ATOM      6  C   UNL     1      10.281  11.301  18.591  0.00  0.00    +0.000 A 
ATOM      7  C   UNL     1      10.712  12.562  19.001  0.00  0.00    +0.000 A 
ATOM      8  C   UNL     1      10.409  13.051  20.272  0.00  0.00    +0.000 A 
ATOM      9  C   UNL     1       9.693  12.209  21.137  0.00  0.00    +0.000 A 
ATOM     10  C   UNL     1       9.257  10.934  20.722  0.00  0.00    +0.000 A 
BRANCH   8  11
ATOM     11  C   UNL     1      10.836  14.414  20.666  0.00  0.00    +0.000 C 
ATOM     12  C   UNL     1      10.325  15.023  21.755  0.00  0.00    +0.000 C 
ATOM     13  C   UNL     1      10.715  16.394  22.218  0.00  0.00    +0.000 C 
ATOM     14  N   UNL     1      11.880  16.959  21.534  0.00  0.00    +0.000 NA
ATOM     15  C   UNL     1      11.842  16.652  20.100  0.00  0.00    +0.000 C 
ATOM     16  C   UNL     1      11.870  15.137  19.839  0.00  0.00    +0.000 C 
ATOM     17  H   UNL     1      12.715  16.536  21.937  0.00  0.00    +0.000 HD
ENDBRANCH   8  11
ENDBRANCH   3   5
BRANCH   2  18
ATOM     18  C   UNL     1       7.790   7.538  17.868  0.00  0.00    +0.000 A 
ATOM     19  C   UNL     1       7.893   6.458  18.727  0.00  0.00    +0.000 A 
ATOM     20  C   UNL     1       7.522   5.315  17.996  0.00  0.00    +0.000 A 
ATOM     21  C   UNL     1       7.207   5.749  16.722  0.00  0.00    +0.000 A 
ATOM     22  O   UNL     1       7.361   7.114  16.641  0.00  0.00    +0.000 OA
BRANCH  21  23
ATOM     23  C   UNL     1       6.755   5.051  15.522  0.00  0.00    +0.000 A 
ATOM     24  C   UNL     1       5.581   4.274  15.550  0.00  0.00    +0.000 A 
ATOM     25  C   UNL     1       5.122   3.625  14.399  0.00  0.00    +0.000 A 
ATOM     26  C   UNL     1       5.835   3.743  13.212  0.00  0.00    +0.000 A 
ATOM     27 CL   UNL     1       5.269   2.958  11.791  0.00  0.00    +0.000 Cl
ATOM     28  C   UNL     1       7.004   4.499  13.166  0.00  0.00    +0.000 A 
ATOM     29  C   UNL     1       7.461   5.146  14.318  0.00  0.00    +0.000 A 
ENDBRANCH  21  23
ENDBRANCH   2  18
TORSDOF 4
ENDMDL
MODEL 2
REMARK VINA RESULT:      -8.2      0.107      1.311
REMARK  Name = 
REMARK  4 active torsions:
REMARK  status: ('A' for Active; 'I' for Inactive)
REMARK    1  A    between atoms: C_2  and  C_16
REMARK    2  A    between atoms: N_3  and  C_4
REMARK    3  A    between atoms: C_7  and  C_8
REMARK    4  A    between atoms: C_19  and  C_20
REMARK                            x       y       z     vdW  Elec       q    Type
REMARK                         _______ _______ _______ _____ _____    ______ ____
ROOT
ATOM      1  O   UNL     1       7.594   9.878  17.518  0.00  0.00    +0.000 OA
ATOM      2  C   UNL     1       8.161   8.996  18.163  0.00  0.00    +0.000 C 
ATOM      3  N   UNL     1       9.150   9.226  19.105  0.00  0.00    +0.000 N 
ATOM      4  H   UNL     1       9.655   8.420  19.445  0.00  0.00    +0.000 HD
ENDROOT
BRANCH   3   5
ATOM      5  C   UNL     1       9.586  10.517  19.495  0.00  0.00    +0.000 A 
ATOM      6  C   UNL     1       9.379  11.014  20.784  0.00  0.00    +0.000 A 
ATOM      7  C   UNL     1       9.789  12.297  21.145  0.00  0.00    +0.000 A 
ATOM      8  C   UNL     1      10.453  13.126  20.239  0.00  0.00    +0.000 A 
ATOM      9  C   UNL     1      10.655  12.635  18.940  0.00  0.00    +0.000 A 
ATOM     10  C   UNL     1      10.242  11.337  18.576  0.00  0.00    +0.000 A 
BRANCH   8  11
ATOM     11  C   UNL     1      10.921  14.466  20.663  0.00  0.00    +0.000 C 
ATOM     12  C   UNL     1      10.406  15.079  21.747  0.00  0.00    +0.000 C 
ATOM     13  C   UNL     1      10.837  16.428  22.239  0.00  0.00    +0.000 C 
ATOM     14  N   UNL     1      12.038  16.957  21.592  0.00  0.00    +0.000 NA
ATOM     15  C   UNL     1      12.026  16.671  20.154  0.00  0.00    +0.000 C 
ATOM     16  C   UNL     1      12.003  15.159  19.871  0.00  0.00    +0.000 C 
ATOM     17  H   UNL     1      12.846  16.497  22.010  0.00  0.00    +0.000 HD
ENDBRANCH   8  11
ENDBRANCH   3   5
BRANCH   2  18
ATOM     18  C   UNL     1       7.822   7.613  17.877  0.00  0.00    +0.000 A 
ATOM     19  C   UNL     1       7.911   6.537  18.741  0.00  0.00    +0.000 A 
ATOM     20  C   UNL     1       7.517   5.396  18.019  0.00  0.00    +0.000 A 
ATOM     21  C   UNL     1       7.203   5.827  16.744  0.00  0.00    +0.000 A 
ATOM     22  O   UNL     1       7.380   7.189  16.654  0.00  0.00    +0.000 OA
BRANCH  21  23
ATOM     23  C   UNL     1       6.734   5.129  15.550  0.00  0.00    +0.000 A 
ATOM     24  C   UNL     1       7.456   5.218  14.345  0.00  0.00    +0.000 A 
ATOM     25  C   UNL     1       7.032   4.531  13.202  0.00  0.00    +0.000 A 
ATOM     26  C   UNL     1       5.882   3.753  13.254  0.00  0.00    +0.000 A 
ATOM     27 CL   UNL     1       5.363   2.896  11.856  0.00  0.00    +0.000 Cl
ATOM     28  C   UNL     1       5.148   3.659  14.435  0.00  0.00    +0.000 A 
ATOM     29  C   UNL     1       5.573   4.348  15.575  0.00  0.00    +0.000 A 
ENDBRANCH  21  23
ENDBRANCH   2  18
TORSDOF 4
ENDMDL
MODEL 3
REMARK VINA RESULT:      -8.2      0.189      1.325
REMARK  Name = 
REMARK  4 active torsions:
REMARK  status: ('A' for Active; 'I' for Inactive)
REMARK    1  A    between atoms: C_2  and  C_16
REMARK    2  A    between atoms: N_3  and  C_4
REMARK    3  A    between atoms: C_7  and  C_8
REMARK    4  A    between atoms: C_19  and  C_20
REMARK                            x       y       z     vdW  Elec       q    Type
REMARK                         _______ _______ _______ _____ _____    ______ ____
ROOT
ATOM      1  O   UNL     1       7.461   9.825  17.607  0.00  0.00    +0.000 OA
ATOM      2  C   UNL     1       8.111   8.956  18.187  0.00  0.00    +0.000 C 
ATOM      3  N   UNL     1       9.158   9.210  19.059  0.00  0.00    +0.000 N 
ATOM      4  H   UNL     1       9.720   8.419  19.341  0.00  0.00    +0.000 HD
ENDROOT
BRANCH   3   5
ATOM      5  C   UNL     1       9.565  10.510  19.447  0.00  0.00    +0.000 A 
ATOM      6  C   UNL     1       9.358  11.000  20.739  0.00  0.00    +0.000 A 
ATOM      7  C   UNL     1       9.739  12.292  21.098  0.00  0.00    +0.000 A 
ATOM      8  C   UNL     1      10.376  13.138  20.189  0.00  0.00    +0.000 A 
ATOM      9  C   UNL     1      10.578  12.654  18.887  0.00  0.00    +0.000 A 
ATOM     10  C   UNL     1      10.194  11.347  18.524  0.00  0.00    +0.000 A 
BRANCH   8  11
ATOM     11  C   UNL     1      10.815  14.488  20.610  0.00  0.00    +0.000 C 
ATOM     12  C   UNL     1      11.840  15.116  19.999  0.00  0.00    +0.000 C 
ATOM     13  C   UNL     1      12.332  16.484  20.365  0.00  0.00    +0.000 C 
ATOM     14  N   UNL     1      11.469  17.212  21.296  0.00  0.00    +0.000 NA
ATOM     15  C   UNL     1      10.949  16.318  22.335  0.00  0.00    +0.000 C 
ATOM     16  C   UNL     1      10.097  15.184  21.741  0.00  0.00    +0.000 C 
ATOM     17  H   UNL     1      10.684  17.588  20.765  0.00  0.00    +0.000 HD
ENDBRANCH   8  11
ENDBRANCH   3   5
BRANCH   2  18
ATOM     18  C   UNL     1       7.812   7.565  17.892  0.00  0.00    +0.000 A 
ATOM     19  C   UNL     1       7.924   6.488  18.753  0.00  0.00    +0.000 A 
ATOM     20  C   UNL     1       7.566   5.340  18.023  0.00  0.00    +0.000 A 
ATOM     21  C   UNL     1       7.249   5.768  16.748  0.00  0.00    +0.000 A 
ATOM     22  O   UNL     1       7.390   7.135  16.665  0.00  0.00    +0.000 OA
BRANCH  21  23
ATOM     23  C   UNL     1       6.807   5.064  15.548  0.00  0.00    +0.000 A 
ATOM     24  C   UNL     1       5.644   4.270  15.577  0.00  0.00    +0.000 A 
ATOM     25  C   UNL     1       5.194   3.614  14.426  0.00  0.00    +0.000 A 
ATOM     26  C   UNL     1       5.905   3.743  13.239  0.00  0.00    +0.000 A 
ATOM     27 CL   UNL     1       5.349   2.949  11.818  0.00  0.00    +0.000 Cl
ATOM     28  C   UNL     1       7.063   4.516  13.192  0.00  0.00    +0.000 A 
ATOM     29  C   UNL     1       7.510   5.169  14.343  0.00  0.00    +0.000 A 
ENDBRANCH  21  23
ENDBRANCH   2  18
TORSDOF 4
ENDMDL
MODEL 4
REMARK VINA RESULT:      -7.9      8.161      9.046
REMARK  Name = 
REMARK  4 active torsions:
REMARK  status: ('A' for Active; 'I' for Inactive)
REMARK    1  A    between atoms: C_2  and  C_16
REMARK    2  A    between atoms: N_3  and  C_4
REMARK    3  A    between atoms: C_7  and  C_8
REMARK    4  A    between atoms: C_19  and  C_20
REMARK                            x       y       z     vdW  Elec       q    Type
REMARK                         _______ _______ _______ _____ _____    ______ ____
ROOT
ATOM      1  O   UNL     1       1.600   9.131  18.961  0.00  0.00    +0.000 OA
ATOM      2  C   UNL     1       1.710   8.236  19.799  0.00  0.00    +0.000 C 
ATOM      3  N   UNL     1       1.231   8.312  21.096  0.00  0.00    +0.000 N 
ATOM      4  H   UNL     1       1.526   7.588  21.737  0.00  0.00    +0.000 HD
ENDROOT
BRANCH   3   5
ATOM      5  C   UNL     1       0.490   9.408  21.602  0.00  0.00    +0.000 A 
ATOM      6  C   UNL     1       0.499  10.661  20.985  0.00  0.00    +0.000 A 
ATOM      7  C   UNL     1      -0.214  11.739  21.511  0.00  0.00    +0.000 A 
ATOM      8  C   UNL     1      -0.994  11.598  22.659  0.00  0.00    +0.000 A 
ATOM      9  C   UNL     1      -1.000  10.344  23.289  0.00  0.00    +0.000 A 
ATOM     10  C   UNL     1      -0.280   9.255  22.757  0.00  0.00    +0.000 A 
BRANCH   8  11
ATOM     11  C   UNL     1      -1.780  12.745  23.169  0.00  0.00    +0.000 C 
ATOM     12  C   UNL     1      -1.194  13.923  23.462  0.00  0.00    +0.000 C 
ATOM     13  C   UNL     1      -1.926  15.128  23.971  0.00  0.00    +0.000 C 
ATOM     14  N   UNL     1      -3.385  15.023  23.916  0.00  0.00    +0.000 NA
ATOM     15  C   UNL     1      -3.826  13.678  24.303  0.00  0.00    +0.000 C 
ATOM     16  C   UNL     1      -3.270  12.600  23.358  0.00  0.00    +0.000 C 
ATOM     17  H   UNL     1      -3.675  15.198  22.955  0.00  0.00    +0.000 HD
ENDBRANCH   8  11
ENDBRANCH   3   5
BRANCH   2  18
ATOM     18  C   UNL     1       2.448   7.040  19.430  0.00  0.00    +0.000 A 
ATOM     19  C   UNL     1       2.637   5.906  20.200  0.00  0.00    +0.000 A 
ATOM     20  C   UNL     1       3.444   5.031  19.452  0.00  0.00    +0.000 A 
ATOM     21  C   UNL     1       3.712   5.669  18.256  0.00  0.00    +0.000 A 
ATOM     22  O   UNL     1       3.095   6.900  18.234  0.00  0.00    +0.000 OA
BRANCH  21  23
ATOM     23  C   UNL     1       4.482   5.282  17.077  0.00  0.00    +0.000 A 
ATOM     24  C   UNL     1       4.765   3.926  16.826  0.00  0.00    +0.000 A 
ATOM     25  C   UNL     1       5.476   3.540  15.685  0.00  0.00    +0.000 A 
ATOM     26  C   UNL     1       5.914   4.508  14.788  0.00  0.00    +0.000 A 
ATOM     27 CL   UNL     1       6.779   4.039  13.377  0.00  0.00    +0.000 Cl
ATOM     28  C   UNL     1       5.653   5.855  15.023  0.00  0.00    +0.000 A 
ATOM     29  C   UNL     1       4.943   6.238  16.165  0.00  0.00    +0.000 A 
ENDBRANCH  21  23
ENDBRANCH   2  18
TORSDOF 4
ENDMDL
MODEL 5
REMARK VINA RESULT:      -7.8      8.183      9.169
REMARK  Name = 
REMARK  4 active torsions:
REMARK  status: ('A' for Active; 'I' for Inactive)
REMARK    1  A    between atoms: C_2  and  C_16
REMARK    2  A    between atoms: N_3  and  C_4
REMARK    3  A    between atoms: C_7  and  C_8
REMARK    4  A    between atoms: C_19  and  C_20
REMARK                            x       y       z     vdW  Elec       q    Type
REMARK                         _______ _______ _______ _____ _____    ______ ____
ROOT
ATOM      1  O   UNL     1       1.732   9.067  18.977  0.00  0.00    +0.000 OA
ATOM      2  C   UNL     1       1.728   8.095  19.733  0.00  0.00    +0.000 C 
ATOM      3  N   UNL     1       1.123   8.073  20.979  0.00  0.00    +0.000 N 
ATOM      4  H   UNL     1       1.328   7.282  21.573  0.00  0.00    +0.000 HD
ENDROOT
BRANCH   3   5
ATOM      5  C   UNL     1       0.371   9.149  21.512  0.00  0.00    +0.000 A 
ATOM      6  C   UNL     1       0.024   9.217  22.863  0.00  0.00    +0.000 A 
ATOM      7  C   UNL     1      -0.742  10.268  23.367  0.00  0.00    +0.000 A 
ATOM      8  C   UNL     1      -1.164  11.315  22.545  0.00  0.00    +0.000 A 
ATOM      9  C   UNL     1      -0.826  11.246  21.185  0.00  0.00    +0.000 A 
ATOM     10  C   UNL     1      -0.052  10.184  20.676  0.00  0.00    +0.000 A 
BRANCH   8  11
ATOM     11  C   UNL     1      -1.934  12.444  23.116  0.00  0.00    +0.000 C 
ATOM     12  C   UNL     1      -3.230  12.307  23.460  0.00  0.00    +0.000 C 
ATOM     13  C   UNL     1      -4.067  13.401  24.051  0.00  0.00    +0.000 C 
ATOM     14  N   UNL     1      -3.318  14.592  24.454  0.00  0.00    +0.000 NA
ATOM     15  C   UNL     1      -2.279  14.913  23.469  0.00  0.00    +0.000 C 
ATOM     16  C   UNL     1      -1.255  13.775  23.326  0.00  0.00    +0.000 C 
ATOM     17  H   UNL     1      -2.870  14.392  25.347  0.00  0.00    +0.000 HD
ENDBRANCH   8  11
ENDBRANCH   3   5
BRANCH   2  18
ATOM     18  C   UNL     1       2.460   6.908  19.326  0.00  0.00    +0.000 A 
ATOM     19  C   UNL     1       2.615   5.737  20.046  0.00  0.00    +0.000 A 
ATOM     20  C   UNL     1       3.430   4.887  19.277  0.00  0.00    +0.000 A 
ATOM     21  C   UNL     1       3.736   5.577  18.120  0.00  0.00    +0.000 A 
ATOM     22  O   UNL     1       3.135   6.816  18.141  0.00  0.00    +0.000 OA
BRANCH  21  23
ATOM     23  C   UNL     1       4.531   5.236  16.943  0.00  0.00    +0.000 A 
ATOM     24  C   UNL     1       4.977   6.246  16.069  0.00  0.00    +0.000 A 
ATOM     25  C   UNL     1       5.764   5.934  14.955  0.00  0.00    +0.000 A 
ATOM     26  C   UNL     1       6.107   4.611  14.703  0.00  0.00    +0.000 A 
ATOM     27 CL   UNL     1       7.084   4.223  13.342  0.00  0.00    +0.000 Cl
ATOM     28  C   UNL     1       5.668   3.597  15.551  0.00  0.00    +0.000 A 
ATOM     29  C   UNL     1       4.881   3.911  16.663  0.00  0.00    +0.000 A 
ENDBRANCH  21  23
ENDBRANCH   2  18
TORSDOF 4
ENDMDL
MODEL 6
REMARK VINA RESULT:      -7.7      9.989     13.036
REMARK  Name = 
REMARK  4 active torsions:
REMARK  status: ('A' for Active; 'I' for Inactive)
REMARK    1  A    between atoms: C_2  and  C_16
REMARK    2  A    between atoms: N_3  and  C_4
REMARK    3  A    between atoms: C_7  and  C_8
REMARK    4  A    between atoms: C_19  and  C_20
REMARK                            x       y       z     vdW  Elec       q    Type
REMARK                         _______ _______ _______ _____ _____    ______ ____
ROOT
ATOM      1  O   UNL     1       1.636  10.583  21.847  0.00  0.00    +0.000 OA
ATOM      2  C   UNL     1       0.684  10.832  21.108  0.00  0.00    +0.000 C 
ATOM      3  N   UNL     1       0.444  10.201  19.898  0.00  0.00    +0.000 N 
ATOM      4  H   UNL     1      -0.268  10.604  19.305  0.00  0.00    +0.000 HD
ENDROOT
BRANCH   3   5
ATOM      5  C   UNL     1       1.231   9.137  19.392  0.00  0.00    +0.000 A 
ATOM      6  C   UNL     1       1.522   8.001  20.149  0.00  0.00    +0.000 A 
ATOM      7  C   UNL     1       2.322   6.974  19.648  0.00  0.00    +0.000 A 
ATOM      8  C   UNL     1       2.837   7.027  18.351  0.00  0.00    +0.000 A 
ATOM      9  C   UNL     1       2.556   8.170  17.589  0.00  0.00    +0.000 A 
ATOM     10  C   UNL     1       1.747   9.208  18.096  0.00  0.00    +0.000 A 
BRANCH   8  11
ATOM     11  C   UNL     1       3.643   5.901  17.825  0.00  0.00    +0.000 C 
ATOM     12  C   UNL     1       4.575   6.091  16.870  0.00  0.00    +0.000 C 
ATOM     13  C   UNL     1       5.433   5.003  16.298  0.00  0.00    +0.000 C 
ATOM     14  N   UNL     1       5.358   3.729  17.015  0.00  0.00    +0.000 NA
ATOM     15  C   UNL     1       3.979   3.438  17.421  0.00  0.00    +0.000 C 
ATOM     16  C   UNL     1       3.426   4.511  18.373  0.00  0.00    +0.000 C 
ATOM     17  H   UNL     1       5.936   3.806  17.850  0.00  0.00    +0.000 HD
ENDBRANCH   8  11
ENDBRANCH   3   5
BRANCH   2  18
ATOM     18  C   UNL     1      -0.219  11.903  21.490  0.00  0.00    +0.000 A 
ATOM     19  C   UNL     1       0.062  13.258  21.526  0.00  0.00    +0.000 A 
ATOM     20  C   UNL     1      -1.096  13.905  21.993  0.00  0.00    +0.000 A 
ATOM     21  C   UNL     1      -2.035  12.917  22.220  0.00  0.00    +0.000 A 
ATOM     22  O   UNL     1      -1.504  11.686  21.904  0.00  0.00    +0.000 OA
BRANCH  21  23
ATOM     23  C   UNL     1      -3.414  12.951  22.698  0.00  0.00    +0.000 A 
ATOM     24  C   UNL     1      -4.450  13.386  21.850  0.00  0.00    +0.000 A 
ATOM     25  C   UNL     1      -5.780  13.396  22.287  0.00  0.00    +0.000 A 
ATOM     26  C   UNL     1      -6.082  12.974  23.577  0.00  0.00    +0.000 A 
ATOM     27 CL   UNL     1      -7.715  12.972  24.115  0.00  0.00    +0.000 Cl
ATOM     28  C   UNL     1      -5.070  12.549  24.434  0.00  0.00    +0.000 A 
ATOM     29  C   UNL     1      -3.743  12.542  23.995  0.00  0.00    +0.000 A 
ENDBRANCH  21  23
ENDBRANCH   2  18
TORSDOF 4
ENDMDL
MODEL 7
REMARK VINA RESULT:      -7.7      8.361      9.251
REMARK  Name = 
REMARK  4 active torsions:
REMARK  status: ('A' for Active; 'I' for Inactive)
REMARK    1  A    between atoms: C_2  and  C_16
REMARK    2  A    between atoms: N_3  and  C_4
REMARK    3  A    between atoms: C_7  and  C_8
REMARK    4  A    between atoms: C_19  and  C_20
REMARK                            x       y       z     vdW  Elec       q    Type
REMARK                         _______ _______ _______ _____ _____    ______ ____
ROOT
ATOM      1  O   UNL     1       1.594   9.239  18.992  0.00  0.00    +0.000 OA
ATOM      2  C   UNL     1       1.585   8.285  19.771  0.00  0.00    +0.000 C 
ATOM      3  N   UNL     1       0.958   8.287  21.006  0.00  0.00    +0.000 N 
ATOM      4  H   UNL     1       1.160   7.513  21.623  0.00  0.00    +0.000 HD
ENDROOT
BRANCH   3   5
ATOM      5  C   UNL     1       0.186   9.368  21.499  0.00  0.00    +0.000 A 
ATOM      6  C   UNL     1      -0.180  10.449  20.694  0.00  0.00    +0.000 A 
ATOM      7  C   UNL     1      -0.917  11.520  21.200  0.00  0.00    +0.000 A 
ATOM      8  C   UNL     1      -1.348  11.537  22.528  0.00  0.00    +0.000 A 
ATOM      9  C   UNL     1      -0.975  10.459  23.344  0.00  0.00    +0.000 A 
ATOM     10  C   UNL     1      -0.231   9.376  22.831  0.00  0.00    +0.000 A 
BRANCH   8  11
ATOM     11  C   UNL     1      -2.170  12.663  23.028  0.00  0.00    +0.000 C 
ATOM     12  C   UNL     1      -3.514  12.575  23.096  0.00  0.00    +0.000 C 
ATOM     13  C   UNL     1      -4.408  13.667  23.599  0.00  0.00    +0.000 C 
ATOM     14  N   UNL     1      -3.707  14.780  24.242  0.00  0.00    +0.000 NA
ATOM     15  C   UNL     1      -2.479  15.114  23.513  0.00  0.00    +0.000 C 
ATOM     16  C   UNL     1      -1.494  13.934  23.480  0.00  0.00    +0.000 C 
ATOM     17  H   UNL     1      -3.458  14.489  25.186  0.00  0.00    +0.000 HD
ENDBRANCH   8  11
ENDBRANCH   3   5
BRANCH   2  18
ATOM     18  C   UNL     1       2.336   7.096  19.407  0.00  0.00    +0.000 A 
ATOM     19  C   UNL     1       2.510   5.955  20.169  0.00  0.00    +0.000 A 
ATOM     20  C   UNL     1       3.338   5.090  19.430  0.00  0.00    +0.000 A 
ATOM     21  C   UNL     1       3.631   5.742  18.248  0.00  0.00    +0.000 A 
ATOM     22  O   UNL     1       3.011   6.971  18.224  0.00  0.00    +0.000 OA
BRANCH  21  23
ATOM     23  C   UNL     1       4.430   5.370  17.083  0.00  0.00    +0.000 A 
ATOM     24  C   UNL     1       4.723   4.017  16.824  0.00  0.00    +0.000 A 
ATOM     25  C   UNL     1       5.462   3.647  15.696  0.00  0.00    +0.000 A 
ATOM     26  C   UNL     1       5.917   4.625  14.819  0.00  0.00    +0.000 A 
ATOM     27 CL   UNL     1       6.815   4.174  13.424  0.00  0.00    +0.000 Cl
ATOM     28  C   UNL     1       5.645   5.969  15.062  0.00  0.00    +0.000 A 
ATOM     29  C   UNL     1       4.908   6.337  16.192  0.00  0.00    +0.000 A 
ENDBRANCH  21  23
ENDBRANCH   2  18
TORSDOF 4
ENDMDL
MODEL 8
REMARK VINA RESULT:      -7.6      7.399      8.620
REMARK  Name = 
REMARK  4 active torsions:
REMARK  status: ('A' for Active; 'I' for Inactive)
REMARK    1  A    between atoms: C_2  and  C_16
REMARK    2  A    between atoms: N_3  and  C_4
REMARK    3  A    between atoms: C_7  and  C_8
REMARK    4  A    between atoms: C_19  and  C_20
REMARK                            x       y       z     vdW  Elec       q    Type
REMARK                         _______ _______ _______ _____ _____    ______ ____
ROOT
ATOM      1  O   UNL     1       1.186   5.780  21.023  0.00  0.00    +0.000 OA
ATOM      2  C   UNL     1       2.052   6.251  20.286  0.00  0.00    +0.000 C 
ATOM      3  N   UNL     1       2.203   7.602  20.017  0.00  0.00    +0.000 N 
ATOM      4  H   UNL     1       2.838   7.852  19.272  0.00  0.00    +0.000 HD
ENDROOT
BRANCH   3   5
ATOM      5  C   UNL     1       1.419   8.619  20.614  0.00  0.00    +0.000 A 
ATOM      6  C   UNL     1       1.309   8.758  22.000  0.00  0.00    +0.000 A 
ATOM      7  C   UNL     1       0.510   9.747  22.573  0.00  0.00    +0.000 A 
ATOM      8  C   UNL     1      -0.186  10.662  21.782  0.00  0.00    +0.000 A 
ATOM      9  C   UNL     1      -0.087  10.522  20.390  0.00  0.00    +0.000 A 
ATOM     10  C   UNL     1       0.721   9.523  19.810  0.00  0.00    +0.000 A 
BRANCH   8  11
ATOM     11  C   UNL     1      -0.989  11.734  22.416  0.00  0.00    +0.000 C 
ATOM     12  C   UNL     1      -2.090  11.451  23.141  0.00  0.00    +0.000 C 
ATOM     13  C   UNL     1      -2.943  12.480  23.818  0.00  0.00    +0.000 C 
ATOM     14  N   UNL     1      -2.371  13.827  23.839  0.00  0.00    +0.000 NA
ATOM     15  C   UNL     1      -1.721  14.138  22.562  0.00  0.00    +0.000 C 
ATOM     16  C   UNL     1      -0.563  13.173  22.259  0.00  0.00    +0.000 C 
ATOM     17  H   UNL     1      -1.670  13.857  24.578  0.00  0.00    +0.000 HD
ENDBRANCH   8  11
ENDBRANCH   3   5
BRANCH   2  18
ATOM     18  C   UNL     1       2.940   5.331  19.596  0.00  0.00    +0.000 A 
ATOM     19  C   UNL     1       3.223   4.024  19.948  0.00  0.00    +0.000 A 
ATOM     20  C   UNL     1       4.160   3.541  19.017  0.00  0.00    +0.000 A 
ATOM     21  C   UNL     1       4.407   4.576  18.136  0.00  0.00    +0.000 A 
ATOM     22  O   UNL     1       3.654   5.675  18.482  0.00  0.00    +0.000 OA
BRANCH  21  23
ATOM     23  C   UNL     1       5.271   4.695  16.964  0.00  0.00    +0.000 A 
ATOM     24  C   UNL     1       5.020   3.922  15.814  0.00  0.00    +0.000 A 
ATOM     25  C   UNL     1       5.823   4.049  14.675  0.00  0.00    +0.000 A 
ATOM     26  C   UNL     1       6.884   4.946  14.678  0.00  0.00    +0.000 A 
ATOM     27 CL   UNL     1       7.866   5.115  13.277  0.00  0.00    +0.000 Cl
ATOM     28  C   UNL     1       7.154   5.714  15.809  0.00  0.00    +0.000 A 
ATOM     29  C   UNL     1       6.351   5.584  16.946  0.00  0.00    +0.000 A 
ENDBRANCH  21  23
ENDBRANCH   2  18
TORSDOF 4
ENDMDL
MODEL 9
REMARK VINA RESULT:      -7.6      7.303      8.619
REMARK  Name = 
REMARK  4 active torsions:
REMARK  status: ('A' for Active; 'I' for Inactive)
REMARK    1  A    between atoms: C_2  and  C_16
REMARK    2  A    between atoms: N_3  and  C_4
REMARK    3  A    between atoms: C_7  and  C_8
REMARK    4  A    between atoms: C_19  and  C_20
REMARK                            x       y       z     vdW  Elec       q    Type
REMARK                         _______ _______ _______ _____ _____    ______ ____
ROOT
ATOM      1  O   UNL     1       1.470   5.774  20.661  0.00  0.00    +0.000 OA
ATOM      2  C   UNL     1       2.287   6.256  19.876  0.00  0.00    +0.000 C 
ATOM      3  N   UNL     1       2.310   7.585  19.485  0.00  0.00    +0.000 N 
ATOM      4  H   UNL     1       2.917   7.826  18.714  0.00  0.00    +0.000 HD
ENDROOT
BRANCH   3   5
ATOM      5  C   UNL     1       1.434   8.575  19.997  0.00  0.00    +0.000 A 
ATOM      6  C   UNL     1       0.766   9.479  19.168  0.00  0.00    +0.000 A 
ATOM      7  C   UNL     1      -0.071  10.465  19.689  0.00  0.00    +0.000 A 
ATOM      8  C   UNL     1      -0.302  10.567  21.062  0.00  0.00    +0.000 A 
ATOM      9  C   UNL     1       0.374   9.667  21.900  0.00  0.00    +0.000 A 
ATOM     10  C   UNL     1       1.220   8.670  21.374  0.00  0.00    +0.000 A 
BRANCH   8  11
ATOM     11  C   UNL     1      -1.234  11.592  21.586  0.00  0.00    +0.000 C 
ATOM     12  C   UNL     1      -1.941  12.386  20.757  0.00  0.00    +0.000 C 
ATOM     13  C   UNL     1      -2.908  13.436  21.214  0.00  0.00    +0.000 C 
ATOM     14  N   UNL     1      -3.219  13.396  22.644  0.00  0.00    +0.000 NA
ATOM     15  C   UNL     1      -2.014  13.115  23.433  0.00  0.00    +0.000 C 
ATOM     16  C   UNL     1      -1.404  11.749  23.077  0.00  0.00    +0.000 C 
ATOM     17  H   UNL     1      -3.892  12.647  22.797  0.00  0.00    +0.000 HD
ENDBRANCH   8  11
ENDBRANCH   3   5
BRANCH   2  18
ATOM     18  C   UNL     1       3.256   5.365  19.262  0.00  0.00    +0.000 A 
ATOM     19  C   UNL     1       3.750   4.183  19.784  0.00  0.00    +0.000 A 
ATOM     20  C   UNL     1       4.688   3.687  18.861  0.00  0.00    +0.000 A 
ATOM     21  C   UNL     1       4.724   4.588  17.815  0.00  0.00    +0.000 A 
ATOM     22  O   UNL     1       3.840   5.616  18.051  0.00  0.00    +0.000 OA
BRANCH  21  23
ATOM     23  C   UNL     1       5.486   4.630  16.569  0.00  0.00    +0.000 A 
ATOM     24  C   UNL     1       4.903   4.192  15.364  0.00  0.00    +0.000 A 
ATOM     25  C   UNL     1       5.613   4.254  14.160  0.00  0.00    +0.000 A 
ATOM     26  C   UNL     1       6.911   4.751  14.151  0.00  0.00    +0.000 A 
ATOM     27 CL   UNL     1       7.783   4.842  12.672  0.00  0.00    +0.000 Cl
ATOM     28  C   UNL     1       7.508   5.181  15.334  0.00  0.00    +0.000 A 
ATOM     29  C   UNL     1       6.797   5.116  16.536  0.00  0.00    +0.000 A 
ENDBRANCH  21  23
ENDBRANCH   2  18
TORSDOF 4
ENDMDL
