MODEL 1
REMARK VINA RESULT:      -7.3      0.000      0.000
REMARK  Name = 
REMARK  3 active torsions:
REMARK  status: ('A' for Active; 'I' for Inactive)
REMARK    1  A    between atoms: C_1  and  C_2
REMARK    2  A    between atoms: C_2  and  N_3
REMARK    3  A    between atoms: C_9  and  C_11
REMARK                            x       y       z     vdW  Elec       q    Type
REMARK                         _______ _______ _______ _____ _____    ______ ____
ROOT
ATOM      1  N   UNL     1       1.919   4.699  20.190  0.00  0.00    +0.000 N 
ATOM      2  C   UNL     1       2.770   4.298  19.100  0.00  0.00    +0.000 C 
ATOM      3  C   UNL     1       3.627   5.536  18.796  0.00  0.00    +0.000 C 
ATOM      4  C   UNL     1       3.773   5.792  17.295  0.00  0.00    +0.000 C 
ATOM      5  C   UNL     1       4.618   4.743  16.601  0.00  0.00    +0.000 C 
ATOM      6  N   UNL     1       5.929   4.575  17.223  0.00  0.00    +0.000 N 
ATOM      7  C   UNL     1       7.142   4.410  16.555  0.00  0.00    +0.000 C 
ATOM      8  O   UNL     1       8.205   4.262  17.166  0.00  0.00    +0.000 OA
ATOM      9  C   UNL     1       5.905   4.361  18.675  0.00  0.00    +0.000 C 
ATOM     10  C   UNL     1       5.041   5.399  19.406  0.00  0.00    +0.000 C 
ATOM     11  C   UNL     1       2.835   6.708  19.418  0.00  0.00    +0.000 C 
ATOM     12  C   UNL     1       1.837   6.068  20.341  0.00  0.00    +0.000 C 
ATOM     13  O   UNL     1       1.089   6.678  21.088  0.00  0.00    +0.000 OA
ENDROOT
BRANCH   7  14
ATOM     14  C   UNL     1       7.193   4.479  15.044  0.00  0.00    +0.000 A 
ATOM     15  C   UNL     1       8.074   5.335  14.501  0.00  0.00    +0.000 A 
ATOM     16  N   UNL     1       8.109   5.534  13.136  0.00  0.00    +0.000 N 
ATOM     17  C   UNL     1       7.225   4.955  12.251  0.00  0.00    +0.000 A 
ATOM     18  O   UNL     1       7.224   5.250  11.062  0.00  0.00    +0.000 OA
ATOM     19  C   UNL     1       6.310   3.934  12.847  0.00  0.00    +0.000 A 
ATOM     20 CL   UNL     1       5.192   3.120  11.828  0.00  0.00    +0.000 Cl
ATOM     21  C   UNL     1       6.384   3.664  14.158  0.00  0.00    +0.000 A 
ATOM     22  H   UNL     1       8.770   6.192  12.736  0.00  0.00    +0.000 HD
ENDBRANCH   7  14
BRANCH   1  24
ATOM     23  C   UNL     1       2.141   2.647  21.578  0.00  0.00    +0.000 C 
ATOM     24  C   UNL     1       1.241   3.750  21.054  0.00  0.00    +0.000 C 
ENDBRANCH   1  24
TORSDOF 2
ENDMDL
MODEL 2
REMARK VINA RESULT:      -7.2      3.613      5.486
REMARK  Name = 
REMARK  3 active torsions:
REMARK  status: ('A' for Active; 'I' for Inactive)
REMARK    1  A    between atoms: C_1  and  C_2
REMARK    2  A    between atoms: C_2  and  N_3
REMARK    3  A    between atoms: C_9  and  C_11
REMARK                            x       y       z     vdW  Elec       q    Type
REMARK                         _______ _______ _______ _____ _____    ______ ____
ROOT
ATOM      1  N   UNL     1      -0.669  10.425  18.180  0.00  0.00    +0.000 N 
ATOM      2  C   UNL     1       0.131   9.249  17.959  0.00  0.00    +0.000 C 
ATOM      3  C   UNL     1       1.389   9.463  18.815  0.00  0.00    +0.000 C 
ATOM      4  C   UNL     1       2.671   9.064  18.083  0.00  0.00    +0.000 C 
ATOM      5  C   UNL     1       2.782   7.568  17.870  0.00  0.00    +0.000 C 
ATOM      6  N   UNL     1       2.644   6.811  19.112  0.00  0.00    +0.000 N 
ATOM      7  C   UNL     1       3.402   5.703  19.490  0.00  0.00    +0.000 C 
ATOM      8  O   UNL     1       3.205   5.116  20.558  0.00  0.00    +0.000 OA
ATOM      9  C   UNL     1       1.461   7.145  19.914  0.00  0.00    +0.000 C 
ATOM     10  C   UNL     1       1.310   8.658  20.133  0.00  0.00    +0.000 C 
ATOM     11  C   UNL     1       1.422  10.988  19.065  0.00  0.00    +0.000 C 
ATOM     12  C   UNL     1       0.048  11.480  18.706  0.00  0.00    +0.000 C 
ATOM     13  O   UNL     1      -0.344  12.624  18.863  0.00  0.00    +0.000 OA
ENDROOT
BRANCH   7  14
ATOM     14  C   UNL     1       4.545   5.232  18.617  0.00  0.00    +0.000 A 
ATOM     15  C   UNL     1       5.759   5.161  19.187  0.00  0.00    +0.000 A 
ATOM     16  N   UNL     1       6.870   4.841  18.434  0.00  0.00    +0.000 N 
ATOM     17  C   UNL     1       6.847   4.653  17.069  0.00  0.00    +0.000 A 
ATOM     18  O   UNL     1       7.877   4.484  16.428  0.00  0.00    +0.000 OA
ATOM     19  C   UNL     1       5.483   4.641  16.455  0.00  0.00    +0.000 A 
ATOM     20 CL   UNL     1       5.332   4.374  14.765  0.00  0.00    +0.000 Cl
ATOM     21  C   UNL     1       4.406   4.825  17.232  0.00  0.00    +0.000 A 
ATOM     22  H   UNL     1       7.786   4.802  18.871  0.00  0.00    +0.000 HD
ENDBRANCH   7  14
BRANCH   1  24
ATOM     23  C   UNL     1      -2.461   9.975  16.516  0.00  0.00    +0.000 C 
ATOM     24  C   UNL     1      -2.092  10.477  17.898  0.00  0.00    +0.000 C 
ENDBRANCH   1  24
TORSDOF 2
ENDMDL
MODEL 3
REMARK VINA RESULT:      -7.0      4.360      6.242
REMARK  Name = 
REMARK  3 active torsions:
REMARK  status: ('A' for Active; 'I' for Inactive)
REMARK    1  A    between atoms: C_1  and  C_2
REMARK    2  A    between atoms: C_2  and  N_3
REMARK    3  A    between atoms: C_9  and  C_11
REMARK                            x       y       z     vdW  Elec       q    Type
REMARK                         _______ _______ _______ _____ _____    ______ ____
ROOT
ATOM      1  N   UNL     1      -1.007  11.523  18.638  0.00  0.00    +0.000 N 
ATOM      2  C   UNL     1      -0.402  10.252  18.335  0.00  0.00    +0.000 C 
ATOM      3  C   UNL     1       1.033  10.364  18.873  0.00  0.00    +0.000 C 
ATOM      4  C   UNL     1       2.067   9.782  17.907  0.00  0.00    +0.000 C 
ATOM      5  C   UNL     1       1.975   8.274  17.788  0.00  0.00    +0.000 C 
ATOM      6  N   UNL     1       2.048   7.603  19.083  0.00  0.00    +0.000 N 
ATOM      7  C   UNL     1       2.757   6.435  19.366  0.00  0.00    +0.000 C 
ATOM      8  O   UNL     1       2.751   5.929  20.493  0.00  0.00    +0.000 OA
ATOM      9  C   UNL     1       1.120   8.111  20.100  0.00  0.00    +0.000 C 
ATOM     10  C   UNL     1       1.177   9.640  20.232  0.00  0.00    +0.000 C 
ATOM     11  C   UNL     1       1.277  11.885  18.993  0.00  0.00    +0.000 C 
ATOM     12  C   UNL     1      -0.086  12.513  18.912  0.00  0.00    +0.000 C 
ATOM     13  O   UNL     1      -0.314  13.702  19.065  0.00  0.00    +0.000 OA
ENDROOT
BRANCH   7  14
ATOM     14  C   UNL     1       3.616   5.791  18.300  0.00  0.00    +0.000 A 
ATOM     15  C   UNL     1       3.139   4.677  17.721  0.00  0.00    +0.000 A 
ATOM     16  N   UNL     1       3.907   3.972  16.817  0.00  0.00    +0.000 N 
ATOM     17  C   UNL     1       5.210   4.291  16.500  0.00  0.00    +0.000 A 
ATOM     18  O   UNL     1       5.888   3.570  15.778  0.00  0.00    +0.000 OA
ATOM     19  C   UNL     1       5.703   5.581  17.073  0.00  0.00    +0.000 A 
ATOM     20 CL   UNL     1       7.301   6.097  16.710  0.00  0.00    +0.000 Cl
ATOM     21  C   UNL     1       4.890   6.315  17.847  0.00  0.00    +0.000 A 
ATOM     22  H   UNL     1       3.543   3.124  16.394  0.00  0.00    +0.000 HD
ENDBRANCH   7  14
BRANCH   1  24
ATOM     23  C   UNL     1      -3.224  10.732  17.835  0.00  0.00    +0.000 C 
ATOM     24  C   UNL     1      -2.444  11.725  18.675  0.00  0.00    +0.000 C 
ENDBRANCH   1  24
TORSDOF 2
ENDMDL
MODEL 4
REMARK VINA RESULT:      -6.7      1.234      1.455
REMARK  Name = 
REMARK  3 active torsions:
REMARK  status: ('A' for Active; 'I' for Inactive)
REMARK    1  A    between atoms: C_1  and  C_2
REMARK    2  A    between atoms: C_2  and  N_3
REMARK    3  A    between atoms: C_9  and  C_11
REMARK                            x       y       z     vdW  Elec       q    Type
REMARK                         _______ _______ _______ _____ _____    ______ ____
ROOT
ATOM      1  N   UNL     1       1.919   4.686  20.424  0.00  0.00    +0.000 N 
ATOM      2  C   UNL     1       2.728   4.268  19.309  0.00  0.00    +0.000 C 
ATOM      3  C   UNL     1       3.505   5.527  18.895  0.00  0.00    +0.000 C 
ATOM      4  C   UNL     1       3.556   5.710  17.377  0.00  0.00    +0.000 C 
ATOM      5  C   UNL     1       4.413   4.666  16.689  0.00  0.00    +0.000 C 
ATOM      6  N   UNL     1       5.762   4.593  17.243  0.00  0.00    +0.000 N 
ATOM      7  C   UNL     1       6.944   4.449  16.516  0.00  0.00    +0.000 C 
ATOM      8  O   UNL     1       8.045   4.383  17.072  0.00  0.00    +0.000 OA
ATOM      9  C   UNL     1       5.828   4.454  18.703  0.00  0.00    +0.000 C 
ATOM     10  C   UNL     1       4.955   5.488  19.429  0.00  0.00    +0.000 C 
ATOM     11  C   UNL     1       2.692   6.692  19.502  0.00  0.00    +0.000 C 
ATOM     12  C   UNL     1       1.778   6.056  20.511  0.00  0.00    +0.000 C 
ATOM     13  O   UNL     1       1.043   6.669  21.268  0.00  0.00    +0.000 OA
ENDROOT
BRANCH   7  14
ATOM     14  C   UNL     1       6.908   4.441  15.003  0.00  0.00    +0.000 A 
ATOM     15  C   UNL     1       6.246   3.433  14.414  0.00  0.00    +0.000 A 
ATOM     16  N   UNL     1       6.255   3.295  13.040  0.00  0.00    +0.000 N 
ATOM     17  C   UNL     1       6.981   4.101  12.191  0.00  0.00    +0.000 A 
ATOM     18  O   UNL     1       7.048   3.870  10.990  0.00  0.00    +0.000 OA
ATOM     19  C   UNL     1       7.639   5.276  12.841  0.00  0.00    +0.000 A 
ATOM     20 CL   UNL     1       8.539   6.371  11.870  0.00  0.00    +0.000 Cl
ATOM     21  C   UNL     1       7.507   5.460  14.163  0.00  0.00    +0.000 A 
ATOM     22  H   UNL     1       5.762   2.522  12.604  0.00  0.00    +0.000 HD
ENDBRANCH   7  14
BRANCH   1  24
ATOM     23  C   UNL     1       2.225   2.565  21.687  0.00  0.00    +0.000 C 
ATOM     24  C   UNL     1       1.337   3.753  21.372  0.00  0.00    +0.000 C 
ENDBRANCH   1  24
TORSDOF 2
ENDMDL
MODEL 5
REMARK VINA RESULT:      -6.7      4.775      8.451
REMARK  Name = 
REMARK  3 active torsions:
REMARK  status: ('A' for Active; 'I' for Inactive)
REMARK    1  A    between atoms: C_1  and  C_2
REMARK    2  A    between atoms: C_2  and  N_3
REMARK    3  A    between atoms: C_9  and  C_11
REMARK                            x       y       z     vdW  Elec       q    Type
REMARK                         _______ _______ _______ _____ _____    ______ ____
ROOT
ATOM      1  N   UNL     1       4.890   4.810  18.335  0.00  0.00    +0.000 N 
ATOM      2  C   UNL     1       4.343   6.093  18.691  0.00  0.00    +0.000 C 
ATOM      3  C   UNL     1       2.825   5.933  18.519  0.00  0.00    +0.000 C 
ATOM      4  C   UNL     1       2.184   7.142  17.835  0.00  0.00    +0.000 C 
ATOM      5  C   UNL     1       2.193   8.382  18.706  0.00  0.00    +0.000 C 
ATOM      6  N   UNL     1       1.590   8.154  20.016  0.00  0.00    +0.000 N 
ATOM      7  C   UNL     1       0.737   9.026  20.693  0.00  0.00    +0.000 C 
ATOM      8  O   UNL     1       0.282   8.754  21.808  0.00  0.00    +0.000 OA
ATOM      9  C   UNL     1       2.109   6.990  20.745  0.00  0.00    +0.000 C 
ATOM     10  C   UNL     1       2.128   5.720  19.883  0.00  0.00    +0.000 C 
ATOM     11  C   UNL     1       2.675   4.708  17.590  0.00  0.00    +0.000 C 
ATOM     12  C   UNL     1       4.015   4.028  17.610  0.00  0.00    +0.000 C 
ATOM     13  O   UNL     1       4.263   2.963  17.068  0.00  0.00    +0.000 OA
ENDROOT
BRANCH   7  14
ATOM     14  C   UNL     1       0.288  10.312  20.035  0.00  0.00    +0.000 A 
ATOM     15  C   UNL     1       0.936  11.435  20.385  0.00  0.00    +0.000 A 
ATOM     16  N   UNL     1       0.521  12.663  19.911  0.00  0.00    +0.000 N 
ATOM     17  C   UNL     1      -0.601  12.847  19.130  0.00  0.00    +0.000 A 
ATOM     18  O   UNL     1      -0.994  13.967  18.828  0.00  0.00    +0.000 OA
ATOM     19  C   UNL     1      -1.262  11.589  18.666  0.00  0.00    +0.000 A 
ATOM     20 CL   UNL     1      -2.646  11.698  17.655  0.00  0.00    +0.000 Cl
ATOM     21  C   UNL     1      -0.760  10.402  19.037  0.00  0.00    +0.000 A 
ATOM     22  H   UNL     1       1.009  13.507  20.191  0.00  0.00    +0.000 HD
ENDBRANCH   7  14
BRANCH   1  24
ATOM     23  C   UNL     1       7.296   4.717  17.710  0.00  0.00    +0.000 C 
ATOM     24  C   UNL     1       6.221   4.382  18.726  0.00  0.00    +0.000 C 
ENDBRANCH   1  24
TORSDOF 2
ENDMDL
MODEL 6
REMARK VINA RESULT:      -6.7      4.618      6.951
REMARK  Name = 
REMARK  3 active torsions:
REMARK  status: ('A' for Active; 'I' for Inactive)
REMARK    1  A    between atoms: C_1  and  C_2
REMARK    2  A    between atoms: C_2  and  N_3
REMARK    3  A    between atoms: C_9  and  C_11
REMARK                            x       y       z     vdW  Elec       q    Type
REMARK                         _______ _______ _______ _____ _____    ______ ____
ROOT
ATOM      1  N   UNL     1       0.334  11.959  20.367  0.00  0.00    +0.000 N 
ATOM      2  C   UNL     1       1.253  10.852  20.311  0.00  0.00    +0.000 C 
ATOM      3  C   UNL     1       0.526   9.782  19.481  0.00  0.00    +0.000 C 
ATOM      4  C   UNL     1       0.677   8.380  20.073  0.00  0.00    +0.000 C 
ATOM      5  C   UNL     1       2.091   7.846  19.962  0.00  0.00    +0.000 C 
ATOM      6  N   UNL     1       2.600   7.882  18.593  0.00  0.00    +0.000 N 
ATOM      7  C   UNL     1       3.351   6.887  17.967  0.00  0.00    +0.000 C 
ATOM      8  O   UNL     1       3.751   7.010  16.805  0.00  0.00    +0.000 OA
ATOM      9  C   UNL     1       2.469   9.178  17.916  0.00  0.00    +0.000 C 
ATOM     10  C   UNL     1       1.049   9.755  18.026  0.00  0.00    +0.000 C 
ATOM     11  C   UNL     1      -0.962  10.188  19.558  0.00  0.00    +0.000 C 
ATOM     12  C   UNL     1      -0.963  11.607  20.054  0.00  0.00    +0.000 C 
ATOM     13  O   UNL     1      -1.956  12.308  20.154  0.00  0.00    +0.000 OA
ENDROOT
BRANCH   7  14
ATOM     14  C   UNL     1       3.636   5.587  18.685  0.00  0.00    +0.000 A 
ATOM     15  C   UNL     1       4.920   5.316  18.971  0.00  0.00    +0.000 A 
ATOM     16  N   UNL     1       5.275   4.105  19.529  0.00  0.00    +0.000 N 
ATOM     17  C   UNL     1       4.388   3.075  19.761  0.00  0.00    +0.000 A 
ATOM     18  O   UNL     1       4.769   1.979  20.152  0.00  0.00    +0.000 OA
ATOM     19  C   UNL     1       2.950   3.413  19.530  0.00  0.00    +0.000 A 
ATOM     20 CL   UNL     1       1.754   2.217  19.825  0.00  0.00    +0.000 Cl
ATOM     21  C   UNL     1       2.620   4.643  19.109  0.00  0.00    +0.000 A 
ATOM     22  H   UNL     1       6.249   3.904  19.730  0.00  0.00    +0.000 HD
ENDBRANCH   7  14
BRANCH   1  24
ATOM     23  C   UNL     1       1.190  14.126  19.498  0.00  0.00    +0.000 C 
ATOM     24  C   UNL     1       0.746  13.311  20.697  0.00  0.00    +0.000 C 
ENDBRANCH   1  24
TORSDOF 2
ENDMDL
MODEL 7
REMARK VINA RESULT:      -6.6      4.088      5.891
REMARK  Name = 
REMARK  3 active torsions:
REMARK  status: ('A' for Active; 'I' for Inactive)
REMARK    1  A    between atoms: C_1  and  C_2
REMARK    2  A    between atoms: C_2  and  N_3
REMARK    3  A    between atoms: C_9  and  C_11
REMARK                            x       y       z     vdW  Elec       q    Type
REMARK                         _______ _______ _______ _____ _____    ______ ____
ROOT
ATOM      1  N   UNL     1      -1.036  10.555  18.151  0.00  0.00    +0.000 N 
ATOM      2  C   UNL     1      -0.154   9.446  17.898  0.00  0.00    +0.000 C 
ATOM      3  C   UNL     1       1.079   9.718  18.774  0.00  0.00    +0.000 C 
ATOM      4  C   UNL     1       2.391   9.435  18.042  0.00  0.00    +0.000 C 
ATOM      5  C   UNL     1       2.609   7.959  17.779  0.00  0.00    +0.000 C 
ATOM      6  N   UNL     1       2.514   7.152  18.993  0.00  0.00    +0.000 N 
ATOM      7  C   UNL     1       3.345   6.087  19.341  0.00  0.00    +0.000 C 
ATOM      8  O   UNL     1       3.182   5.450  20.386  0.00  0.00    +0.000 OA
ATOM      9  C   UNL     1       1.304   7.374  19.794  0.00  0.00    +0.000 C 
ATOM     10  C   UNL     1       1.046   8.864  20.062  0.00  0.00    +0.000 C 
ATOM     11  C   UNL     1       1.003  11.232  19.076  0.00  0.00    +0.000 C 
ATOM     12  C   UNL     1      -0.399  11.639  18.720  0.00  0.00    +0.000 C 
ATOM     13  O   UNL     1      -0.872  12.747  18.912  0.00  0.00    +0.000 OA
ENDROOT
BRANCH   7  14
ATOM     14  C   UNL     1       4.525   5.727  18.464  0.00  0.00    +0.000 A 
ATOM     15  C   UNL     1       4.659   4.436  18.121  0.00  0.00    +0.000 A 
ATOM     16  N   UNL     1       5.764   4.009  17.412  0.00  0.00    +0.000 N 
ATOM     17  C   UNL     1       6.825   4.823  17.077  0.00  0.00    +0.000 A 
ATOM     18  O   UNL     1       7.834   4.373  16.547  0.00  0.00    +0.000 OA
ATOM     19  C   UNL     1       6.629   6.274  17.378  0.00  0.00    +0.000 A 
ATOM     20 CL   UNL     1       7.871   7.386  16.965  0.00  0.00    +0.000 Cl
ATOM     21  C   UNL     1       5.488   6.683  17.951  0.00  0.00    +0.000 A 
ATOM     22  H   UNL     1       5.863   3.028  17.168  0.00  0.00    +0.000 HD
ENDBRANCH   7  14
BRANCH   1  24
ATOM     23  C   UNL     1      -2.773  10.267  16.394  0.00  0.00    +0.000 C 
ATOM     24  C   UNL     1      -2.457  10.518  17.856  0.00  0.00    +0.000 C 
ENDBRANCH   1  24
TORSDOF 2
ENDMDL
MODEL 8
REMARK VINA RESULT:      -6.5      4.892      8.517
REMARK  Name = 
REMARK  3 active torsions:
REMARK  status: ('A' for Active; 'I' for Inactive)
REMARK    1  A    between atoms: C_1  and  C_2
REMARK    2  A    between atoms: C_2  and  N_3
REMARK    3  A    between atoms: C_9  and  C_11
REMARK                            x       y       z     vdW  Elec       q    Type
REMARK                         _______ _______ _______ _____ _____    ______ ____
ROOT
ATOM      1  N   UNL     1       4.664   4.756  18.452  0.00  0.00    +0.000 N 
ATOM      2  C   UNL     1       4.173   6.054  18.836  0.00  0.00    +0.000 C 
ATOM      3  C   UNL     1       2.650   5.966  18.652  0.00  0.00    +0.000 C 
ATOM      4  C   UNL     1       2.068   7.218  17.994  0.00  0.00    +0.000 C 
ATOM      5  C   UNL     1       2.127   8.436  18.895  0.00  0.00    +0.000 C 
ATOM      6  N   UNL     1       1.505   8.203  20.195  0.00  0.00    +0.000 N 
ATOM      7  C   UNL     1       0.688   9.096  20.889  0.00  0.00    +0.000 C 
ATOM      8  O   UNL     1       0.214   8.817  21.995  0.00  0.00    +0.000 OA
ATOM      9  C   UNL     1       1.967   7.000  20.899  0.00  0.00    +0.000 C 
ATOM     10  C   UNL     1       1.936   5.751  20.006  0.00  0.00    +0.000 C 
ATOM     11  C   UNL     1       2.452   4.772  17.692  0.00  0.00    +0.000 C 
ATOM     12  C   UNL     1       3.760   4.032  17.703  0.00  0.00    +0.000 C 
ATOM     13  O   UNL     1       3.964   2.971  17.136  0.00  0.00    +0.000 OA
ENDROOT
BRANCH   7  14
ATOM     14  C   UNL     1       0.302  10.417  20.260  0.00  0.00    +0.000 A 
ATOM     15  C   UNL     1      -0.787  10.424  19.474  0.00  0.00    +0.000 A 
ATOM     16  N   UNL     1      -1.145  11.562  18.781  0.00  0.00    +0.000 N 
ATOM     17  C   UNL     1      -0.402  12.723  18.771  0.00  0.00    +0.000 A 
ATOM     18  O   UNL     1      -0.700  13.668  18.051  0.00  0.00    +0.000 OA
ATOM     19  C   UNL     1       0.755  12.742  19.718  0.00  0.00    +0.000 A 
ATOM     20 CL   UNL     1       1.727  14.154  19.818  0.00  0.00    +0.000 Cl
ATOM     21  C   UNL     1       1.005  11.666  20.478  0.00  0.00    +0.000 A 
ATOM     22  H   UNL     1      -1.962  11.554  18.179  0.00  0.00    +0.000 HD
ENDBRANCH   7  14
BRANCH   1  24
ATOM     23  C   UNL     1       7.092   4.698  17.917  0.00  0.00    +0.000 C 
ATOM     24  C   UNL     1       5.972   4.260  18.840  0.00  0.00    +0.000 C 
ENDBRANCH   1  24
TORSDOF 2
ENDMDL
MODEL 9
REMARK VINA RESULT:      -6.3      4.322      8.135
REMARK  Name = 
REMARK  3 active torsions:
REMARK  status: ('A' for Active; 'I' for Inactive)
REMARK    1  A    between atoms: C_1  and  C_2
REMARK    2  A    between atoms: C_2  and  N_3
REMARK    3  A    between atoms: C_9  and  C_11
REMARK                            x       y       z     vdW  Elec       q    Type
REMARK                         _______ _______ _______ _____ _____    ______ ____
ROOT
ATOM      1  N   UNL     1       6.037   5.117  17.582  0.00  0.00    +0.000 N 
ATOM      2  C   UNL     1       5.299   6.264  18.042  0.00  0.00    +0.000 C 
ATOM      3  C   UNL     1       3.827   5.919  17.766  0.00  0.00    +0.000 C 
ATOM      4  C   UNL     1       3.050   7.098  17.180  0.00  0.00    +0.000 C 
ATOM      5  C   UNL     1       2.846   8.221  18.178  0.00  0.00    +0.000 C 
ATOM      6  N   UNL     1       2.227   7.764  19.419  0.00  0.00    +0.000 N 
ATOM      7  C   UNL     1       1.231   8.428  20.135  0.00  0.00    +0.000 C 
ATOM      8  O   UNL     1       0.774   7.971  21.187  0.00  0.00    +0.000 OA
ATOM      9  C   UNL     1       2.876   6.607  20.048  0.00  0.00    +0.000 C 
ATOM     10  C   UNL     1       3.112   5.458  19.057  0.00  0.00    +0.000 C 
ATOM     11  C   UNL     1       3.893   4.799  16.704  0.00  0.00    +0.000 C 
ATOM     12  C   UNL     1       5.314   4.310  16.728  0.00  0.00    +0.000 C 
ATOM     13  O   UNL     1       5.733   3.359  16.090  0.00  0.00    +0.000 OA
ENDROOT
BRANCH   7  14
ATOM     14  C   UNL     1       0.633   9.708  19.594  0.00  0.00    +0.000 A 
ATOM     15  C   UNL     1       1.029  10.857  20.166  0.00  0.00    +0.000 A 
ATOM     16  N   UNL     1       0.454  12.057  19.802  0.00  0.00    +0.000 N 
ATOM     17  C   UNL     1      -0.594  12.171  18.913  0.00  0.00    +0.000 A 
ATOM     18  O   UNL     1      -1.146  13.244  18.708  0.00  0.00    +0.000 OA
ATOM     19  C   UNL     1      -0.968  10.905  18.211  0.00  0.00    +0.000 A 
ATOM     20 CL   UNL     1      -2.235  10.937  17.052  0.00  0.00    +0.000 Cl
ATOM     21  C   UNL     1      -0.304   9.773  18.489  0.00  0.00    +0.000 A 
ATOM     22  H   UNL     1       0.751  12.919  20.249  0.00  0.00    +0.000 HD
ENDBRANCH   7  14
BRANCH   1  24
ATOM     23  C   UNL     1       7.869   5.680  19.168  0.00  0.00    +0.000 C 
ATOM     24  C   UNL     1       7.398   4.833  18.001  0.00  0.00    +0.000 C 
ENDBRANCH   1  24
TORSDOF 2
ENDMDL
