MODEL 1
REMARK VINA RESULT:      -6.3      0.000      0.000
REMARK  Name = 
REMARK  4 active torsions:
REMARK  status: ('A' for Active; 'I' for Inactive)
REMARK    1  A    between atoms: C_1  and  C_2
REMARK    2  A    between atoms: C_6  and  C_7
REMARK    3  A    between atoms: C_8  and  N_9
REMARK    4  A    between atoms: N_15  and  C_16
REMARK                            x       y       z     vdW  Elec       q    Type
REMARK                         _______ _______ _______ _____ _____    ______ ____
ROOT
ATOM      1  N   UNL     1       3.078   7.025  18.011  0.00  0.00    +0.000 N 
ATOM      2  C   UNL     1       2.446   7.248  19.217  0.00  0.00    +0.000 C 
ATOM      3  O   UNL     1       2.396   6.434  20.135  0.00  0.00    +0.000 OA
ATOM      4  N   UNL     1       1.837   8.515  19.338  0.00  0.00    +0.000 N 
ATOM      5  C   UNL     1       1.130   8.763  20.603  0.00  0.00    +0.000 C 
ATOM      6  C   UNL     1       0.905  10.267  20.878  0.00  0.00    +0.000 C 
ATOM      7  N   UNL     1       0.297  11.021  19.768  0.00  0.00    +0.000 NA
ATOM      8  C   UNL     1      -1.115  10.694  19.596  0.00  0.00    +0.000 C 
ATOM      9  C   UNL     1       1.074  10.780  18.541  0.00  0.00    +0.000 C 
ATOM     10  C   UNL     1       1.343   9.299  18.202  0.00  0.00    +0.000 C 
ATOM     11  H   UNL     1       2.667   7.541  17.257  0.00  0.00    +0.000 HD
ENDROOT
BRANCH   1  19
ATOM     12  C   UNL     1       1.411   4.447  17.739  0.00  0.00    +0.000 C 
ATOM     13  C   UNL     1       2.888   4.583  17.489  0.00  0.00    +0.000 A 
ATOM     14  C   UNL     1       3.577   3.382  17.215  0.00  0.00    +0.000 A 
ATOM     15  C   UNL     1       4.948   3.362  16.977  0.00  0.00    +0.000 A 
ATOM     16  C   UNL     1       5.668   4.546  17.033  0.00  0.00    +0.000 A 
ATOM     17  C   UNL     1       5.032   5.754  17.359  0.00  0.00    +0.000 A 
ATOM     18  C   UNL     1       5.875   7.005  17.360  0.00  0.00    +0.000 C 
ATOM     19  C   UNL     1       3.629   5.781  17.593  0.00  0.00    +0.000 A 
ENDBRANCH   1  19
TORSDOF 1
ENDMDL
MODEL 2
REMARK VINA RESULT:      -6.1      1.364      1.431
REMARK  Name = 
REMARK  4 active torsions:
REMARK  status: ('A' for Active; 'I' for Inactive)
REMARK    1  A    between atoms: C_1  and  C_2
REMARK    2  A    between atoms: C_6  and  C_7
REMARK    3  A    between atoms: C_8  and  N_9
REMARK    4  A    between atoms: N_15  and  C_16
REMARK                            x       y       z     vdW  Elec       q    Type
REMARK                         _______ _______ _______ _____ _____    ______ ____
ROOT
ATOM      1  N   UNL     1       2.960   6.180  18.538  0.00  0.00    +0.000 N 
ATOM      2  C   UNL     1       2.218   6.776  19.537  0.00  0.00    +0.000 C 
ATOM      3  O   UNL     1       1.817   6.199  20.544  0.00  0.00    +0.000 OA
ATOM      4  N   UNL     1       1.935   8.142  19.324  0.00  0.00    +0.000 N 
ATOM      5  C   UNL     1       1.117   8.791  20.360  0.00  0.00    +0.000 C 
ATOM      6  C   UNL     1       1.235  10.332  20.338  0.00  0.00    +0.000 C 
ATOM      7  N   UNL     1       1.025  10.956  19.020  0.00  0.00    +0.000 NA
ATOM      8  C   UNL     1      -0.377  10.914  18.616  0.00  0.00    +0.000 C 
ATOM      9  C   UNL     1       1.904  10.306  18.035  0.00  0.00    +0.000 C 
ATOM     10  C   UNL     1       1.844   8.765  18.000  0.00  0.00    +0.000 C 
ATOM     11  H   UNL     1       2.820   6.607  17.643  0.00  0.00    +0.000 HD
ENDROOT
BRANCH   1  19
ATOM     12  C   UNL     1       0.944   4.117  17.450  0.00  0.00    +0.000 C 
ATOM     13  C   UNL     1       2.323   3.824  17.979  0.00  0.00    +0.000 A 
ATOM     14  C   UNL     1       2.661   2.457  18.082  0.00  0.00    +0.000 A 
ATOM     15  C   UNL     1       3.898   2.045  18.567  0.00  0.00    +0.000 A 
ATOM     16  C   UNL     1       4.819   2.993  18.985  0.00  0.00    +0.000 A 
ATOM     17  C   UNL     1       4.501   4.360  18.953  0.00  0.00    +0.000 A 
ATOM     18  C   UNL     1       5.570   5.332  19.385  0.00  0.00    +0.000 C 
ATOM     19  C   UNL     1       3.242   4.788  18.449  0.00  0.00    +0.000 A 
ENDBRANCH   1  19
TORSDOF 1
ENDMDL
MODEL 3
REMARK VINA RESULT:      -5.9      1.144      2.224
REMARK  Name = 
REMARK  4 active torsions:
REMARK  status: ('A' for Active; 'I' for Inactive)
REMARK    1  A    between atoms: C_1  and  C_2
REMARK    2  A    between atoms: C_6  and  C_7
REMARK    3  A    between atoms: C_8  and  N_9
REMARK    4  A    between atoms: N_15  and  C_16
REMARK                            x       y       z     vdW  Elec       q    Type
REMARK                         _______ _______ _______ _____ _____    ______ ____
ROOT
ATOM      1  N   UNL     1       3.023   6.418  18.550  0.00  0.00    +0.000 N 
ATOM      2  C   UNL     1       2.259   6.938  19.575  0.00  0.00    +0.000 C 
ATOM      3  O   UNL     1       1.918   6.311  20.574  0.00  0.00    +0.000 OA
ATOM      4  N   UNL     1       1.877   8.286  19.400  0.00  0.00    +0.000 N 
ATOM      5  C   UNL     1       1.034   8.851  20.465  0.00  0.00    +0.000 C 
ATOM      6  C   UNL     1       1.044  10.397  20.478  0.00  0.00    +0.000 C 
ATOM      7  N   UNL     1       0.767  11.034  19.179  0.00  0.00    +0.000 NA
ATOM      8  C   UNL     1      -0.636  10.903  18.797  0.00  0.00    +0.000 C 
ATOM      9  C   UNL     1       1.671  10.471  18.164  0.00  0.00    +0.000 C 
ATOM     10  C   UNL     1       1.719   8.931  18.093  0.00  0.00    +0.000 C 
ATOM     11  H   UNL     1       2.837   6.855  17.668  0.00  0.00    +0.000 HD
ENDROOT
BRANCH   1  19
ATOM     12  C   UNL     1       5.797   5.350  19.366  0.00  0.00    +0.000 C 
ATOM     13  C   UNL     1       4.674   4.548  18.764  0.00  0.00    +0.000 A 
ATOM     14  C   UNL     1       4.980   3.207  18.447  0.00  0.00    +0.000 A 
ATOM     15  C   UNL     1       4.039   2.358  17.874  0.00  0.00    +0.000 A 
ATOM     16  C   UNL     1       2.772   2.840  17.582  0.00  0.00    +0.000 A 
ATOM     17  C   UNL     1       2.444   4.182  17.828  0.00  0.00    +0.000 A 
ATOM     18  C   UNL     1       1.034   4.621  17.520  0.00  0.00    +0.000 C 
ATOM     19  C   UNL     1       3.400   5.052  18.422  0.00  0.00    +0.000 A 
ENDBRANCH   1  19
TORSDOF 1
ENDMDL
MODEL 4
REMARK VINA RESULT:      -5.7      7.499      9.101
REMARK  Name = 
REMARK  4 active torsions:
REMARK  status: ('A' for Active; 'I' for Inactive)
REMARK    1  A    between atoms: C_1  and  C_2
REMARK    2  A    between atoms: C_6  and  C_7
REMARK    3  A    between atoms: C_8  and  N_9
REMARK    4  A    between atoms: N_15  and  C_16
REMARK                            x       y       z     vdW  Elec       q    Type
REMARK                         _______ _______ _______ _____ _____    ______ ____
ROOT
ATOM      1  N   UNL     1       8.313  14.228  17.825  0.00  0.00    +0.000 N 
ATOM      2  C   UNL     1       7.708  14.515  19.031  0.00  0.00    +0.000 C 
ATOM      3  O   UNL     1       8.265  14.444  20.123  0.00  0.00    +0.000 OA
ATOM      4  N   UNL     1       6.357  14.912  18.933  0.00  0.00    +0.000 N 
ATOM      5  C   UNL     1       5.681  15.193  20.209  0.00  0.00    +0.000 C 
ATOM      6  C   UNL     1       4.410  16.054  20.035  0.00  0.00    +0.000 C 
ATOM      7  N   UNL     1       3.459  15.568  19.021  0.00  0.00    +0.000 NA
ATOM      8  C   UNL     1       2.758  14.366  19.464  0.00  0.00    +0.000 C 
ATOM      9  C   UNL     1       4.175  15.355  17.754  0.00  0.00    +0.000 C 
ATOM     10  C   UNL     1       5.460  14.505  17.847  0.00  0.00    +0.000 C 
ATOM     11  H   UNL     1       7.665  13.901  17.135  0.00  0.00    +0.000 HD
ENDROOT
BRANCH   1  19
ATOM     12  C   UNL     1       8.899  11.221  18.166  0.00  0.00    +0.000 C 
ATOM     13  C   UNL     1       9.905  12.296  17.854  0.00  0.00    +0.000 A 
ATOM     14  C   UNL     1      11.256  11.883  17.831  0.00  0.00    +0.000 A 
ATOM     15  C   UNL     1      12.289  12.777  17.569  0.00  0.00    +0.000 A 
ATOM     16  C   UNL     1      11.996  14.113  17.347  0.00  0.00    +0.000 A 
ATOM     17  C   UNL     1      10.673  14.577  17.417  0.00  0.00    +0.000 A 
ATOM     18  C   UNL     1      10.430  16.036  17.124  0.00  0.00    +0.000 C 
ATOM     19  C   UNL     1       9.612  13.666  17.675  0.00  0.00    +0.000 A 
ENDBRANCH   1  19
TORSDOF 1
ENDMDL
MODEL 5
REMARK VINA RESULT:      -5.7      0.271      2.079
REMARK  Name = 
REMARK  4 active torsions:
REMARK  status: ('A' for Active; 'I' for Inactive)
REMARK    1  A    between atoms: C_1  and  C_2
REMARK    2  A    between atoms: C_6  and  C_7
REMARK    3  A    between atoms: C_8  and  N_9
REMARK    4  A    between atoms: N_15  and  C_16
REMARK                            x       y       z     vdW  Elec       q    Type
REMARK                         _______ _______ _______ _____ _____    ______ ____
ROOT
ATOM      1  N   UNL     1       3.238   7.115  17.968  0.00  0.00    +0.000 N 
ATOM      2  C   UNL     1       2.591   7.345  19.165  0.00  0.00    +0.000 C 
ATOM      3  O   UNL     1       2.617   6.582  20.126  0.00  0.00    +0.000 OA
ATOM      4  N   UNL     1       1.870   8.557  19.222  0.00  0.00    +0.000 N 
ATOM      5  C   UNL     1       1.146   8.808  20.477  0.00  0.00    +0.000 C 
ATOM      6  C   UNL     1       0.786  10.299  20.672  0.00  0.00    +0.000 C 
ATOM      7  N   UNL     1       0.110  10.933  19.527  0.00  0.00    +0.000 NA
ATOM      8  C   UNL     1      -1.267  10.471  19.383  0.00  0.00    +0.000 C 
ATOM      9  C   UNL     1       0.903  10.697  18.310  0.00  0.00    +0.000 C 
ATOM     10  C   UNL     1       1.304   9.230  18.049  0.00  0.00    +0.000 C 
ATOM     11  H   UNL     1       2.781   7.551  17.191  0.00  0.00    +0.000 HD
ENDROOT
BRANCH   1  19
ATOM     12  C   UNL     1       6.271   6.940  17.450  0.00  0.00    +0.000 C 
ATOM     13  C   UNL     1       5.282   5.810  17.346  0.00  0.00    +0.000 A 
ATOM     14  C   UNL     1       5.795   4.590  16.854  0.00  0.00    +0.000 A 
ATOM     15  C   UNL     1       4.987   3.469  16.696  0.00  0.00    +0.000 A 
ATOM     16  C   UNL     1       3.638   3.549  17.004  0.00  0.00    +0.000 A 
ATOM     17  C   UNL     1       3.076   4.759  17.442  0.00  0.00    +0.000 A 
ATOM     18  C   UNL     1       1.610   4.756  17.795  0.00  0.00    +0.000 C 
ATOM     19  C   UNL     1       3.899   5.906  17.614  0.00  0.00    +0.000 A 
ENDBRANCH   1  19
TORSDOF 1
ENDMDL
MODEL 6
REMARK VINA RESULT:      -5.7      1.173      2.663
REMARK  Name = 
REMARK  4 active torsions:
REMARK  status: ('A' for Active; 'I' for Inactive)
REMARK    1  A    between atoms: C_1  and  C_2
REMARK    2  A    between atoms: C_6  and  C_7
REMARK    3  A    between atoms: C_8  and  N_9
REMARK    4  A    between atoms: N_15  and  C_16
REMARK                            x       y       z     vdW  Elec       q    Type
REMARK                         _______ _______ _______ _____ _____    ______ ____
ROOT
ATOM      1  N   UNL     1       2.565   6.666  18.573  0.00  0.00    +0.000 N 
ATOM      2  C   UNL     1       2.241   7.896  18.040  0.00  0.00    +0.000 C 
ATOM      3  O   UNL     1       2.565   8.274  16.918  0.00  0.00    +0.000 OA
ATOM      4  N   UNL     1       1.485   8.728  18.894  0.00  0.00    +0.000 N 
ATOM      5  C   UNL     1       1.155  10.057  18.359  0.00  0.00    +0.000 C 
ATOM      6  C   UNL     1      -0.032  10.721  19.094  0.00  0.00    +0.000 C 
ATOM      7  N   UNL     1       0.079  10.747  20.563  0.00  0.00    +0.000 NA
ATOM      8  C   UNL     1       1.082  11.705  21.016  0.00  0.00    +0.000 C 
ATOM      9  C   UNL     1       0.356   9.385  21.048  0.00  0.00    +0.000 C 
ATOM     10  C   UNL     1       1.527   8.656  20.357  0.00  0.00    +0.000 C 
ATOM     11  H   UNL     1       2.637   6.683  19.572  0.00  0.00    +0.000 HD
ENDROOT
BRANCH   1  19
ATOM     12  C   UNL     1       5.505   7.288  17.887  0.00  0.00    +0.000 C 
ATOM     13  C   UNL     1       4.783   5.993  17.626  0.00  0.00    +0.000 A 
ATOM     14  C   UNL     1       5.506   5.025  16.895  0.00  0.00    +0.000 A 
ATOM     15  C   UNL     1       4.953   3.790  16.573  0.00  0.00    +0.000 A 
ATOM     16  C   UNL     1       3.652   3.502  16.955  0.00  0.00    +0.000 A 
ATOM     17  C   UNL     1       2.879   4.458  17.633  0.00  0.00    +0.000 A 
ATOM     18  C   UNL     1       1.486   4.057  18.050  0.00  0.00    +0.000 C 
ATOM     19  C   UNL     1       3.442   5.719  17.973  0.00  0.00    +0.000 A 
ENDBRANCH   1  19
TORSDOF 1
ENDMDL
MODEL 7
REMARK VINA RESULT:      -5.7      7.830      9.628
REMARK  Name = 
REMARK  4 active torsions:
REMARK  status: ('A' for Active; 'I' for Inactive)
REMARK    1  A    between atoms: C_1  and  C_2
REMARK    2  A    between atoms: C_6  and  C_7
REMARK    3  A    between atoms: C_8  and  N_9
REMARK    4  A    between atoms: N_15  and  C_16
REMARK                            x       y       z     vdW  Elec       q    Type
REMARK                         _______ _______ _______ _____ _____    ______ ____
ROOT
ATOM      1  N   UNL     1       8.390  14.663  17.789  0.00  0.00    +0.000 N 
ATOM      2  C   UNL     1       7.778  14.960  18.989  0.00  0.00    +0.000 C 
ATOM      3  O   UNL     1       8.363  15.039  20.066  0.00  0.00    +0.000 OA
ATOM      4  N   UNL     1       6.386  15.176  18.903  0.00  0.00    +0.000 N 
ATOM      5  C   UNL     1       5.707  15.463  20.175  0.00  0.00    +0.000 C 
ATOM      6  C   UNL     1       4.333  16.144  19.980  0.00  0.00    +0.000 C 
ATOM      7  N   UNL     1       3.431  15.469  19.031  0.00  0.00    +0.000 NA
ATOM      8  C   UNL     1       2.898  14.225  19.577  0.00  0.00    +0.000 C 
ATOM      9  C   UNL     1       4.142  15.255  17.761  0.00  0.00    +0.000 C 
ATOM     10  C   UNL     1       5.526  14.582  17.876  0.00  0.00    +0.000 C 
ATOM     11  H   UNL     1       7.775  14.208  17.142  0.00  0.00    +0.000 HD
ENDROOT
BRANCH   1  19
ATOM     12  C   UNL     1      10.704  16.649  17.337  0.00  0.00    +0.000 C 
ATOM     13  C   UNL     1      10.816  15.149  17.405  0.00  0.00    +0.000 A 
ATOM     14  C   UNL     1      12.093  14.617  17.120  0.00  0.00    +0.000 A 
ATOM     15  C   UNL     1      12.333  13.247  17.135  0.00  0.00    +0.000 A 
ATOM     16  C   UNL     1      11.293  12.373  17.412  0.00  0.00    +0.000 A 
ATOM     17  C   UNL     1       9.996  12.858  17.645  0.00  0.00    +0.000 A 
ATOM     18  C   UNL     1       8.927  11.848  17.979  0.00  0.00    +0.000 C 
ATOM     19  C   UNL     1       9.746  14.258  17.640  0.00  0.00    +0.000 A 
ENDBRANCH   1  19
TORSDOF 1
ENDMDL
MODEL 8
REMARK VINA RESULT:      -5.6      3.465      5.618
REMARK  Name = 
REMARK  4 active torsions:
REMARK  status: ('A' for Active; 'I' for Inactive)
REMARK    1  A    between atoms: C_1  and  C_2
REMARK    2  A    between atoms: C_6  and  C_7
REMARK    3  A    between atoms: C_8  and  N_9
REMARK    4  A    between atoms: N_15  and  C_16
REMARK                            x       y       z     vdW  Elec       q    Type
REMARK                         _______ _______ _______ _____ _____    ______ ____
ROOT
ATOM      1  N   UNL     1       3.663   4.713  18.336  0.00  0.00    +0.000 N 
ATOM      2  C   UNL     1       4.876   4.871  18.974  0.00  0.00    +0.000 C 
ATOM      3  O   UNL     1       5.159   4.375  20.061  0.00  0.00    +0.000 OA
ATOM      4  N   UNL     1       5.809   5.667  18.277  0.00  0.00    +0.000 N 
ATOM      5  C   UNL     1       7.098   5.876  18.953  0.00  0.00    +0.000 C 
ATOM      6  C   UNL     1       8.215   6.326  17.984  0.00  0.00    +0.000 C 
ATOM      7  N   UNL     1       7.872   7.469  17.121  0.00  0.00    +0.000 NA
ATOM      8  C   UNL     1       7.819   8.721  17.870  0.00  0.00    +0.000 C 
ATOM      9  C   UNL     1       6.604   7.185  16.430  0.00  0.00    +0.000 C 
ATOM     10  C   UNL     1       5.440   6.726  17.332  0.00  0.00    +0.000 C 
ATOM     11  H   UNL     1       3.431   5.488  17.746  0.00  0.00    +0.000 HD
ENDROOT
BRANCH   1  19
ATOM     12  C   UNL     1       1.881   6.058  20.462  0.00  0.00    +0.000 C 
ATOM     13  C   UNL     1       1.704   4.675  19.895  0.00  0.00    +0.000 A 
ATOM     14  C   UNL     1       0.687   3.895  20.489  0.00  0.00    +0.000 A 
ATOM     15  C   UNL     1       0.425   2.595  20.071  0.00  0.00    +0.000 A 
ATOM     16  C   UNL     1       1.192   2.033  19.062  0.00  0.00    +0.000 A 
ATOM     17  C   UNL     1       2.250   2.753  18.484  0.00  0.00    +0.000 A 
ATOM     18  C   UNL     1       3.013   2.090  17.365  0.00  0.00    +0.000 C 
ATOM     19  C   UNL     1       2.516   4.087  18.901  0.00  0.00    +0.000 A 
ENDBRANCH   1  19
TORSDOF 1
ENDMDL
MODEL 9
REMARK VINA RESULT:      -5.6      3.544      5.551
REMARK  Name = 
REMARK  4 active torsions:
REMARK  status: ('A' for Active; 'I' for Inactive)
REMARK    1  A    between atoms: C_1  and  C_2
REMARK    2  A    between atoms: C_6  and  C_7
REMARK    3  A    between atoms: C_8  and  N_9
REMARK    4  A    between atoms: N_15  and  C_16
REMARK                            x       y       z     vdW  Elec       q    Type
REMARK                         _______ _______ _______ _____ _____    ______ ____
ROOT
ATOM      1  N   UNL     1       3.868   4.600  18.458  0.00  0.00    +0.000 N 
ATOM      2  C   UNL     1       5.097   4.832  19.041  0.00  0.00    +0.000 C 
ATOM      3  O   UNL     1       5.469   4.332  20.099  0.00  0.00    +0.000 OA
ATOM      4  N   UNL     1       5.934   5.712  18.321  0.00  0.00    +0.000 N 
ATOM      5  C   UNL     1       7.237   6.000  18.940  0.00  0.00    +0.000 C 
ATOM      6  C   UNL     1       8.269   6.554  17.932  0.00  0.00    +0.000 C 
ATOM      7  N   UNL     1       7.800   7.689  17.118  0.00  0.00    +0.000 NA
ATOM      8  C   UNL     1       7.694   8.915  17.903  0.00  0.00    +0.000 C 
ATOM      9  C   UNL     1       6.523   7.328  16.481  0.00  0.00    +0.000 C 
ATOM     10  C   UNL     1       5.442   6.763  17.425  0.00  0.00    +0.000 C 
ATOM     11  H   UNL     1       3.552   5.370  17.901  0.00  0.00    +0.000 HD
ENDROOT
BRANCH   1  19
ATOM     12  C   UNL     1       3.442   1.574  18.056  0.00  0.00    +0.000 C 
ATOM     13  C   UNL     1       2.572   2.497  18.866  0.00  0.00    +0.000 A 
ATOM     14  C   UNL     1       1.392   1.925  19.390  0.00  0.00    +0.000 A 
ATOM     15  C   UNL     1       0.492   2.669  20.146  0.00  0.00    +0.000 A 
ATOM     16  C   UNL     1       0.740   4.014  20.376  0.00  0.00    +0.000 A 
ATOM     17  C   UNL     1       1.872   4.636  19.825  0.00  0.00    +0.000 A 
ATOM     18  C   UNL     1       2.094   6.091  20.153  0.00  0.00    +0.000 C 
ATOM     19  C   UNL     1       2.800   3.878  19.060  0.00  0.00    +0.000 A 
ENDBRANCH   1  19
TORSDOF 1
ENDMDL
