MODEL 1
REMARK VINA RESULT:      -8.0      0.000      0.000
REMARK  Name = 
REMARK  10 active torsions:
REMARK  status: ('A' for Active; 'I' for Inactive)
REMARK    1  A    between atoms: C_1  and  C_2
REMARK    2  A    between atoms: C_5  and  N_6
REMARK    3  A    between atoms: N_6  and  C_7
REMARK    4  A    between atoms: C_7  and  N_9
REMARK    5  A    between atoms: C_10  and  C_12
REMARK    6  A    between atoms: C_15  and  C_16
REMARK    7  A    between atoms: C_16  and  C_17
REMARK    8  A    between atoms: C_16  and  C_18
REMARK    9  A    between atoms: C_16  and  C_19
REMARK   10  A    between atoms: C_22  and  C_23
REMARK                            x       y       z     vdW  Elec       q    Type
REMARK                         _______ _______ _______ _____ _____    ______ ____
ROOT
ATOM      1  N   UNL     1       2.965   4.824  17.966  0.00  0.00    +0.000 N 
ATOM      2  C   UNL     1       3.438   5.845  18.770  0.00  0.00    +0.000 C 
ATOM      3  O   UNL     1       4.434   5.727  19.483  0.00  0.00    +0.000 OA
ATOM      4  H   UNL     1       2.108   4.958  17.450  0.00  0.00    +0.000 HD
ENDROOT
BRANCH   2   5
ATOM      5  C   UNL     1       2.654   7.110  18.832  0.00  0.00    +0.000 A 
ATOM      6  C   UNL     1       2.044   7.376  20.060  0.00  0.00    +0.000 A 
ATOM      7  C   UNL     1       1.285   8.527  20.246  0.00  0.00    +0.000 A 
ATOM      8  C   UNL     1       1.109   9.465  19.219  0.00  0.00    +0.000 A 
ATOM      9  C   UNL     1       1.739   9.191  17.985  0.00  0.00    +0.000 A 
ATOM     10  C   UNL     1       2.505   8.026  17.788  0.00  0.00    +0.000 A 
BRANCH   8  11
ATOM     11  C   UNL     1       0.282  10.746  19.445  0.00  0.00    +0.000 C 
ATOM     12  C   UNL     1      -0.127  10.955  20.925  0.00  0.00    +0.000 C 
ATOM     13  C   UNL     1       1.103  11.981  19.023  0.00  0.00    +0.000 C 
ATOM     14  C   UNL     1      -1.021  10.696  18.624  0.00  0.00    +0.000 C 
ENDBRANCH   8  11
ENDBRANCH   2   5
BRANCH   1  15
ATOM     15  C   UNL     1       3.543   3.580  17.776  0.00  0.00    +0.000 C 
ATOM     16  S   UNL     1       2.532   2.247  17.865  0.00  0.00    +0.000 S 
BRANCH  15  17
ATOM     17  N   UNL     1       4.907   3.578  17.587  0.00  0.00    +0.000 N 
ATOM     18  H   UNL     1       5.457   3.453  18.436  0.00  0.00    +0.000 HD
BRANCH  17  23
ATOM     19  C   UNL     1       7.739   5.253  12.891  0.00  0.00    +0.000 C 
ATOM     20  C   UNL     1       7.012   4.797  14.120  0.00  0.00    +0.000 A 
ATOM     21  C   UNL     1       5.776   4.161  14.019  0.00  0.00    +0.000 A 
ATOM     22  C   UNL     1       5.111   3.725  15.165  0.00  0.00    +0.000 A 
ATOM     23  C   UNL     1       5.660   3.914  16.438  0.00  0.00    +0.000 A 
ATOM     24  C   UNL     1       6.900   4.572  16.559  0.00  0.00    +0.000 A 
ATOM     25  C   UNL     1       7.611   4.807  17.866  0.00  0.00    +0.000 C 
ATOM     26  C   UNL     1       7.568   4.993  15.390  0.00  0.00    +0.000 A 
ENDBRANCH  17  23
ENDBRANCH  15  17
ENDBRANCH   1  15
TORSDOF 5
ENDMDL
MODEL 2
REMARK VINA RESULT:      -7.7      1.626      2.609
REMARK  Name = 
REMARK  10 active torsions:
REMARK  status: ('A' for Active; 'I' for Inactive)
REMARK    1  A    between atoms: C_1  and  C_2
REMARK    2  A    between atoms: C_5  and  N_6
REMARK    3  A    between atoms: N_6  and  C_7
REMARK    4  A    between atoms: C_7  and  N_9
REMARK    5  A    between atoms: C_10  and  C_12
REMARK    6  A    between atoms: C_15  and  C_16
REMARK    7  A    between atoms: C_16  and  C_17
REMARK    8  A    between atoms: C_16  and  C_18
REMARK    9  A    between atoms: C_16  and  C_19
REMARK   10  A    between atoms: C_22  and  C_23
REMARK                            x       y       z     vdW  Elec       q    Type
REMARK                         _______ _______ _______ _____ _____    ______ ____
ROOT
ATOM      1  N   UNL     1       2.741   6.188  20.291  0.00  0.00    +0.000 N 
ATOM      2  C   UNL     1       2.322   7.223  19.475  0.00  0.00    +0.000 C 
ATOM      3  O   UNL     1       2.606   7.288  18.280  0.00  0.00    +0.000 OA
ATOM      4  H   UNL     1       2.528   6.220  21.278  0.00  0.00    +0.000 HD
ENDROOT
BRANCH   2   5
ATOM      5  C   UNL     1       1.564   8.344  20.097  0.00  0.00    +0.000 A 
ATOM      6  C   UNL     1       1.212   9.381  19.229  0.00  0.00    +0.000 A 
ATOM      7  C   UNL     1       0.501  10.486  19.688  0.00  0.00    +0.000 A 
ATOM      8  C   UNL     1       0.104  10.599  21.028  0.00  0.00    +0.000 A 
ATOM      9  C   UNL     1       0.455   9.540  21.893  0.00  0.00    +0.000 A 
ATOM     10  C   UNL     1       1.178   8.422  21.437  0.00  0.00    +0.000 A 
BRANCH   8  11
ATOM     11  C   UNL     1      -0.701  11.819  21.517  0.00  0.00    +0.000 C 
ATOM     12  C   UNL     1      -1.907  12.160  20.606  0.00  0.00    +0.000 C 
ATOM     13  C   UNL     1      -1.263  11.544  22.927  0.00  0.00    +0.000 C 
ATOM     14  C   UNL     1       0.195  13.072  21.562  0.00  0.00    +0.000 C 
ENDBRANCH   8  11
ENDBRANCH   2   5
BRANCH   1  15
ATOM     15  C   UNL     1       3.454   5.064  19.909  0.00  0.00    +0.000 C 
ATOM     16  S   UNL     1       2.728   3.576  20.165  0.00  0.00    +0.000 S 
BRANCH  15  17
ATOM     17  N   UNL     1       4.714   5.299  19.406  0.00  0.00    +0.000 N 
ATOM     18  H   UNL     1       5.291   5.922  19.970  0.00  0.00    +0.000 HD
BRANCH  17  23
ATOM     19  C   UNL     1       6.770   4.295  14.148  0.00  0.00    +0.000 C 
ATOM     20  C   UNL     1       6.241   4.538  15.530  0.00  0.00    +0.000 A 
ATOM     21  C   UNL     1       4.903   4.299  15.829  0.00  0.00    +0.000 A 
ATOM     22  C   UNL     1       4.419   4.511  17.121  0.00  0.00    +0.000 A 
ATOM     23  C   UNL     1       5.257   4.971  18.143  0.00  0.00    +0.000 A 
ATOM     24  C   UNL     1       6.610   5.236  17.851  0.00  0.00    +0.000 A 
ATOM     25  C   UNL     1       7.621   5.700  18.868  0.00  0.00    +0.000 C 
ATOM     26  C   UNL     1       7.088   5.001  16.545  0.00  0.00    +0.000 A 
ENDBRANCH  17  23
ENDBRANCH  15  17
ENDBRANCH   1  15
TORSDOF 5
ENDMDL
MODEL 3
REMARK VINA RESULT:      -7.7      1.355      1.812
REMARK  Name = 
REMARK  10 active torsions:
REMARK  status: ('A' for Active; 'I' for Inactive)
REMARK    1  A    between atoms: C_1  and  C_2
REMARK    2  A    between atoms: C_5  and  N_6
REMARK    3  A    between atoms: N_6  and  C_7
REMARK    4  A    between atoms: C_7  and  N_9
REMARK    5  A    between atoms: C_10  and  C_12
REMARK    6  A    between atoms: C_15  and  C_16
REMARK    7  A    between atoms: C_16  and  C_17
REMARK    8  A    between atoms: C_16  and  C_18
REMARK    9  A    between atoms: C_16  and  C_19
REMARK   10  A    between atoms: C_22  and  C_23
REMARK                            x       y       z     vdW  Elec       q    Type
REMARK                         _______ _______ _______ _____ _____    ______ ____
ROOT
ATOM      1  N   UNL     1       3.414   5.596  19.847  0.00  0.00    +0.000 N 
ATOM      2  C   UNL     1       2.556   6.133  18.905  0.00  0.00    +0.000 C 
ATOM      3  O   UNL     1       2.230   5.535  17.881  0.00  0.00    +0.000 OA
ATOM      4  H   UNL     1       3.694   6.159  20.638  0.00  0.00    +0.000 HD
ENDROOT
BRANCH   2   5
ATOM      5  C   UNL     1       2.075   7.529  19.107  0.00  0.00    +0.000 A 
ATOM      6  C   UNL     1       2.155   8.356  17.985  0.00  0.00    +0.000 A 
ATOM      7  C   UNL     1       1.736   9.682  18.044  0.00  0.00    +0.000 A 
ATOM      8  C   UNL     1       1.214  10.236  19.221  0.00  0.00    +0.000 A 
ATOM      9  C   UNL     1       1.128   9.386  20.346  0.00  0.00    +0.000 A 
ATOM     10  C   UNL     1       1.553   8.045  20.295  0.00  0.00    +0.000 A 
BRANCH   8  11
ATOM     11  C   UNL     1       0.735  11.699  19.267  0.00  0.00    +0.000 C 
ATOM     12  C   UNL     1       0.577  12.246  20.708  0.00  0.00    +0.000 C 
ATOM     13  C   UNL     1       1.753  12.607  18.547  0.00  0.00    +0.000 C 
ATOM     14  C   UNL     1      -0.640  11.837  18.583  0.00  0.00    +0.000 C 
ENDBRANCH   8  11
ENDBRANCH   2   5
BRANCH   1  15
ATOM     15  C   UNL     1       3.969   4.327  19.840  0.00  0.00    +0.000 C 
ATOM     16  S   UNL     1       3.027   3.079  20.441  0.00  0.00    +0.000 S 
BRANCH  15  17
ATOM     17  N   UNL     1       5.265   4.246  19.382  0.00  0.00    +0.000 N 
ATOM     18  H   UNL     1       5.977   4.249  20.111  0.00  0.00    +0.000 HD
BRANCH  17  23
ATOM     19  C   UNL     1       7.023   4.944  13.969  0.00  0.00    +0.000 C 
ATOM     20  C   UNL     1       6.579   4.746  15.387  0.00  0.00    +0.000 A 
ATOM     21  C   UNL     1       5.472   3.954  15.681  0.00  0.00    +0.000 A 
ATOM     22  C   UNL     1       5.073   3.760  17.003  0.00  0.00    +0.000 A 
ATOM     23  C   UNL     1       5.766   4.354  18.064  0.00  0.00    +0.000 A 
ATOM     24  C   UNL     1       6.877   5.174  17.783  0.00  0.00    +0.000 A 
ATOM     25  C   UNL     1       7.725   5.841  18.835  0.00  0.00    +0.000 C 
ATOM     26  C   UNL     1       7.278   5.347  16.442  0.00  0.00    +0.000 A 
ENDBRANCH  17  23
ENDBRANCH  15  17
ENDBRANCH   1  15
TORSDOF 5
ENDMDL
MODEL 4
REMARK VINA RESULT:      -7.6      1.376      1.820
REMARK  Name = 
REMARK  10 active torsions:
REMARK  status: ('A' for Active; 'I' for Inactive)
REMARK    1  A    between atoms: C_1  and  C_2
REMARK    2  A    between atoms: C_5  and  N_6
REMARK    3  A    between atoms: N_6  and  C_7
REMARK    4  A    between atoms: C_7  and  N_9
REMARK    5  A    between atoms: C_10  and  C_12
REMARK    6  A    between atoms: C_15  and  C_16
REMARK    7  A    between atoms: C_16  and  C_17
REMARK    8  A    between atoms: C_16  and  C_18
REMARK    9  A    between atoms: C_16  and  C_19
REMARK   10  A    between atoms: C_22  and  C_23
REMARK                            x       y       z     vdW  Elec       q    Type
REMARK                         _______ _______ _______ _____ _____    ______ ____
ROOT
ATOM      1  N   UNL     1       3.399   5.532  19.899  0.00  0.00    +0.000 N 
ATOM      2  C   UNL     1       2.773   6.265  18.907  0.00  0.00    +0.000 C 
ATOM      3  O   UNL     1       2.819   5.955  17.718  0.00  0.00    +0.000 OA
ATOM      4  H   UNL     1       3.378   5.870  20.851  0.00  0.00    +0.000 HD
ENDROOT
BRANCH   2   5
ATOM      5  C   UNL     1       2.085   7.529  19.296  0.00  0.00    +0.000 A 
ATOM      6  C   UNL     1       1.666   7.596  20.627  0.00  0.00    +0.000 A 
ATOM      7  C   UNL     1       1.013   8.723  21.113  0.00  0.00    +0.000 A 
ATOM      8  C   UNL     1       0.758   9.835  20.297  0.00  0.00    +0.000 A 
ATOM      9  C   UNL     1       1.196   9.759  18.956  0.00  0.00    +0.000 A 
ATOM     10  C   UNL     1       1.854   8.620  18.456  0.00  0.00    +0.000 A 
BRANCH   8  11
ATOM     11  C   UNL     1       0.052  11.085  20.855  0.00  0.00    +0.000 C 
ATOM     12  C   UNL     1      -1.195  11.500  20.034  0.00  0.00    +0.000 C 
ATOM     13  C   UNL     1      -0.424  10.819  22.297  0.00  0.00    +0.000 C 
ATOM     14  C   UNL     1       1.012  12.292  20.850  0.00  0.00    +0.000 C 
ENDBRANCH   8  11
ENDBRANCH   2   5
BRANCH   1  15
ATOM     15  C   UNL     1       4.088   4.341  19.743  0.00  0.00    +0.000 C 
ATOM     16  S   UNL     1       3.290   2.935  20.182  0.00  0.00    +0.000 S 
BRANCH  15  17
ATOM     17  N   UNL     1       5.383   4.456  19.291  0.00  0.00    +0.000 N 
ATOM     18  H   UNL     1       6.069   4.684  20.009  0.00  0.00    +0.000 HD
BRANCH  17  23
ATOM     19  C   UNL     1       7.087   4.858  13.831  0.00  0.00    +0.000 C 
ATOM     20  C   UNL     1       6.659   4.739  15.262  0.00  0.00    +0.000 A 
ATOM     21  C   UNL     1       5.625   3.880  15.625  0.00  0.00    +0.000 A 
ATOM     22  C   UNL     1       5.241   3.761  16.961  0.00  0.00    +0.000 A 
ATOM     23  C   UNL     1       5.876   4.499  17.966  0.00  0.00    +0.000 A 
ATOM     24  C   UNL     1       6.912   5.388  17.614  0.00  0.00    +0.000 A 
ATOM     25  C   UNL     1       7.695   6.211  18.603  0.00  0.00    +0.000 C 
ATOM     26  C   UNL     1       7.300   5.484  16.260  0.00  0.00    +0.000 A 
ENDBRANCH  17  23
ENDBRANCH  15  17
ENDBRANCH   1  15
TORSDOF 5
ENDMDL
MODEL 5
REMARK VINA RESULT:      -7.6      0.409      1.369
REMARK  Name = 
REMARK  10 active torsions:
REMARK  status: ('A' for Active; 'I' for Inactive)
REMARK    1  A    between atoms: C_1  and  C_2
REMARK    2  A    between atoms: C_5  and  N_6
REMARK    3  A    between atoms: N_6  and  C_7
REMARK    4  A    between atoms: C_7  and  N_9
REMARK    5  A    between atoms: C_10  and  C_12
REMARK    6  A    between atoms: C_15  and  C_16
REMARK    7  A    between atoms: C_16  and  C_17
REMARK    8  A    between atoms: C_16  and  C_18
REMARK    9  A    between atoms: C_16  and  C_19
REMARK   10  A    between atoms: C_22  and  C_23
REMARK                            x       y       z     vdW  Elec       q    Type
REMARK                         _______ _______ _______ _____ _____    ______ ____
ROOT
ATOM      1  N   UNL     1       2.985   4.904  18.020  0.00  0.00    +0.000 N 
ATOM      2  C   UNL     1       3.064   5.578  19.225  0.00  0.00    +0.000 C 
ATOM      3  O   UNL     1       3.605   5.102  20.223  0.00  0.00    +0.000 OA
ATOM      4  H   UNL     1       2.475   5.321  17.254  0.00  0.00    +0.000 HD
ENDROOT
BRANCH   2   5
ATOM      5  C   UNL     1       2.392   6.903  19.335  0.00  0.00    +0.000 A 
ATOM      6  C   UNL     1       2.346   7.649  18.154  0.00  0.00    +0.000 A 
ATOM      7  C   UNL     1       1.744   8.903  18.125  0.00  0.00    +0.000 A 
ATOM      8  C   UNL     1       1.155   9.462  19.268  0.00  0.00    +0.000 A 
ATOM      9  C   UNL     1       1.197   8.693  20.452  0.00  0.00    +0.000 A 
ATOM     10  C   UNL     1       1.808   7.426  20.490  0.00  0.00    +0.000 A 
BRANCH   8  11
ATOM     11  C   UNL     1       0.473  10.843  19.216  0.00  0.00    +0.000 C 
ATOM     12  C   UNL     1      -0.800  10.863  18.332  0.00  0.00    +0.000 C 
ATOM     13  C   UNL     1       0.045  11.270  20.635  0.00  0.00    +0.000 C 
ATOM     14  C   UNL     1       1.437  11.897  18.636  0.00  0.00    +0.000 C 
ENDBRANCH   8  11
ENDBRANCH   2   5
BRANCH   1  15
ATOM     15  C   UNL     1       3.537   3.670  17.720  0.00  0.00    +0.000 C 
ATOM     16  S   UNL     1       2.497   2.357  17.691  0.00  0.00    +0.000 S 
BRANCH  15  17
ATOM     17  N   UNL     1       4.900   3.657  17.530  0.00  0.00    +0.000 N 
ATOM     18  H   UNL     1       5.450   3.544  18.381  0.00  0.00    +0.000 HD
BRANCH  17  23
ATOM     19  C   UNL     1       7.745   5.232  12.807  0.00  0.00    +0.000 C 
ATOM     20  C   UNL     1       7.014   4.801  14.043  0.00  0.00    +0.000 A 
ATOM     21  C   UNL     1       5.761   4.199  13.953  0.00  0.00    +0.000 A 
ATOM     22  C   UNL     1       5.092   3.786  15.106  0.00  0.00    +0.000 A 
ATOM     23  C   UNL     1       5.654   3.967  16.375  0.00  0.00    +0.000 A 
ATOM     24  C   UNL     1       6.913   4.592  16.484  0.00  0.00    +0.000 A 
ATOM     25  C   UNL     1       7.639   4.813  17.785  0.00  0.00    +0.000 C 
ATOM     26  C   UNL     1       7.584   4.989  15.308  0.00  0.00    +0.000 A 
ENDBRANCH  17  23
ENDBRANCH  15  17
ENDBRANCH   1  15
TORSDOF 5
ENDMDL
MODEL 6
REMARK VINA RESULT:      -7.6      1.757      2.861
REMARK  Name = 
REMARK  10 active torsions:
REMARK  status: ('A' for Active; 'I' for Inactive)
REMARK    1  A    between atoms: C_1  and  C_2
REMARK    2  A    between atoms: C_5  and  N_6
REMARK    3  A    between atoms: N_6  and  C_7
REMARK    4  A    between atoms: C_7  and  N_9
REMARK    5  A    between atoms: C_10  and  C_12
REMARK    6  A    between atoms: C_15  and  C_16
REMARK    7  A    between atoms: C_16  and  C_17
REMARK    8  A    between atoms: C_16  and  C_18
REMARK    9  A    between atoms: C_16  and  C_19
REMARK   10  A    between atoms: C_22  and  C_23
REMARK                            x       y       z     vdW  Elec       q    Type
REMARK                         _______ _______ _______ _____ _____    ______ ____
ROOT
ATOM      1  N   UNL     1       2.364   6.338  20.478  0.00  0.00    +0.000 N 
ATOM      2  C   UNL     1       2.113   7.471  19.726  0.00  0.00    +0.000 C 
ATOM      3  O   UNL     1       2.569   7.637  18.595  0.00  0.00    +0.000 OA
ATOM      4  H   UNL     1       2.014   6.286  21.423  0.00  0.00    +0.000 HD
ENDROOT
BRANCH   2   5
ATOM      5  C   UNL     1       1.325   8.569  20.352  0.00  0.00    +0.000 A 
ATOM      6  C   UNL     1       0.825   9.526  19.465  0.00  0.00    +0.000 A 
ATOM      7  C   UNL     1       0.071  10.601  19.925  0.00  0.00    +0.000 A 
ATOM      8  C   UNL     1      -0.222  10.763  21.287  0.00  0.00    +0.000 A 
ATOM      9  C   UNL     1       0.279   9.784  22.172  0.00  0.00    +0.000 A 
ATOM     10  C   UNL     1       1.046   8.696  21.714  0.00  0.00    +0.000 A 
BRANCH   8  11
ATOM     11  C   UNL     1      -1.076  11.948  21.781  0.00  0.00    +0.000 C 
ATOM     12  C   UNL     1      -0.242  13.220  22.076  0.00  0.00    +0.000 C 
ATOM     13  C   UNL     1      -2.116  12.327  20.708  0.00  0.00    +0.000 C 
ATOM     14  C   UNL     1      -1.804  11.577  23.088  0.00  0.00    +0.000 C 
ENDBRANCH   8  11
ENDBRANCH   2   5
BRANCH   1  15
ATOM     15  C   UNL     1       3.074   5.217  20.081  0.00  0.00    +0.000 C 
ATOM     16  S   UNL     1       2.302   3.737  20.223  0.00  0.00    +0.000 S 
BRANCH  15  17
ATOM     17  N   UNL     1       4.365   5.445  19.660  0.00  0.00    +0.000 N 
ATOM     18  H   UNL     1       4.904   6.075  20.254  0.00  0.00    +0.000 HD
BRANCH  17  23
ATOM     19  C   UNL     1       6.793   4.390  14.574  0.00  0.00    +0.000 C 
ATOM     20  C   UNL     1       6.165   4.646  15.911  0.00  0.00    +0.000 A 
ATOM     21  C   UNL     1       4.792   4.497  16.090  0.00  0.00    +0.000 A 
ATOM     22  C   UNL     1       4.215   4.721  17.340  0.00  0.00    +0.000 A 
ATOM     23  C   UNL     1       4.991   5.102  18.440  0.00  0.00    +0.000 A 
ATOM     24  C   UNL     1       6.379   5.275  18.271  0.00  0.00    +0.000 A 
ATOM     25  C   UNL     1       7.328   5.649  19.380  0.00  0.00    +0.000 C 
ATOM     26  C   UNL     1       6.951   5.029  17.005  0.00  0.00    +0.000 A 
ENDBRANCH  17  23
ENDBRANCH  15  17
ENDBRANCH   1  15
TORSDOF 5
ENDMDL
MODEL 7
REMARK VINA RESULT:      -7.5      1.359      1.524
REMARK  Name = 
REMARK  10 active torsions:
REMARK  status: ('A' for Active; 'I' for Inactive)
REMARK    1  A    between atoms: C_1  and  C_2
REMARK    2  A    between atoms: C_5  and  N_6
REMARK    3  A    between atoms: N_6  and  C_7
REMARK    4  A    between atoms: C_7  and  N_9
REMARK    5  A    between atoms: C_10  and  C_12
REMARK    6  A    between atoms: C_15  and  C_16
REMARK    7  A    between atoms: C_16  and  C_17
REMARK    8  A    between atoms: C_16  and  C_18
REMARK    9  A    between atoms: C_16  and  C_19
REMARK   10  A    between atoms: C_22  and  C_23
REMARK                            x       y       z     vdW  Elec       q    Type
REMARK                         _______ _______ _______ _____ _____    ______ ____
ROOT
ATOM      1  N   UNL     1       3.390   5.672  19.761  0.00  0.00    +0.000 N 
ATOM      2  C   UNL     1       2.526   6.154  18.795  0.00  0.00    +0.000 C 
ATOM      3  O   UNL     1       2.183   5.493  17.816  0.00  0.00    +0.000 OA
ATOM      4  H   UNL     1       3.684   6.282  20.510  0.00  0.00    +0.000 HD
ENDROOT
BRANCH   2   5
ATOM      5  C   UNL     1       2.060   7.565  18.911  0.00  0.00    +0.000 A 
ATOM      6  C   UNL     1       1.606   7.942  20.177  0.00  0.00    +0.000 A 
ATOM      7  C   UNL     1       1.145   9.233  20.415  0.00  0.00    +0.000 A 
ATOM      8  C   UNL     1       1.126  10.204  19.403  0.00  0.00    +0.000 A 
ATOM      9  C   UNL     1       1.598   9.814  18.131  0.00  0.00    +0.000 A 
ATOM     10  C   UNL     1       2.061   8.508  17.881  0.00  0.00    +0.000 A 
BRANCH   8  11
ATOM     11  C   UNL     1       0.633  11.636  19.686  0.00  0.00    +0.000 C 
ATOM     12  C   UNL     1       0.153  11.840  21.145  0.00  0.00    +0.000 C 
ATOM     13  C   UNL     1       1.775  12.642  19.440  0.00  0.00    +0.000 C 
ATOM     14  C   UNL     1      -0.558  11.985  18.771  0.00  0.00    +0.000 C 
ENDBRANCH   8  11
ENDBRANCH   2   5
BRANCH   1  15
ATOM     15  C   UNL     1       3.934   4.400  19.831  0.00  0.00    +0.000 C 
ATOM     16  S   UNL     1       2.977   3.197  20.496  0.00  0.00    +0.000 S 
BRANCH  15  17
ATOM     17  N   UNL     1       5.232   4.282  19.388  0.00  0.00    +0.000 N 
ATOM     18  H   UNL     1       5.937   4.272  20.125  0.00  0.00    +0.000 HD
BRANCH  17  23
ATOM     19  C   UNL     1       7.070   4.901  13.992  0.00  0.00    +0.000 C 
ATOM     20  C   UNL     1       6.605   4.723  15.406  0.00  0.00    +0.000 A 
ATOM     21  C   UNL     1       5.463   3.978  15.689  0.00  0.00    +0.000 A 
ATOM     22  C   UNL     1       5.043   3.803  17.008  0.00  0.00    +0.000 A 
ATOM     23  C   UNL     1       5.750   4.368  18.075  0.00  0.00    +0.000 A 
ATOM     24  C   UNL     1       6.898   5.140  17.805  0.00  0.00    +0.000 A 
ATOM     25  C   UNL     1       7.763   5.771  18.864  0.00  0.00    +0.000 C 
ATOM     26  C   UNL     1       7.319   5.294  16.467  0.00  0.00    +0.000 A 
ENDBRANCH  17  23
ENDBRANCH  15  17
ENDBRANCH   1  15
TORSDOF 5
ENDMDL
MODEL 8
REMARK VINA RESULT:      -7.5      0.792      1.560
REMARK  Name = 
REMARK  10 active torsions:
REMARK  status: ('A' for Active; 'I' for Inactive)
REMARK    1  A    between atoms: C_1  and  C_2
REMARK    2  A    between atoms: C_5  and  N_6
REMARK    3  A    between atoms: N_6  and  C_7
REMARK    4  A    between atoms: C_7  and  N_9
REMARK    5  A    between atoms: C_10  and  C_12
REMARK    6  A    between atoms: C_15  and  C_16
REMARK    7  A    between atoms: C_16  and  C_17
REMARK    8  A    between atoms: C_16  and  C_18
REMARK    9  A    between atoms: C_16  and  C_19
REMARK   10  A    between atoms: C_22  and  C_23
REMARK                            x       y       z     vdW  Elec       q    Type
REMARK                         _______ _______ _______ _____ _____    ______ ____
ROOT
ATOM      1  N   UNL     1       2.985   4.860  18.570  0.00  0.00    +0.000 N 
ATOM      2  C   UNL     1       3.133   6.156  18.111  0.00  0.00    +0.000 C 
ATOM      3  O   UNL     1       3.890   6.455  17.189  0.00  0.00    +0.000 OA
ATOM      4  H   UNL     1       2.395   4.684  19.371  0.00  0.00    +0.000 HD
ENDROOT
BRANCH   2   5
ATOM      5  C   UNL     1       2.402   7.241  18.824  0.00  0.00    +0.000 A 
ATOM      6  C   UNL     1       2.068   8.350  18.043  0.00  0.00    +0.000 A 
ATOM      7  C   UNL     1       1.384   9.430  18.591  0.00  0.00    +0.000 A 
ATOM      8  C   UNL     1       0.997   9.447  19.939  0.00  0.00    +0.000 A 
ATOM      9  C   UNL     1       1.330   8.315  20.716  0.00  0.00    +0.000 A 
ATOM     10  C   UNL     1       2.026   7.221  20.169  0.00  0.00    +0.000 A 
BRANCH   8  11
ATOM     11  C   UNL     1       0.221  10.641  20.528  0.00  0.00    +0.000 C 
ATOM     12  C   UNL     1      -1.041  11.013  19.710  0.00  0.00    +0.000 C 
ATOM     13  C   UNL     1      -0.249  10.306  21.958  0.00  0.00    +0.000 C 
ATOM     14  C   UNL     1       1.115  11.896  20.567  0.00  0.00    +0.000 C 
ENDBRANCH   8  11
ENDBRANCH   2   5
BRANCH   1  15
ATOM     15  C   UNL     1       3.576   3.721  18.050  0.00  0.00    +0.000 C 
ATOM     16  S   UNL     1       2.581   2.400  17.780  0.00  0.00    +0.000 S 
BRANCH  15  17
ATOM     17  N   UNL     1       4.938   3.788  17.862  0.00  0.00    +0.000 N 
ATOM     18  H   UNL     1       5.490   3.788  18.719  0.00  0.00    +0.000 HD
BRANCH  17  23
ATOM     19  C   UNL     1       7.706   5.165  13.033  0.00  0.00    +0.000 C 
ATOM     20  C   UNL     1       6.996   4.787  14.297  0.00  0.00    +0.000 A 
ATOM     21  C   UNL     1       5.760   4.146  14.253  0.00  0.00    +0.000 A 
ATOM     22  C   UNL     1       5.111   3.782  15.433  0.00  0.00    +0.000 A 
ATOM     23  C   UNL     1       5.676   4.052  16.685  0.00  0.00    +0.000 A 
ATOM     24  C   UNL     1       6.916   4.717  16.747  0.00  0.00    +0.000 A 
ATOM     25  C   UNL     1       7.644   5.035  18.028  0.00  0.00    +0.000 C 
ATOM     26  C   UNL     1       7.569   5.064  15.545  0.00  0.00    +0.000 A 
ENDBRANCH  17  23
ENDBRANCH  15  17
ENDBRANCH   1  15
TORSDOF 5
ENDMDL
MODEL 9
REMARK VINA RESULT:      -7.5      0.467      1.020
REMARK  Name = 
REMARK  10 active torsions:
REMARK  status: ('A' for Active; 'I' for Inactive)
REMARK    1  A    between atoms: C_1  and  C_2
REMARK    2  A    between atoms: C_5  and  N_6
REMARK    3  A    between atoms: N_6  and  C_7
REMARK    4  A    between atoms: C_7  and  N_9
REMARK    5  A    between atoms: C_10  and  C_12
REMARK    6  A    between atoms: C_15  and  C_16
REMARK    7  A    between atoms: C_16  and  C_17
REMARK    8  A    between atoms: C_16  and  C_18
REMARK    9  A    between atoms: C_16  and  C_19
REMARK   10  A    between atoms: C_22  and  C_23
REMARK                            x       y       z     vdW  Elec       q    Type
REMARK                         _______ _______ _______ _____ _____    ______ ____
ROOT
ATOM      1  N   UNL     1       3.095   4.967  17.902  0.00  0.00    +0.000 N 
ATOM      2  C   UNL     1       2.904   5.638  19.096  0.00  0.00    +0.000 C 
ATOM      3  O   UNL     1       3.100   5.117  20.193  0.00  0.00    +0.000 OA
ATOM      4  H   UNL     1       2.859   5.426  17.034  0.00  0.00    +0.000 HD
ENDROOT
BRANCH   2   5
ATOM      5  C   UNL     1       2.359   7.023  19.044  0.00  0.00    +0.000 A 
ATOM      6  C   UNL     1       1.807   7.493  20.238  0.00  0.00    +0.000 A 
ATOM      7  C   UNL     1       1.265   8.772  20.319  0.00  0.00    +0.000 A 
ATOM      8  C   UNL     1       1.259   9.639  19.217  0.00  0.00    +0.000 A 
ATOM      9  C   UNL     1       1.830   9.156  18.019  0.00  0.00    +0.000 A 
ATOM     10  C   UNL     1       2.376   7.862  17.927  0.00  0.00    +0.000 A 
BRANCH   8  11
ATOM     11  C   UNL     1       0.674  11.060  19.327  0.00  0.00    +0.000 C 
ATOM     12  C   UNL     1       1.581  12.145  18.692  0.00  0.00    +0.000 C 
ATOM     13  C   UNL     1      -0.685  11.126  18.601  0.00  0.00    +0.000 C 
ATOM     14  C   UNL     1       0.481  11.449  20.806  0.00  0.00    +0.000 C 
ENDBRANCH   8  11
ENDBRANCH   2   5
BRANCH   1  15
ATOM     15  C   UNL     1       3.586   3.682  17.739  0.00  0.00    +0.000 C 
ATOM     16  S   UNL     1       2.496   2.421  17.907  0.00  0.00    +0.000 S 
BRANCH  15  17
ATOM     17  N   UNL     1       4.940   3.586  17.508  0.00  0.00    +0.000 N 
ATOM     18  H   UNL     1       5.501   3.372  18.332  0.00  0.00    +0.000 HD
BRANCH  17  23
ATOM     19  C   UNL     1       7.745   5.282  12.803  0.00  0.00    +0.000 C 
ATOM     20  C   UNL     1       7.025   4.820  14.035  0.00  0.00    +0.000 A 
ATOM     21  C   UNL     1       5.790   4.185  13.938  0.00  0.00    +0.000 A 
ATOM     22  C   UNL     1       5.131   3.743  15.086  0.00  0.00    +0.000 A 
ATOM     23  C   UNL     1       5.687   3.928  16.357  0.00  0.00    +0.000 A 
ATOM     24  C   UNL     1       6.927   4.586  16.474  0.00  0.00    +0.000 A 
ATOM     25  C   UNL     1       7.645   4.815  17.778  0.00  0.00    +0.000 C 
ATOM     26  C   UNL     1       7.589   5.012  15.302  0.00  0.00    +0.000 A 
ENDBRANCH  17  23
ENDBRANCH  15  17
ENDBRANCH   1  15
TORSDOF 5
ENDMDL
