MODEL 1
REMARK VINA RESULT:      -7.1      0.000      0.000
REMARK  Name = 
REMARK  14 active torsions:
REMARK  status: ('A' for Active; 'I' for Inactive)
REMARK    1  A    between atoms: C_1  and  C_2
REMARK    2  A    between atoms: C_2  and  C_3
REMARK    3  A    between atoms: C_2  and  C_4
REMARK    4  A    between atoms: C_4  and  N_5
REMARK    5  A    between atoms: C_4  and  C_13
REMARK    6  A    between atoms: N_5  and  S_6
REMARK    7  A    between atoms: S_6  and  C_9
REMARK    8  A    between atoms: C_19  and  C_20
REMARK    9  A    between atoms: N_22  and  C_23
REMARK   10  A    between atoms: C_23  and  C_24
REMARK   11  A    between atoms: C_23  and  C_30
REMARK   12  A    between atoms: C_24  and  C_26
REMARK   13  A    between atoms: C_30  and  C_31
REMARK   14  A    between atoms: C_30  and  C_32
REMARK                            x       y       z     vdW  Elec       q    Type
REMARK                         _______ _______ _______ _____ _____    ______ ____
ROOT
ATOM      1  C   UNL     1       2.540   6.901  19.234  0.00  0.00    +0.000 C 
ATOM      2  O   UNL     1       3.714   7.229  19.014  0.00  0.00    +0.000 OA
ATOM      3  N   UNL     1       2.250   5.567  19.461  0.00  0.00    +0.000 N 
ATOM      4  C   UNL     1       0.976   4.929  19.759  0.00  0.00    +0.000 C 
ATOM      5  C   UNL     1       1.296   3.994  20.916  0.00  0.00    +0.000 C 
ATOM      6  C   UNL     1       2.709   3.516  20.612  0.00  0.00    +0.000 C 
ATOM      7  C   UNL     1       3.349   4.646  19.780  0.00  0.00    +0.000 C 
ENDROOT
BRANCH   7   8
ATOM      8  C   UNL     1       4.068   4.068  18.538  0.00  0.00    +0.000 C 
ATOM      9  O   UNL     1       3.837   2.954  18.070  0.00  0.00    +0.000 OA
ATOM     10  N   UNL     1       5.017   4.900  17.987  0.00  0.00    +0.000 N 
ATOM     11  H   UNL     1       5.019   5.884  18.268  0.00  0.00    +0.000 HD
BRANCH  10  12
ATOM     12  C   UNL     1       6.006   4.433  17.011  0.00  0.00    +0.000 C 
BRANCH  12  13
ATOM     13  C   UNL     1       5.687   4.921  15.581  0.00  0.00    +0.000 C 
ATOM     14  C   UNL     1       5.101   6.335  15.530  0.00  0.00    +0.000 C 
ATOM     15  C   UNL     1       6.902   4.835  14.653  0.00  0.00    +0.000 C 
ENDBRANCH  12  13
BRANCH  12  16
ATOM     16  C   UNL     1       7.382   4.857  17.533  0.00  0.00    +0.000 C 
ATOM     17  O   UNL     1       8.320   4.051  17.591  0.00  0.00    +0.000 OA
BRANCH  16  18
ATOM     18  C   UNL     1       7.535   6.317  17.926  0.00  0.00    +0.000 C 
ATOM     19  F   UNL     1       7.987   7.108  16.911  0.00  0.00    +0.000 F 
ATOM     20  F   UNL     1       6.367   6.872  18.339  0.00  0.00    +0.000 F 
ATOM     21  F   UNL     1       8.425   6.481  18.946  0.00  0.00    +0.000 F 
ENDBRANCH  16  18
ENDBRANCH  12  16
ENDBRANCH  10  12
ENDBRANCH   7   8
BRANCH   1  22
ATOM     22  C   UNL     1       1.436   7.989  19.377  0.00  0.00    +0.000 C 
BRANCH  22  24
ATOM     23  C   UNL     1       2.200  10.059  18.050  0.00  0.00    +0.000 C 
ATOM     24  C   UNL     1       1.232   8.877  18.101  0.00  0.00    +0.000 C 
ATOM     25  C   UNL     1      -0.200   9.377  17.849  0.00  0.00    +0.000 C 
ENDBRANCH  22  24
BRANCH  22  26
ATOM     26  N   UNL     1       1.801   8.963  20.484  0.00  0.00    +0.000 NA
ATOM     27  H   UNL     1       2.661   8.633  20.941  0.00  0.00    +0.000 HD
BRANCH  26  28
ATOM     28  S   UNL     1       0.633   9.262  21.685  0.00  0.00    +0.000 S 
ATOM     29  O   UNL     1      -0.403   8.263  21.498  0.00  0.00    +0.000 OA
ATOM     30  O   UNL     1       1.400   9.302  22.916  0.00  0.00    +0.000 OA
BRANCH  28  31
ATOM     31  C   UNL     1      -0.053  10.971  21.319  0.00  0.00    +0.000 C 
ATOM     32  F   UNL     1      -1.167  10.909  20.534  0.00  0.00    +0.000 F 
ATOM     33  F   UNL     1      -0.393  11.648  22.449  0.00  0.00    +0.000 F 
ATOM     34  F   UNL     1       0.853  11.740  20.653  0.00  0.00    +0.000 F 
ENDBRANCH  28  31
ENDBRANCH  26  28
ENDBRANCH  22  26
ENDBRANCH   1  22
TORSDOF 10
ENDMDL
MODEL 2
REMARK VINA RESULT:      -7.0      2.833      4.323
REMARK  Name = 
REMARK  14 active torsions:
REMARK  status: ('A' for Active; 'I' for Inactive)
REMARK    1  A    between atoms: C_1  and  C_2
REMARK    2  A    between atoms: C_2  and  C_3
REMARK    3  A    between atoms: C_2  and  C_4
REMARK    4  A    between atoms: C_4  and  N_5
REMARK    5  A    between atoms: C_4  and  C_13
REMARK    6  A    between atoms: N_5  and  S_6
REMARK    7  A    between atoms: S_6  and  C_9
REMARK    8  A    between atoms: C_19  and  C_20
REMARK    9  A    between atoms: N_22  and  C_23
REMARK   10  A    between atoms: C_23  and  C_24
REMARK   11  A    between atoms: C_23  and  C_30
REMARK   12  A    between atoms: C_24  and  C_26
REMARK   13  A    between atoms: C_30  and  C_31
REMARK   14  A    between atoms: C_30  and  C_32
REMARK                            x       y       z     vdW  Elec       q    Type
REMARK                         _______ _______ _______ _____ _____    ______ ____
ROOT
ATOM      1  C   UNL     1       0.034   9.587  18.905  0.00  0.00    +0.000 C 
ATOM      2  O   UNL     1       0.863   9.273  18.041  0.00  0.00    +0.000 OA
ATOM      3  N   UNL     1       0.235   9.170  20.209  0.00  0.00    +0.000 N 
ATOM      4  C   UNL     1      -0.564   9.417  21.399  0.00  0.00    +0.000 C 
ATOM      5  C   UNL     1       0.459   9.810  22.454  0.00  0.00    +0.000 C 
ATOM      6  C   UNL     1       1.673   8.956  22.114  0.00  0.00    +0.000 C 
ATOM      7  C   UNL     1       1.565   8.682  20.600  0.00  0.00    +0.000 C 
ENDROOT
BRANCH   7   8
ATOM      8  C   UNL     1       1.800   7.183  20.299  0.00  0.00    +0.000 C 
ATOM      9  O   UNL     1       1.358   6.268  20.992  0.00  0.00    +0.000 OA
ATOM     10  N   UNL     1       2.569   6.937  19.183  0.00  0.00    +0.000 N 
ATOM     11  H   UNL     1       2.726   7.705  18.526  0.00  0.00    +0.000 HD
BRANCH  10  12
ATOM     12  C   UNL     1       3.153   5.623  18.901  0.00  0.00    +0.000 C 
BRANCH  12  13
ATOM     13  C   UNL     1       2.257   4.777  17.970  0.00  0.00    +0.000 C 
ATOM     14  C   UNL     1       3.040   3.955  16.941  0.00  0.00    +0.000 C 
ATOM     15  C   UNL     1       1.313   3.858  18.750  0.00  0.00    +0.000 C 
ENDBRANCH  12  13
BRANCH  12  16
ATOM     16  C   UNL     1       4.567   5.869  18.366  0.00  0.00    +0.000 C 
ATOM     17  O   UNL     1       4.799   6.792  17.573  0.00  0.00    +0.000 OA
BRANCH  16  18
ATOM     18  C   UNL     1       5.659   4.955  18.895  0.00  0.00    +0.000 C 
ATOM     19  F   UNL     1       6.405   4.375  17.912  0.00  0.00    +0.000 F 
ATOM     20  F   UNL     1       6.538   5.603  19.700  0.00  0.00    +0.000 F 
ATOM     21  F   UNL     1       5.149   3.923  19.628  0.00  0.00    +0.000 F 
ENDBRANCH  16  18
ENDBRANCH  12  16
ENDBRANCH  10  12
ENDBRANCH   7   8
BRANCH   1  22
ATOM     22  C   UNL     1      -1.144  10.541  18.549  0.00  0.00    +0.000 C 
BRANCH  22  24
ATOM     23  C   UNL     1      -2.265  11.119  16.304  0.00  0.00    +0.000 C 
ATOM     24  C   UNL     1      -2.048  10.043  17.369  0.00  0.00    +0.000 C 
ATOM     25  C   UNL     1      -3.403   9.436  17.765  0.00  0.00    +0.000 C 
ENDBRANCH  22  24
BRANCH  22  26
ATOM     26  N   UNL     1      -0.609  11.889  18.099  0.00  0.00    +0.000 NA
ATOM     27  H   UNL     1       0.312  11.748  17.666  0.00  0.00    +0.000 HD
BRANCH  26  28
ATOM     28  S   UNL     1      -0.473  13.113  19.273  0.00  0.00    +0.000 S 
ATOM     29  O   UNL     1       0.602  12.705  20.159  0.00  0.00    +0.000 OA
ATOM     30  O   UNL     1      -0.359  14.333  18.494  0.00  0.00    +0.000 OA
BRANCH  28  31
ATOM     31  C   UNL     1      -2.104  13.115  20.204  0.00  0.00    +0.000 C 
ATOM     32  F   UNL     1      -2.445  14.368  20.621  0.00  0.00    +0.000 F 
ATOM     33  F   UNL     1      -3.134  12.647  19.449  0.00  0.00    +0.000 F 
ATOM     34  F   UNL     1      -2.042  12.334  21.319  0.00  0.00    +0.000 F 
ENDBRANCH  28  31
ENDBRANCH  26  28
ENDBRANCH  22  26
ENDBRANCH   1  22
TORSDOF 10
ENDMDL
MODEL 3
REMARK VINA RESULT:      -7.0      3.057      7.946
REMARK  Name = 
REMARK  14 active torsions:
REMARK  status: ('A' for Active; 'I' for Inactive)
REMARK    1  A    between atoms: C_1  and  C_2
REMARK    2  A    between atoms: C_2  and  C_3
REMARK    3  A    between atoms: C_2  and  C_4
REMARK    4  A    between atoms: C_4  and  N_5
REMARK    5  A    between atoms: C_4  and  C_13
REMARK    6  A    between atoms: N_5  and  S_6
REMARK    7  A    between atoms: S_6  and  C_9
REMARK    8  A    between atoms: C_19  and  C_20
REMARK    9  A    between atoms: N_22  and  C_23
REMARK   10  A    between atoms: C_23  and  C_24
REMARK   11  A    between atoms: C_23  and  C_30
REMARK   12  A    between atoms: C_24  and  C_26
REMARK   13  A    between atoms: C_30  and  C_31
REMARK   14  A    between atoms: C_30  and  C_32
REMARK                            x       y       z     vdW  Elec       q    Type
REMARK                         _______ _______ _______ _____ _____    ______ ____
ROOT
ATOM      1  C   UNL     1       4.712   6.202  17.981  0.00  0.00    +0.000 C 
ATOM      2  O   UNL     1       4.106   7.117  17.409  0.00  0.00    +0.000 OA
ATOM      3  N   UNL     1       4.006   5.348  18.809  0.00  0.00    +0.000 N 
ATOM      4  C   UNL     1       4.469   4.197  19.570  0.00  0.00    +0.000 C 
ATOM      5  C   UNL     1       3.426   3.125  19.287  0.00  0.00    +0.000 C 
ATOM      6  C   UNL     1       2.126   3.909  19.178  0.00  0.00    +0.000 C 
ATOM      7  C   UNL     1       2.540   5.321  18.718  0.00  0.00    +0.000 C 
ENDROOT
BRANCH   7   8
ATOM      8  C   UNL     1       1.837   6.402  19.572  0.00  0.00    +0.000 C 
ATOM      9  O   UNL     1       1.253   6.166  20.630  0.00  0.00    +0.000 OA
ATOM     10  N   UNL     1       1.897   7.675  19.049  0.00  0.00    +0.000 N 
ATOM     11  H   UNL     1       2.567   7.857  18.298  0.00  0.00    +0.000 HD
BRANCH  10  12
ATOM     12  C   UNL     1       1.051   8.769  19.535  0.00  0.00    +0.000 C 
BRANCH  12  13
ATOM     13  C   UNL     1       1.651   9.458  20.779  0.00  0.00    +0.000 C 
ATOM     14  C   UNL     1       1.488  10.981  20.778  0.00  0.00    +0.000 C 
ATOM     15  C   UNL     1       1.098   8.884  22.087  0.00  0.00    +0.000 C 
ENDBRANCH  12  13
BRANCH  12  16
ATOM     16  C   UNL     1       0.808   9.705  18.348  0.00  0.00    +0.000 C 
ATOM     17  O   UNL     1       1.718   9.981  17.554  0.00  0.00    +0.000 OA
BRANCH  16  18
ATOM     18  C   UNL     1      -0.608  10.231  18.180  0.00  0.00    +0.000 C 
ATOM     19  F   UNL     1      -1.215   9.797  17.038  0.00  0.00    +0.000 F 
ATOM     20  F   UNL     1      -1.425   9.865  19.199  0.00  0.00    +0.000 F 
ATOM     21  F   UNL     1      -0.643  11.593  18.122  0.00  0.00    +0.000 F 
ENDBRANCH  16  18
ENDBRANCH  12  16
ENDBRANCH  10  12
ENDBRANCH   7   8
BRANCH   1  22
ATOM     22  C   UNL     1       6.216   5.946  17.671  0.00  0.00    +0.000 C 
BRANCH  22  24
ATOM     23  C   UNL     1       7.834   7.945  17.526  0.00  0.00    +0.000 C 
ATOM     24  C   UNL     1       7.207   6.890  18.438  0.00  0.00    +0.000 C 
ATOM     25  C   UNL     1       8.310   6.194  19.250  0.00  0.00    +0.000 C 
ENDBRANCH  22  24
BRANCH  22  26
ATOM     26  N   UNL     1       6.497   6.189  16.199  0.00  0.00    +0.000 NA
ATOM     27  H   UNL     1       5.608   6.393  15.725  0.00  0.00    +0.000 HD
BRANCH  26  28
ATOM     28  S   UNL     1       7.297   4.959  15.337  0.00  0.00    +0.000 S 
ATOM     29  O   UNL     1       7.991   5.617  14.245  0.00  0.00    +0.000 OA
ATOM     30  O   UNL     1       8.044   4.247  16.358  0.00  0.00    +0.000 OA
BRANCH  28  31
ATOM     31  C   UNL     1       5.946   3.846  14.658  0.00  0.00    +0.000 C 
ATOM     32  F   UNL     1       5.703   2.787  15.482  0.00  0.00    +0.000 F 
ATOM     33  F   UNL     1       4.767   4.504  14.488  0.00  0.00    +0.000 F 
ATOM     34  F   UNL     1       6.289   3.327  13.445  0.00  0.00    +0.000 F 
ENDBRANCH  28  31
ENDBRANCH  26  28
ENDBRANCH  22  26
ENDBRANCH   1  22
TORSDOF 10
ENDMDL
MODEL 4
REMARK VINA RESULT:      -6.9      3.860      5.394
REMARK  Name = 
REMARK  14 active torsions:
REMARK  status: ('A' for Active; 'I' for Inactive)
REMARK    1  A    between atoms: C_1  and  C_2
REMARK    2  A    between atoms: C_2  and  C_3
REMARK    3  A    between atoms: C_2  and  C_4
REMARK    4  A    between atoms: C_4  and  N_5
REMARK    5  A    between atoms: C_4  and  C_13
REMARK    6  A    between atoms: N_5  and  S_6
REMARK    7  A    between atoms: S_6  and  C_9
REMARK    8  A    between atoms: C_19  and  C_20
REMARK    9  A    between atoms: N_22  and  C_23
REMARK   10  A    between atoms: C_23  and  C_24
REMARK   11  A    between atoms: C_23  and  C_30
REMARK   12  A    between atoms: C_24  and  C_26
REMARK   13  A    between atoms: C_30  and  C_31
REMARK   14  A    between atoms: C_30  and  C_32
REMARK                            x       y       z     vdW  Elec       q    Type
REMARK                         _______ _______ _______ _____ _____    ______ ____
ROOT
ATOM      1  C   UNL     1       0.792  10.710  18.814  0.00  0.00    +0.000 C 
ATOM      2  O   UNL     1       1.826  10.788  18.137  0.00  0.00    +0.000 OA
ATOM      3  N   UNL     1       0.624   9.623  19.655  0.00  0.00    +0.000 N 
ATOM      4  C   UNL     1      -0.472   9.308  20.559  0.00  0.00    +0.000 C 
ATOM      5  C   UNL     1       0.223   8.892  21.847  0.00  0.00    +0.000 C 
ATOM      6  C   UNL     1       1.478   8.178  21.364  0.00  0.00    +0.000 C 
ATOM      7  C   UNL     1       1.791   8.795  19.986  0.00  0.00    +0.000 C 
ENDROOT
BRANCH   7   8
ATOM      8  C   UNL     1       2.092   7.687  18.948  0.00  0.00    +0.000 C 
ATOM      9  O   UNL     1       2.039   7.858  17.731  0.00  0.00    +0.000 OA
ATOM     10  N   UNL     1       2.417   6.465  19.493  0.00  0.00    +0.000 N 
ATOM     11  H   UNL     1       2.660   6.428  20.486  0.00  0.00    +0.000 HD
BRANCH  10  12
ATOM     12  C   UNL     1       2.439   5.230  18.703  0.00  0.00    +0.000 C 
BRANCH  12  13
ATOM     13  C   UNL     1       3.878   4.767  18.389  0.00  0.00    +0.000 C 
ATOM     14  C   UNL     1       4.363   5.167  16.993  0.00  0.00    +0.000 C 
ATOM     15  C   UNL     1       4.885   5.245  19.439  0.00  0.00    +0.000 C 
ENDBRANCH  12  13
BRANCH  12  16
ATOM     16  C   UNL     1       1.594   4.202  19.462  0.00  0.00    +0.000 C 
ATOM     17  O   UNL     1       1.025   4.498  20.521  0.00  0.00    +0.000 OA
BRANCH  16  18
ATOM     18  C   UNL     1       1.461   2.831  18.820  0.00  0.00    +0.000 C 
ATOM     19  F   UNL     1       0.190   2.337  18.854  0.00  0.00    +0.000 F 
ATOM     20  F   UNL     1       1.828   2.828  17.513  0.00  0.00    +0.000 F 
ATOM     21  F   UNL     1       2.237   1.898  19.444  0.00  0.00    +0.000 F 
ENDBRANCH  16  18
ENDBRANCH  12  16
ENDBRANCH  10  12
ENDBRANCH   7   8
BRANCH   1  22
ATOM     22  C   UNL     1      -0.237  11.878  18.810  0.00  0.00    +0.000 C 
BRANCH  22  24
ATOM     23  C   UNL     1      -2.809  11.762  18.867  0.00  0.00    +0.000 C 
ATOM     24  C   UNL     1      -1.553  11.581  18.013  0.00  0.00    +0.000 C 
ATOM     25  C   UNL     1      -1.616  10.224  17.294  0.00  0.00    +0.000 C 
ENDBRANCH  22  24
BRANCH  22  26
ATOM     26  N   UNL     1       0.364  13.103  18.143  0.00  0.00    +0.000 NA
ATOM     27  H   UNL     1       1.246  12.831  17.691  0.00  0.00    +0.000 HD
BRANCH  26  28
ATOM     28  S   UNL     1       0.656  14.467  19.118  0.00  0.00    +0.000 S 
ATOM     29  O   UNL     1      -0.221  15.511  18.624  0.00  0.00    +0.000 OA
ATOM     30  O   UNL     1       0.510  13.965  20.472  0.00  0.00    +0.000 OA
BRANCH  28  31
ATOM     31  C   UNL     1       2.448  14.939  18.814  0.00  0.00    +0.000 C 
ATOM     32  F   UNL     1       2.637  16.286  18.913  0.00  0.00    +0.000 F 
ATOM     33  F   UNL     1       3.299  14.346  19.695  0.00  0.00    +0.000 F 
ATOM     34  F   UNL     1       2.855  14.577  17.565  0.00  0.00    +0.000 F 
ENDBRANCH  28  31
ENDBRANCH  26  28
ENDBRANCH  22  26
ENDBRANCH   1  22
TORSDOF 10
ENDMDL
MODEL 5
REMARK VINA RESULT:      -6.9      3.869      5.341
REMARK  Name = 
REMARK  14 active torsions:
REMARK  status: ('A' for Active; 'I' for Inactive)
REMARK    1  A    between atoms: C_1  and  C_2
REMARK    2  A    between atoms: C_2  and  C_3
REMARK    3  A    between atoms: C_2  and  C_4
REMARK    4  A    between atoms: C_4  and  N_5
REMARK    5  A    between atoms: C_4  and  C_13
REMARK    6  A    between atoms: N_5  and  S_6
REMARK    7  A    between atoms: S_6  and  C_9
REMARK    8  A    between atoms: C_19  and  C_20
REMARK    9  A    between atoms: N_22  and  C_23
REMARK   10  A    between atoms: C_23  and  C_24
REMARK   11  A    between atoms: C_23  and  C_30
REMARK   12  A    between atoms: C_24  and  C_26
REMARK   13  A    between atoms: C_30  and  C_31
REMARK   14  A    between atoms: C_30  and  C_32
REMARK                            x       y       z     vdW  Elec       q    Type
REMARK                         _______ _______ _______ _____ _____    ______ ____
ROOT
ATOM      1  C   UNL     1       0.850  10.793  18.877  0.00  0.00    +0.000 C 
ATOM      2  O   UNL     1       1.892  10.851  18.211  0.00  0.00    +0.000 OA
ATOM      3  N   UNL     1       0.638   9.697  19.695  0.00  0.00    +0.000 N 
ATOM      4  C   UNL     1      -0.476   9.400  20.583  0.00  0.00    +0.000 C 
ATOM      5  C   UNL     1       0.193   8.938  21.869  0.00  0.00    +0.000 C 
ATOM      6  C   UNL     1       1.430   8.194  21.384  0.00  0.00    +0.000 C 
ATOM      7  C   UNL     1       1.775   8.826  20.021  0.00  0.00    +0.000 C 
ENDROOT
BRANCH   7   8
ATOM      8  C   UNL     1       2.052   7.729  18.966  0.00  0.00    +0.000 C 
ATOM      9  O   UNL     1       1.940   7.903  17.752  0.00  0.00    +0.000 OA
ATOM     10  N   UNL     1       2.426   6.512  19.489  0.00  0.00    +0.000 N 
ATOM     11  H   UNL     1       2.715   6.476  20.470  0.00  0.00    +0.000 HD
BRANCH  10  12
ATOM     12  C   UNL     1       2.438   5.281  18.693  0.00  0.00    +0.000 C 
BRANCH  12  13
ATOM     13  C   UNL     1       3.871   4.840  18.326  0.00  0.00    +0.000 C 
ATOM     14  C   UNL     1       4.357   5.386  16.979  0.00  0.00    +0.000 C 
ATOM     15  C   UNL     1       4.886   5.190  19.418  0.00  0.00    +0.000 C 
ENDBRANCH  12  13
BRANCH  12  16
ATOM     16  C   UNL     1       1.636   4.237  19.477  0.00  0.00    +0.000 C 
ATOM     17  O   UNL     1       1.097   4.521  20.555  0.00  0.00    +0.000 OA
BRANCH  16  18
ATOM     18  C   UNL     1       1.506   2.865  18.837  0.00  0.00    +0.000 C 
ATOM     19  F   UNL     1       0.242   2.358  18.893  0.00  0.00    +0.000 F 
ATOM     20  F   UNL     1       1.851   2.866  17.525  0.00  0.00    +0.000 F 
ATOM     21  F   UNL     1       2.302   1.940  19.447  0.00  0.00    +0.000 F 
ENDBRANCH  16  18
ENDBRANCH  12  16
ENDBRANCH  10  12
ENDBRANCH   7   8
BRANCH   1  22
ATOM     22  C   UNL     1      -0.142  11.994  18.885  0.00  0.00    +0.000 C 
BRANCH  22  24
ATOM     23  C   UNL     1      -2.710  11.865  19.026  0.00  0.00    +0.000 C 
ATOM     24  C   UNL     1      -1.485  11.731  18.120  0.00  0.00    +0.000 C 
ATOM     25  C   UNL     1      -1.570  10.411  17.337  0.00  0.00    +0.000 C 
ENDBRANCH  22  24
BRANCH  22  26
ATOM     26  N   UNL     1       0.482  13.193  18.193  0.00  0.00    +0.000 NA
ATOM     27  H   UNL     1       1.234  12.861  17.576  0.00  0.00    +0.000 HD
BRANCH  26  28
ATOM     28  S   UNL     1       1.100  14.436  19.177  0.00  0.00    +0.000 S 
ATOM     29  O   UNL     1       1.350  13.836  20.474  0.00  0.00    +0.000 OA
ATOM     30  O   UNL     1       2.195  14.985  18.399  0.00  0.00    +0.000 OA
BRANCH  28  31
ATOM     31  C   UNL     1      -0.271  15.711  19.315  0.00  0.00    +0.000 C 
ATOM     32  F   UNL     1      -0.611  16.220  18.096  0.00  0.00    +0.000 F 
ATOM     33  F   UNL     1      -1.404  15.199  19.868  0.00  0.00    +0.000 F 
ATOM     34  F   UNL     1       0.105  16.767  20.089  0.00  0.00    +0.000 F 
ENDBRANCH  28  31
ENDBRANCH  26  28
ENDBRANCH  22  26
ENDBRANCH   1  22
TORSDOF 10
ENDMDL
MODEL 6
REMARK VINA RESULT:      -6.9      3.223      8.493
REMARK  Name = 
REMARK  14 active torsions:
REMARK  status: ('A' for Active; 'I' for Inactive)
REMARK    1  A    between atoms: C_1  and  C_2
REMARK    2  A    between atoms: C_2  and  C_3
REMARK    3  A    between atoms: C_2  and  C_4
REMARK    4  A    between atoms: C_4  and  N_5
REMARK    5  A    between atoms: C_4  and  C_13
REMARK    6  A    between atoms: N_5  and  S_6
REMARK    7  A    between atoms: S_6  and  C_9
REMARK    8  A    between atoms: C_19  and  C_20
REMARK    9  A    between atoms: N_22  and  C_23
REMARK   10  A    between atoms: C_23  and  C_24
REMARK   11  A    between atoms: C_23  and  C_30
REMARK   12  A    between atoms: C_24  and  C_26
REMARK   13  A    between atoms: C_30  and  C_31
REMARK   14  A    between atoms: C_30  and  C_32
REMARK                            x       y       z     vdW  Elec       q    Type
REMARK                         _______ _______ _______ _____ _____    ______ ____
ROOT
ATOM      1  C   UNL     1       4.439   6.719  17.101  0.00  0.00    +0.000 C 
ATOM      2  O   UNL     1       3.875   7.424  16.254  0.00  0.00    +0.000 OA
ATOM      3  N   UNL     1       3.827   6.529  18.328  0.00  0.00    +0.000 N 
ATOM      4  C   UNL     1       4.261   5.741  19.472  0.00  0.00    +0.000 C 
ATOM      5  C   UNL     1       3.013   4.976  19.887  0.00  0.00    +0.000 C 
ATOM      6  C   UNL     1       1.881   5.954  19.602  0.00  0.00    +0.000 C 
ATOM      7  C   UNL     1       2.403   6.861  18.470  0.00  0.00    +0.000 C 
ENDROOT
BRANCH   7   8
ATOM      8  C   UNL     1       2.133   8.349  18.794  0.00  0.00    +0.000 C 
ATOM      9  O   UNL     1       2.706   9.286  18.238  0.00  0.00    +0.000 OA
ATOM     10  N   UNL     1       1.195   8.560  19.780  0.00  0.00    +0.000 N 
ATOM     11  H   UNL     1       0.597   7.776  20.052  0.00  0.00    +0.000 HD
BRANCH  10  12
ATOM     12  C   UNL     1       1.019   9.858  20.437  0.00  0.00    +0.000 C 
BRANCH  12  13
ATOM     13  C   UNL     1      -0.251  10.589  19.949  0.00  0.00    +0.000 C 
ATOM     14  C   UNL     1      -0.108  12.113  19.910  0.00  0.00    +0.000 C 
ATOM     15  C   UNL     1      -0.725  10.082  18.583  0.00  0.00    +0.000 C 
ENDBRANCH  12  13
BRANCH  12  16
ATOM     16  C   UNL     1       1.061   9.603  21.946  0.00  0.00    +0.000 C 
ATOM     17  O   UNL     1       2.131   9.629  22.570  0.00  0.00    +0.000 OA
BRANCH  16  18
ATOM     18  C   UNL     1      -0.275   9.364  22.629  0.00  0.00    +0.000 C 
ATOM     19  F   UNL     1      -1.122  10.431  22.554  0.00  0.00    +0.000 F 
ATOM     20  F   UNL     1      -0.951   8.313  22.101  0.00  0.00    +0.000 F 
ATOM     21  F   UNL     1      -0.129   9.102  23.960  0.00  0.00    +0.000 F 
ENDBRANCH  16  18
ENDBRANCH  12  16
ENDBRANCH  10  12
ENDBRANCH   7   8
BRANCH   1  22
ATOM     22  C   UNL     1       5.750   5.961  16.741  0.00  0.00    +0.000 C 
BRANCH  22  24
ATOM     23  C   UNL     1       7.634   5.972  18.497  0.00  0.00    +0.000 C 
ATOM     24  C   UNL     1       7.061   6.652  17.254  0.00  0.00    +0.000 C 
ATOM     25  C   UNL     1       6.976   8.168  17.493  0.00  0.00    +0.000 C 
ENDBRANCH  22  24
BRANCH  22  26
ATOM     26  N   UNL     1       5.910   5.875  15.234  0.00  0.00    +0.000 NA
ATOM     27  H   UNL     1       4.988   5.693  14.816  0.00  0.00    +0.000 HD
BRANCH  26  28
ATOM     28  S   UNL     1       7.014   4.734  14.622  0.00  0.00    +0.000 S 
ATOM     29  O   UNL     1       8.159   5.492  14.154  0.00  0.00    +0.000 OA
ATOM     30  O   UNL     1       7.160   3.776  15.703  0.00  0.00    +0.000 OA
BRANCH  28  31
ATOM     31  C   UNL     1       6.152   3.913  13.170  0.00  0.00    +0.000 C 
ATOM     32  F   UNL     1       6.646   4.352  11.977  0.00  0.00    +0.000 F 
ATOM     33  F   UNL     1       6.280   2.559  13.187  0.00  0.00    +0.000 F 
ATOM     34  F   UNL     1       4.817   4.185  13.164  0.00  0.00    +0.000 F 
ENDBRANCH  28  31
ENDBRANCH  26  28
ENDBRANCH  22  26
ENDBRANCH   1  22
TORSDOF 10
ENDMDL
MODEL 7
REMARK VINA RESULT:      -6.8      3.210      8.754
REMARK  Name = 
REMARK  14 active torsions:
REMARK  status: ('A' for Active; 'I' for Inactive)
REMARK    1  A    between atoms: C_1  and  C_2
REMARK    2  A    between atoms: C_2  and  C_3
REMARK    3  A    between atoms: C_2  and  C_4
REMARK    4  A    between atoms: C_4  and  N_5
REMARK    5  A    between atoms: C_4  and  C_13
REMARK    6  A    between atoms: N_5  and  S_6
REMARK    7  A    between atoms: S_6  and  C_9
REMARK    8  A    between atoms: C_19  and  C_20
REMARK    9  A    between atoms: N_22  and  C_23
REMARK   10  A    between atoms: C_23  and  C_24
REMARK   11  A    between atoms: C_23  and  C_30
REMARK   12  A    between atoms: C_24  and  C_26
REMARK   13  A    between atoms: C_30  and  C_31
REMARK   14  A    between atoms: C_30  and  C_32
REMARK                            x       y       z     vdW  Elec       q    Type
REMARK                         _______ _______ _______ _____ _____    ______ ____
ROOT
ATOM      1  C   UNL     1       1.698   6.900  20.188  0.00  0.00    +0.000 C 
ATOM      2  O   UNL     1       1.533   7.166  21.385  0.00  0.00    +0.000 OA
ATOM      3  N   UNL     1       1.533   7.905  19.251  0.00  0.00    +0.000 N 
ATOM      4  C   UNL     1       1.687   7.863  17.804  0.00  0.00    +0.000 C 
ATOM      5  C   UNL     1       2.498   9.110  17.485  0.00  0.00    +0.000 C 
ATOM      6  C   UNL     1       2.003  10.131  18.500  0.00  0.00    +0.000 C 
ATOM      7  C   UNL     1       1.515   9.302  19.704  0.00  0.00    +0.000 C 
ENDROOT
BRANCH   7   8
ATOM      8  C   UNL     1       0.126   9.793  20.178  0.00  0.00    +0.000 C 
ATOM      9  O   UNL     1      -0.441   9.374  21.187  0.00  0.00    +0.000 OA
ATOM     10  N   UNL     1      -0.454  10.742  19.366  0.00  0.00    +0.000 N 
ATOM     11  H   UNL     1       0.136  11.211  18.674  0.00  0.00    +0.000 HD
BRANCH  10  12
ATOM     12  C   UNL     1      -1.870  11.108  19.465  0.00  0.00    +0.000 C 
BRANCH  12  13
ATOM     13  C   UNL     1      -2.087  12.358  20.345  0.00  0.00    +0.000 C 
ATOM     14  C   UNL     1      -1.074  13.477  20.085  0.00  0.00    +0.000 C 
ATOM     15  C   UNL     1      -3.508  12.914  20.225  0.00  0.00    +0.000 C 
ENDBRANCH  12  13
BRANCH  12  16
ATOM     16  C   UNL     1      -2.397  11.242  18.033  0.00  0.00    +0.000 C 
ATOM     17  O   UNL     1      -1.844  11.991  17.216  0.00  0.00    +0.000 OA
BRANCH  16  18
ATOM     18  C   UNL     1      -3.593  10.379  17.670  0.00  0.00    +0.000 C 
ATOM     19  F   UNL     1      -4.724  10.699  18.362  0.00  0.00    +0.000 F 
ATOM     20  F   UNL     1      -3.922  10.468  16.356  0.00  0.00    +0.000 F 
ATOM     21  F   UNL     1      -3.366   9.058  17.925  0.00  0.00    +0.000 F 
ENDBRANCH  16  18
ENDBRANCH  12  16
ENDBRANCH  10  12
ENDBRANCH   7   8
BRANCH   1  22
ATOM     22  C   UNL     1       2.207   5.492  19.761  0.00  0.00    +0.000 C 
BRANCH  22  24
ATOM     23  C   UNL     1       2.447   3.572  21.460  0.00  0.00    +0.000 C 
ATOM     24  C   UNL     1       1.507   4.298  20.497  0.00  0.00    +0.000 C 
ATOM     25  C   UNL     1       0.802   3.270  19.598  0.00  0.00    +0.000 C 
ENDBRANCH  22  24
BRANCH  22  26
ATOM     26  N   UNL     1       3.683   5.348  20.086  0.00  0.00    +0.000 NA
ATOM     27  H   UNL     1       3.982   6.169  20.627  0.00  0.00    +0.000 HD
BRANCH  26  28
ATOM     28  S   UNL     1       4.759   5.140  18.783  0.00  0.00    +0.000 S 
ATOM     29  O   UNL     1       4.709   6.372  18.018  0.00  0.00    +0.000 OA
ATOM     30  O   UNL     1       5.996   4.719  19.416  0.00  0.00    +0.000 OA
BRANCH  28  31
ATOM     31  C   UNL     1       4.063   3.724  17.765  0.00  0.00    +0.000 C 
ATOM     32  F   UNL     1       2.879   4.060  17.178  0.00  0.00    +0.000 F 
ATOM     33  F   UNL     1       4.908   3.333  16.772  0.00  0.00    +0.000 F 
ATOM     34  F   UNL     1       3.822   2.627  18.535  0.00  0.00    +0.000 F 
ENDBRANCH  28  31
ENDBRANCH  26  28
ENDBRANCH  22  26
ENDBRANCH   1  22
TORSDOF 10
ENDMDL
MODEL 8
REMARK VINA RESULT:      -6.8      3.530      7.783
REMARK  Name = 
REMARK  14 active torsions:
REMARK  status: ('A' for Active; 'I' for Inactive)
REMARK    1  A    between atoms: C_1  and  C_2
REMARK    2  A    between atoms: C_2  and  C_3
REMARK    3  A    between atoms: C_2  and  C_4
REMARK    4  A    between atoms: C_4  and  N_5
REMARK    5  A    between atoms: C_4  and  C_13
REMARK    6  A    between atoms: N_5  and  S_6
REMARK    7  A    between atoms: S_6  and  C_9
REMARK    8  A    between atoms: C_19  and  C_20
REMARK    9  A    between atoms: N_22  and  C_23
REMARK   10  A    between atoms: C_23  and  C_24
REMARK   11  A    between atoms: C_23  and  C_30
REMARK   12  A    between atoms: C_24  and  C_26
REMARK   13  A    between atoms: C_30  and  C_31
REMARK   14  A    between atoms: C_30  and  C_32
REMARK                            x       y       z     vdW  Elec       q    Type
REMARK                         _______ _______ _______ _____ _____    ______ ____
ROOT
ATOM      1  C   UNL     1       2.211   7.733  18.527  0.00  0.00    +0.000 C 
ATOM      2  O   UNL     1       2.040   8.126  17.366  0.00  0.00    +0.000 OA
ATOM      3  N   UNL     1       1.675   8.469  19.569  0.00  0.00    +0.000 N 
ATOM      4  C   UNL     1       1.714   8.218  21.002  0.00  0.00    +0.000 C 
ATOM      5  C   UNL     1       0.282   8.458  21.456  0.00  0.00    +0.000 C 
ATOM      6  C   UNL     1      -0.194   9.594  20.561  0.00  0.00    +0.000 C 
ATOM      7  C   UNL     1       0.645   9.473  19.272  0.00  0.00    +0.000 C 
ENDROOT
BRANCH   7   8
ATOM      8  C   UNL     1       1.210  10.852  18.858  0.00  0.00    +0.000 C 
ATOM      9  O   UNL     1       2.263  11.002  18.238  0.00  0.00    +0.000 OA
ATOM     10  N   UNL     1       0.444  11.927  19.250  0.00  0.00    +0.000 N 
ATOM     11  H   UNL     1      -0.514  11.749  19.561  0.00  0.00    +0.000 HD
BRANCH  10  12
ATOM     12  C   UNL     1       0.945  13.304  19.224  0.00  0.00    +0.000 C 
BRANCH  12  13
ATOM     13  C   UNL     1      -0.182  14.327  18.965  0.00  0.00    +0.000 C 
ATOM     14  C   UNL     1      -1.332  14.246  19.974  0.00  0.00    +0.000 C 
ATOM     15  C   UNL     1       0.341  15.765  18.899  0.00  0.00    +0.000 C 
ENDBRANCH  12  13
BRANCH  12  16
ATOM     16  C   UNL     1       1.710  13.524  20.533  0.00  0.00    +0.000 C 
ATOM     17  O   UNL     1       1.226  13.187  21.622  0.00  0.00    +0.000 OA
BRANCH  16  18
ATOM     18  C   UNL     1       3.099  14.129  20.409  0.00  0.00    +0.000 C 
ATOM     19  F   UNL     1       3.117  15.483  20.572  0.00  0.00    +0.000 F 
ATOM     20  F   UNL     1       3.969  13.631  21.324  0.00  0.00    +0.000 F 
ATOM     21  F   UNL     1       3.650  13.897  19.183  0.00  0.00    +0.000 F 
ENDBRANCH  16  18
ENDBRANCH  12  16
ENDBRANCH  10  12
ENDBRANCH   7   8
BRANCH   1  22
ATOM     22  C   UNL     1       2.910   6.367  18.796  0.00  0.00    +0.000 C 
BRANCH  22  24
ATOM     23  C   UNL     1       4.566   5.828  16.899  0.00  0.00    +0.000 C 
ATOM     24  C   UNL     1       4.410   6.305  18.343  0.00  0.00    +0.000 C 
ATOM     25  C   UNL     1       5.357   5.505  19.251  0.00  0.00    +0.000 C 
ENDBRANCH  22  24
BRANCH  22  26
ATOM     26  N   UNL     1       2.215   5.262  18.021  0.00  0.00    +0.000 NA
ATOM     27  H   UNL     1       1.312   5.617  17.681  0.00  0.00    +0.000 HD
BRANCH  26  28
ATOM     28  S   UNL     1       1.946   3.786  18.825  0.00  0.00    +0.000 S 
ATOM     29  O   UNL     1       0.828   3.156  18.146  0.00  0.00    +0.000 OA
ATOM     30  O   UNL     1       3.251   3.152  18.836  0.00  0.00    +0.000 OA
BRANCH  28  31
ATOM     31  C   UNL     1       1.455   4.241  20.579  0.00  0.00    +0.000 C 
ATOM     32  F   UNL     1       2.523   4.681  21.303  0.00  0.00    +0.000 F 
ATOM     33  F   UNL     1       0.510   5.219  20.619  0.00  0.00    +0.000 F 
ATOM     34  F   UNL     1       0.943   3.169  21.248  0.00  0.00    +0.000 F 
ENDBRANCH  28  31
ENDBRANCH  26  28
ENDBRANCH  22  26
ENDBRANCH   1  22
TORSDOF 10
ENDMDL
MODEL 9
REMARK VINA RESULT:      -6.8      1.339      1.526
REMARK  Name = 
REMARK  14 active torsions:
REMARK  status: ('A' for Active; 'I' for Inactive)
REMARK    1  A    between atoms: C_1  and  C_2
REMARK    2  A    between atoms: C_2  and  C_3
REMARK    3  A    between atoms: C_2  and  C_4
REMARK    4  A    between atoms: C_4  and  N_5
REMARK    5  A    between atoms: C_4  and  C_13
REMARK    6  A    between atoms: N_5  and  S_6
REMARK    7  A    between atoms: S_6  and  C_9
REMARK    8  A    between atoms: C_19  and  C_20
REMARK    9  A    between atoms: N_22  and  C_23
REMARK   10  A    between atoms: C_23  and  C_24
REMARK   11  A    between atoms: C_23  and  C_30
REMARK   12  A    between atoms: C_24  and  C_26
REMARK   13  A    between atoms: C_30  and  C_31
REMARK   14  A    between atoms: C_30  and  C_32
REMARK                            x       y       z     vdW  Elec       q    Type
REMARK                         _______ _______ _______ _____ _____    ______ ____
ROOT
ATOM      1  C   UNL     1       2.688   6.296  19.512  0.00  0.00    +0.000 C 
ATOM      2  O   UNL     1       3.690   6.469  20.218  0.00  0.00    +0.000 OA
ATOM      3  N   UNL     1       2.414   5.024  19.041  0.00  0.00    +0.000 N 
ATOM      4  C   UNL     1       1.306   4.553  18.222  0.00  0.00    +0.000 C 
ATOM      5  C   UNL     1       0.850   3.279  18.918  0.00  0.00    +0.000 C 
ATOM      6  C   UNL     1       2.144   2.679  19.452  0.00  0.00    +0.000 C 
ATOM      7  C   UNL     1       3.092   3.876  19.658  0.00  0.00    +0.000 C 
ENDROOT
BRANCH   7   8
ATOM      8  C   UNL     1       4.488   3.576  19.064  0.00  0.00    +0.000 C 
ATOM      9  O   UNL     1       5.279   2.766  19.548  0.00  0.00    +0.000 OA
ATOM     10  N   UNL     1       4.800   4.303  17.937  0.00  0.00    +0.000 N 
ATOM     11  H   UNL     1       4.043   4.791  17.453  0.00  0.00    +0.000 HD
BRANCH  10  12
ATOM     12  C   UNL     1       6.164   4.391  17.406  0.00  0.00    +0.000 C 
BRANCH  12  13
ATOM     13  C   UNL     1       6.215   4.111  15.889  0.00  0.00    +0.000 C 
ATOM     14  C   UNL     1       4.910   4.439  15.157  0.00  0.00    +0.000 C 
ATOM     15  C   UNL     1       7.382   4.829  15.204  0.00  0.00    +0.000 C 
ENDBRANCH  12  13
BRANCH  12  16
ATOM     16  C   UNL     1       6.714   5.760  17.817  0.00  0.00    +0.000 C 
ATOM     17  O   UNL     1       6.282   6.802  17.307  0.00  0.00    +0.000 OA
BRANCH  16  18
ATOM     18  C   UNL     1       7.776   5.763  18.904  0.00  0.00    +0.000 C 
ATOM     19  F   UNL     1       8.675   4.744  18.788  0.00  0.00    +0.000 F 
ATOM     20  F   UNL     1       8.505   6.906  18.919  0.00  0.00    +0.000 F 
ATOM     21  F   UNL     1       7.231   5.633  20.149  0.00  0.00    +0.000 F 
ENDBRANCH  16  18
ENDBRANCH  12  16
ENDBRANCH  10  12
ENDBRANCH   7   8
BRANCH   1  22
ATOM     22  C   UNL     1       1.690   7.466  19.268  0.00  0.00    +0.000 C 
BRANCH  22  24
ATOM     23  C   UNL     1       3.106   7.735  17.133  0.00  0.00    +0.000 C 
ATOM     24  C   UNL     1       1.835   8.161  17.869  0.00  0.00    +0.000 C 
ATOM     25  C   UNL     1       1.729   9.694  17.863  0.00  0.00    +0.000 C 
ENDBRANCH  22  24
BRANCH  22  26
ATOM     26  N   UNL     1       1.918   8.569  20.285  0.00  0.00    +0.000 NA
ATOM     27  H   UNL     1       2.796   8.379  20.785  0.00  0.00    +0.000 HD
BRANCH  26  28
ATOM     28  S   UNL     1       0.693   8.846  21.434  0.00  0.00    +0.000 S 
ATOM     29  O   UNL     1      -0.135   7.655  21.435  0.00  0.00    +0.000 OA
ATOM     30  O   UNL     1       1.417   9.237  22.629  0.00  0.00    +0.000 OA
BRANCH  28  31
ATOM     31  C   UNL     1      -0.292  10.310  20.790  0.00  0.00    +0.000 C 
ATOM     32  F   UNL     1      -1.026   9.978  19.690  0.00  0.00    +0.000 F 
ATOM     33  F   UNL     1      -1.156  10.804  21.718  0.00  0.00    +0.000 F 
ATOM     34  F   UNL     1       0.524  11.337  20.422  0.00  0.00    +0.000 F 
ENDBRANCH  28  31
ENDBRANCH  26  28
ENDBRANCH  22  26
ENDBRANCH   1  22
TORSDOF 10
ENDMDL
