MODEL 1
REMARK VINA RESULT:      -7.5      0.000      0.000
REMARK  Name = 
REMARK  8 active torsions:
REMARK  status: ('A' for Active; 'I' for Inactive)
REMARK    1  A    between atoms: C_1  and  N_2
REMARK    2  A    between atoms: N_2  and  C_3
REMARK    3  A    between atoms: N_2  and  C_4
REMARK    4  A    between atoms: C_7  and  C_8
REMARK    5  A    between atoms: C_11  and  C_12
REMARK    6  A    between atoms: C_12  and  C_13
REMARK    7  A    between atoms: C_12  and  O_14
REMARK    8  A    between atoms: C_12  and  C_15
REMARK                            x       y       z     vdW  Elec       q    Type
REMARK                         _______ _______ _______ _____ _____    ______ ____
ROOT
ATOM      1  C   UNL     1       2.588   6.599  19.375  0.00  0.00    +0.000 A 
ATOM      2  C   UNL     1       1.985   5.494  19.941  0.00  0.00    +0.000 A 
ATOM      3  S   UNL     1       3.022   4.137  19.837  0.00  0.00    +0.000 S 
ATOM      4  C   UNL     1       4.221   5.119  19.070  0.00  0.00    +0.000 A 
ATOM      5  N   UNL     1       3.856   6.373  18.867  0.00  0.00    +0.000 NA
ENDROOT
BRANCH   1   9
ATOM      6  C   UNL     1       0.746  10.495  19.091  0.00  0.00    +0.000 A 
ATOM      7  C   UNL     1       0.759   9.767  20.292  0.00  0.00    +0.000 A 
ATOM      8  C   UNL     1       1.346   8.498  20.394  0.00  0.00    +0.000 A 
ATOM      9  C   UNL     1       1.965   7.913  19.292  0.00  0.00    +0.000 A 
ATOM     10  C   UNL     1       1.998   8.629  18.095  0.00  0.00    +0.000 A 
ATOM     11  C   UNL     1       1.395   9.893  18.001  0.00  0.00    +0.000 A 
BRANCH   6  13
ATOM     12  C   UNL     1       0.936  12.923  18.634  0.00  0.00    +0.000 C 
ATOM     13  N   UNL     1       0.144  11.749  18.993  0.00  0.00    +0.000 N 
ATOM     14  C   UNL     1      -1.150  11.980  19.621  0.00  0.00    +0.000 C 
ENDBRANCH   6  13
ENDBRANCH   1   9
BRANCH   4  15
ATOM     15  C   UNL     1       5.584   4.542  18.686  0.00  0.00    +0.000 C 
ATOM     16  C   UNL     1       6.718   5.298  19.400  0.00  0.00    +0.000 C 
BRANCH  15  17
ATOM     17  C   UNL     1       5.809   4.560  17.174  0.00  0.00    +0.000 A 
ATOM     18  C   UNL     1       7.054   4.947  16.636  0.00  0.00    +0.000 A 
ATOM     19  C   UNL     1       7.275   4.947  15.258  0.00  0.00    +0.000 A 
ATOM     20  C   UNL     1       6.257   4.562  14.389  0.00  0.00    +0.000 A 
ATOM     21  C   UNL     1       5.018   4.179  14.898  0.00  0.00    +0.000 A 
ATOM     22  C   UNL     1       4.796   4.179  16.276  0.00  0.00    +0.000 A 
ENDBRANCH  15  17
BRANCH  15  23
ATOM     23  O   UNL     1       5.650   3.191  19.187  0.00  0.00    +0.000 OA
ATOM     24  H   UNL     1       5.916   3.255  20.121  0.00  0.00    +0.000 HD
ENDBRANCH  15  23
ENDBRANCH   4  15
TORSDOF 5
ENDMDL
MODEL 2
REMARK VINA RESULT:      -7.5      0.289      1.583
REMARK  Name = 
REMARK  8 active torsions:
REMARK  status: ('A' for Active; 'I' for Inactive)
REMARK    1  A    between atoms: C_1  and  N_2
REMARK    2  A    between atoms: N_2  and  C_3
REMARK    3  A    between atoms: N_2  and  C_4
REMARK    4  A    between atoms: C_7  and  C_8
REMARK    5  A    between atoms: C_11  and  C_12
REMARK    6  A    between atoms: C_12  and  C_13
REMARK    7  A    between atoms: C_12  and  O_14
REMARK    8  A    between atoms: C_12  and  C_15
REMARK                            x       y       z     vdW  Elec       q    Type
REMARK                         _______ _______ _______ _____ _____    ______ ____
ROOT
ATOM      1  C   UNL     1       2.600   6.619  19.310  0.00  0.00    +0.000 A 
ATOM      2  C   UNL     1       1.996   5.531  19.908  0.00  0.00    +0.000 A 
ATOM      3  S   UNL     1       3.030   4.171  19.840  0.00  0.00    +0.000 S 
ATOM      4  C   UNL     1       4.230   5.129  19.045  0.00  0.00    +0.000 A 
ATOM      5  N   UNL     1       3.867   6.377  18.807  0.00  0.00    +0.000 NA
ENDROOT
BRANCH   1   9
ATOM      6  C   UNL     1       0.754  10.512  19.000  0.00  0.00    +0.000 A 
ATOM      7  C   UNL     1       1.338   9.878  17.891  0.00  0.00    +0.000 A 
ATOM      8  C   UNL     1       1.948   8.620  17.982  0.00  0.00    +0.000 A 
ATOM      9  C   UNL     1       1.979   7.931  19.193  0.00  0.00    +0.000 A 
ATOM     10  C   UNL     1       1.374   8.522  20.303  0.00  0.00    +0.000 A 
ATOM     11  C   UNL     1       0.778   9.788  20.204  0.00  0.00    +0.000 A 
BRANCH   6  13
ATOM     12  C   UNL     1      -1.167  11.925  18.327  0.00  0.00    +0.000 C 
ATOM     13  N   UNL     1       0.165  11.772  18.907  0.00  0.00    +0.000 N 
ATOM     14  C   UNL     1       0.996  12.966  19.001  0.00  0.00    +0.000 C 
ENDBRANCH   6  13
ENDBRANCH   1   9
BRANCH   4  15
ATOM     15  C   UNL     1       5.591   4.540  18.675  0.00  0.00    +0.000 C 
ATOM     16  C   UNL     1       6.727   5.305  19.377  0.00  0.00    +0.000 C 
BRANCH  15  17
ATOM     17  C   UNL     1       5.820   4.527  17.163  0.00  0.00    +0.000 A 
ATOM     18  C   UNL     1       4.785   4.149  16.283  0.00  0.00    +0.000 A 
ATOM     19  C   UNL     1       4.979   4.153  14.900  0.00  0.00    +0.000 A 
ATOM     20  C   UNL     1       6.209   4.531  14.370  0.00  0.00    +0.000 A 
ATOM     21  C   UNL     1       7.246   4.905  15.222  0.00  0.00    +0.000 A 
ATOM     22  C   UNL     1       7.054   4.902  16.604  0.00  0.00    +0.000 A 
ENDBRANCH  15  17
BRANCH  15  23
ATOM     23  O   UNL     1       5.651   3.199  19.203  0.00  0.00    +0.000 OA
ATOM     24  H   UNL     1       5.284   2.615  18.518  0.00  0.00    +0.000 HD
ENDBRANCH  15  23
ENDBRANCH   4  15
TORSDOF 5
ENDMDL
MODEL 3
REMARK VINA RESULT:      -7.5      0.446      1.179
REMARK  Name = 
REMARK  8 active torsions:
REMARK  status: ('A' for Active; 'I' for Inactive)
REMARK    1  A    between atoms: C_1  and  N_2
REMARK    2  A    between atoms: N_2  and  C_3
REMARK    3  A    between atoms: N_2  and  C_4
REMARK    4  A    between atoms: C_7  and  C_8
REMARK    5  A    between atoms: C_11  and  C_12
REMARK    6  A    between atoms: C_12  and  C_13
REMARK    7  A    between atoms: C_12  and  O_14
REMARK    8  A    between atoms: C_12  and  C_15
REMARK                            x       y       z     vdW  Elec       q    Type
REMARK                         _______ _______ _______ _____ _____    ______ ____
ROOT
ATOM      1  C   UNL     1       2.573   6.552  19.347  0.00  0.00    +0.000 A 
ATOM      2  C   UNL     1       1.935   5.406  19.779  0.00  0.00    +0.000 A 
ATOM      3  S   UNL     1       2.969   4.055  19.607  0.00  0.00    +0.000 S 
ATOM      4  C   UNL     1       4.212   5.090  18.996  0.00  0.00    +0.000 A 
ATOM      5  N   UNL     1       3.865   6.360  18.888  0.00  0.00    +0.000 NA
ENDROOT
BRANCH   1   9
ATOM      6  C   UNL     1       0.756  10.470  19.398  0.00  0.00    +0.000 A 
ATOM      7  C   UNL     1       1.320   9.930  18.231  0.00  0.00    +0.000 A 
ATOM      8  C   UNL     1       1.920   8.664  18.204  0.00  0.00    +0.000 A 
ATOM      9  C   UNL     1       1.961   7.874  19.351  0.00  0.00    +0.000 A 
ATOM     10  C   UNL     1       1.377   8.371  20.517  0.00  0.00    +0.000 A 
ATOM     11  C   UNL     1       0.791   9.646  20.535  0.00  0.00    +0.000 A 
BRANCH   6  13
ATOM     12  C   UNL     1      -0.814  12.118  18.418  0.00  0.00    +0.000 C 
ATOM     13  N   UNL     1       0.177  11.738  19.422  0.00  0.00    +0.000 N 
ATOM     14  C   UNL     1       0.822  12.813  20.167  0.00  0.00    +0.000 C 
ENDBRANCH   6  13
ENDBRANCH   1   9
BRANCH   4  15
ATOM     15  C   UNL     1       5.590   4.537  18.632  0.00  0.00    +0.000 C 
ATOM     16  C   UNL     1       6.700   5.314  19.361  0.00  0.00    +0.000 C 
BRANCH  15  17
ATOM     17  C   UNL     1       5.837   4.554  17.124  0.00  0.00    +0.000 A 
ATOM     18  C   UNL     1       7.091   4.938  16.605  0.00  0.00    +0.000 A 
ATOM     19  C   UNL     1       7.331   4.938  15.230  0.00  0.00    +0.000 A 
ATOM     20  C   UNL     1       6.324   4.557  14.346  0.00  0.00    +0.000 A 
ATOM     21  C   UNL     1       5.078   4.177  14.837  0.00  0.00    +0.000 A 
ATOM     22  C   UNL     1       4.836   4.177  16.212  0.00  0.00    +0.000 A 
ENDBRANCH  15  17
BRANCH  15  23
ATOM     23  O   UNL     1       5.674   3.188  19.139  0.00  0.00    +0.000 OA
ATOM     24  H   UNL     1       6.453   2.783  18.721  0.00  0.00    +0.000 HD
ENDBRANCH  15  23
ENDBRANCH   4  15
TORSDOF 5
ENDMDL
MODEL 4
REMARK VINA RESULT:      -7.5      0.521      1.132
REMARK  Name = 
REMARK  8 active torsions:
REMARK  status: ('A' for Active; 'I' for Inactive)
REMARK    1  A    between atoms: C_1  and  N_2
REMARK    2  A    between atoms: N_2  and  C_3
REMARK    3  A    between atoms: N_2  and  C_4
REMARK    4  A    between atoms: C_7  and  C_8
REMARK    5  A    between atoms: C_11  and  C_12
REMARK    6  A    between atoms: C_12  and  C_13
REMARK    7  A    between atoms: C_12  and  O_14
REMARK    8  A    between atoms: C_12  and  C_15
REMARK                            x       y       z     vdW  Elec       q    Type
REMARK                         _______ _______ _______ _____ _____    ______ ____
ROOT
ATOM      1  C   UNL     1       2.561   6.530  19.418  0.00  0.00    +0.000 A 
ATOM      2  C   UNL     1       1.921   5.383  19.845  0.00  0.00    +0.000 A 
ATOM      3  S   UNL     1       2.952   4.030  19.665  0.00  0.00    +0.000 S 
ATOM      4  C   UNL     1       4.196   5.065  19.057  0.00  0.00    +0.000 A 
ATOM      5  N   UNL     1       3.852   6.337  18.956  0.00  0.00    +0.000 NA
ENDROOT
BRANCH   1   9
ATOM      6  C   UNL     1       0.762  10.457  19.414  0.00  0.00    +0.000 A 
ATOM      7  C   UNL     1       0.811   9.665  20.573  0.00  0.00    +0.000 A 
ATOM      8  C   UNL     1       1.384   8.386  20.584  0.00  0.00    +0.000 A 
ATOM      9  C   UNL     1       1.953   7.853  19.430  0.00  0.00    +0.000 A 
ATOM     10  C   UNL     1       1.950   8.632  18.272  0.00  0.00    +0.000 A 
ATOM     11  C   UNL     1       1.361   9.906  18.269  0.00  0.00    +0.000 A 
BRANCH   6  13
ATOM     12  C   UNL     1       0.316  12.610  20.555  0.00  0.00    +0.000 C 
ATOM     13  N   UNL     1       0.174  11.720  19.405  0.00  0.00    +0.000 N 
ATOM     14  C   UNL     1      -0.897  12.012  18.461  0.00  0.00    +0.000 C 
ENDBRANCH   6  13
ENDBRANCH   1   9
BRANCH   4  15
ATOM     15  C   UNL     1       5.573   4.511  18.689  0.00  0.00    +0.000 C 
ATOM     16  C   UNL     1       6.686   5.289  19.412  0.00  0.00    +0.000 C 
BRANCH  15  17
ATOM     17  C   UNL     1       5.813   4.526  17.179  0.00  0.00    +0.000 A 
ATOM     18  C   UNL     1       4.771   4.214  16.282  0.00  0.00    +0.000 A 
ATOM     19  C   UNL     1       4.977   4.244  14.902  0.00  0.00    +0.000 A 
ATOM     20  C   UNL     1       6.226   4.585  14.390  0.00  0.00    +0.000 A 
ATOM     21  C   UNL     1       7.270   4.894  15.258  0.00  0.00    +0.000 A 
ATOM     22  C   UNL     1       7.067   4.864  16.639  0.00  0.00    +0.000 A 
ENDBRANCH  15  17
BRANCH  15  23
ATOM     23  O   UNL     1       5.658   3.163  19.197  0.00  0.00    +0.000 OA
ATOM     24  H   UNL     1       5.749   3.237  20.163  0.00  0.00    +0.000 HD
ENDBRANCH  15  23
ENDBRANCH   4  15
TORSDOF 5
ENDMDL
MODEL 5
REMARK VINA RESULT:      -7.4      1.256      1.719
REMARK  Name = 
REMARK  8 active torsions:
REMARK  status: ('A' for Active; 'I' for Inactive)
REMARK    1  A    between atoms: C_1  and  N_2
REMARK    2  A    between atoms: N_2  and  C_3
REMARK    3  A    between atoms: N_2  and  C_4
REMARK    4  A    between atoms: C_7  and  C_8
REMARK    5  A    between atoms: C_11  and  C_12
REMARK    6  A    between atoms: C_12  and  C_13
REMARK    7  A    between atoms: C_12  and  O_14
REMARK    8  A    between atoms: C_12  and  C_15
REMARK                            x       y       z     vdW  Elec       q    Type
REMARK                         _______ _______ _______ _____ _____    ______ ____
ROOT
ATOM      1  C   UNL     1       3.322   6.410  18.765  0.00  0.00    +0.000 A 
ATOM      2  C   UNL     1       3.084   5.155  19.289  0.00  0.00    +0.000 A 
ATOM      3  S   UNL     1       4.364   4.095  18.886  0.00  0.00    +0.000 S 
ATOM      4  C   UNL     1       5.168   5.385  18.065  0.00  0.00    +0.000 A 
ATOM      5  N   UNL     1       4.505   6.529  18.055  0.00  0.00    +0.000 NA
ENDROOT
BRANCH   1   9
ATOM      6  C   UNL     1       0.641   9.760  19.260  0.00  0.00    +0.000 A 
ATOM      7  C   UNL     1       1.196   9.433  18.012  0.00  0.00    +0.000 A 
ATOM      8  C   UNL     1       2.074   8.354  17.841  0.00  0.00    +0.000 A 
ATOM      9  C   UNL     1       2.418   7.541  18.919  0.00  0.00    +0.000 A 
ATOM     10  C   UNL     1       1.853   7.821  20.164  0.00  0.00    +0.000 A 
ATOM     11  C   UNL     1       0.986   8.912  20.327  0.00  0.00    +0.000 A 
BRANCH   6  13
ATOM     12  C   UNL     1      -0.332  11.505  20.726  0.00  0.00    +0.000 C 
ATOM     13  N   UNL     1      -0.218  10.845  19.428  0.00  0.00    +0.000 N 
ATOM     14  C   UNL     1      -1.284  11.078  18.461  0.00  0.00    +0.000 C 
ENDBRANCH   6  13
ENDBRANCH   1   9
BRANCH   4  15
ATOM     15  C   UNL     1       6.541   5.178  17.424  0.00  0.00    +0.000 C 
ATOM     16  C   UNL     1       7.418   6.431  17.592  0.00  0.00    +0.000 C 
BRANCH  15  17
ATOM     17  C   UNL     1       6.434   4.803  15.945  0.00  0.00    +0.000 A 
ATOM     18  C   UNL     1       7.447   5.170  15.036  0.00  0.00    +0.000 A 
ATOM     19  C   UNL     1       7.368   4.815  13.688  0.00  0.00    +0.000 A 
ATOM     20  C   UNL     1       6.275   4.090  13.222  0.00  0.00    +0.000 A 
ATOM     21  C   UNL     1       5.261   3.720  14.102  0.00  0.00    +0.000 A 
ATOM     22  C   UNL     1       5.339   4.074  15.450  0.00  0.00    +0.000 A 
ENDBRANCH  15  17
BRANCH  15  23
ATOM     23  O   UNL     1       7.219   4.137  18.157  0.00  0.00    +0.000 OA
ATOM     24  H   UNL     1       6.662   3.342  18.088  0.00  0.00    +0.000 HD
ENDBRANCH  15  23
ENDBRANCH   4  15
TORSDOF 5
ENDMDL
MODEL 6
REMARK VINA RESULT:      -7.4      1.257      1.978
REMARK  Name = 
REMARK  8 active torsions:
REMARK  status: ('A' for Active; 'I' for Inactive)
REMARK    1  A    between atoms: C_1  and  N_2
REMARK    2  A    between atoms: N_2  and  C_3
REMARK    3  A    between atoms: N_2  and  C_4
REMARK    4  A    between atoms: C_7  and  C_8
REMARK    5  A    between atoms: C_11  and  C_12
REMARK    6  A    between atoms: C_12  and  C_13
REMARK    7  A    between atoms: C_12  and  O_14
REMARK    8  A    between atoms: C_12  and  C_15
REMARK                            x       y       z     vdW  Elec       q    Type
REMARK                         _______ _______ _______ _____ _____    ______ ____
ROOT
ATOM      1  C   UNL     1       3.367   6.386  18.821  0.00  0.00    +0.000 A 
ATOM      2  C   UNL     1       3.147   5.137  19.367  0.00  0.00    +0.000 A 
ATOM      3  S   UNL     1       4.442   4.088  18.981  0.00  0.00    +0.000 S 
ATOM      4  C   UNL     1       5.227   5.376  18.137  0.00  0.00    +0.000 A 
ATOM      5  N   UNL     1       4.548   6.509  18.108  0.00  0.00    +0.000 NA
ENDROOT
BRANCH   1   9
ATOM      6  C   UNL     1       0.639   9.705  19.262  0.00  0.00    +0.000 A 
ATOM      7  C   UNL     1       1.197   9.364  18.019  0.00  0.00    +0.000 A 
ATOM      8  C   UNL     1       2.090   8.295  17.865  0.00  0.00    +0.000 A 
ATOM      9  C   UNL     1       2.447   7.506  18.957  0.00  0.00    +0.000 A 
ATOM     10  C   UNL     1       1.881   7.801  20.198  0.00  0.00    +0.000 A 
ATOM     11  C   UNL     1       0.998   8.882  20.343  0.00  0.00    +0.000 A 
BRANCH   6  13
ATOM     12  C   UNL     1      -0.440  11.390  20.723  0.00  0.00    +0.000 C 
ATOM     13  N   UNL     1      -0.234  10.781  19.411  0.00  0.00    +0.000 N 
ATOM     14  C   UNL     1      -1.234  11.048  18.384  0.00  0.00    +0.000 C 
ENDBRANCH   6  13
ENDBRANCH   1   9
BRANCH   4  15
ATOM     15  C   UNL     1       6.602   5.177  17.498  0.00  0.00    +0.000 C 
ATOM     16  C   UNL     1       7.470   6.436  17.666  0.00  0.00    +0.000 C 
BRANCH  15  17
ATOM     17  C   UNL     1       6.501   4.798  16.021  0.00  0.00    +0.000 A 
ATOM     18  C   UNL     1       5.400   4.058  15.542  0.00  0.00    +0.000 A 
ATOM     19  C   UNL     1       5.289   3.725  14.191  0.00  0.00    +0.000 A 
ATOM     20  C   UNL     1       6.275   4.123  13.292  0.00  0.00    +0.000 A 
ATOM     21  C   UNL     1       7.372   4.852  13.744  0.00  0.00    +0.000 A 
ATOM     22  C   UNL     1       7.484   5.185  15.094  0.00  0.00    +0.000 A 
ENDBRANCH  15  17
BRANCH  15  23
ATOM     23  O   UNL     1       7.287   4.142  18.235  0.00  0.00    +0.000 OA
ATOM     24  H   UNL     1       8.115   4.535  18.560  0.00  0.00    +0.000 HD
ENDBRANCH  15  23
ENDBRANCH   4  15
TORSDOF 5
ENDMDL
MODEL 7
REMARK VINA RESULT:      -7.4      1.214      1.716
REMARK  Name = 
REMARK  8 active torsions:
REMARK  status: ('A' for Active; 'I' for Inactive)
REMARK    1  A    between atoms: C_1  and  N_2
REMARK    2  A    between atoms: N_2  and  C_3
REMARK    3  A    between atoms: N_2  and  C_4
REMARK    4  A    between atoms: C_7  and  C_8
REMARK    5  A    between atoms: C_11  and  C_12
REMARK    6  A    between atoms: C_12  and  C_13
REMARK    7  A    between atoms: C_12  and  O_14
REMARK    8  A    between atoms: C_12  and  C_15
REMARK                            x       y       z     vdW  Elec       q    Type
REMARK                         _______ _______ _______ _____ _____    ______ ____
ROOT
ATOM      1  C   UNL     1       3.393   6.347  18.862  0.00  0.00    +0.000 A 
ATOM      2  C   UNL     1       3.196   5.098  19.416  0.00  0.00    +0.000 A 
ATOM      3  S   UNL     1       4.496   4.062  19.013  0.00  0.00    +0.000 S 
ATOM      4  C   UNL     1       5.253   5.356  18.152  0.00  0.00    +0.000 A 
ATOM      5  N   UNL     1       4.561   6.481  18.130  0.00  0.00    +0.000 NA
ENDROOT
BRANCH   1   9
ATOM      6  C   UNL     1       0.633   9.647  19.257  0.00  0.00    +0.000 A 
ATOM      7  C   UNL     1       0.989   8.843  20.353  0.00  0.00    +0.000 A 
ATOM      8  C   UNL     1       1.877   7.765  20.235  0.00  0.00    +0.000 A 
ATOM      9  C   UNL     1       2.463   7.458  19.008  0.00  0.00    +0.000 A 
ATOM     10  C   UNL     1       2.154   8.262  17.910  0.00  0.00    +0.000 A 
ATOM     11  C   UNL     1       1.254   9.331  18.037  0.00  0.00    +0.000 A 
BRANCH   6  13
ATOM     12  C   UNL     1      -1.163  11.043  18.276  0.00  0.00    +0.000 C 
ATOM     13  N   UNL     1      -0.264  10.706  19.377  0.00  0.00    +0.000 N 
ATOM     14  C   UNL     1      -0.050  11.721  20.402  0.00  0.00    +0.000 C 
ENDBRANCH   6  13
ENDBRANCH   1   9
BRANCH   4  15
ATOM     15  C   UNL     1       6.620   5.170  17.492  0.00  0.00    +0.000 C 
ATOM     16  C   UNL     1       7.474   6.441  17.637  0.00  0.00    +0.000 C 
BRANCH  15  17
ATOM     17  C   UNL     1       6.499   4.781  16.019  0.00  0.00    +0.000 A 
ATOM     18  C   UNL     1       5.387   4.045  15.558  0.00  0.00    +0.000 A 
ATOM     19  C   UNL     1       5.259   3.703  14.211  0.00  0.00    +0.000 A 
ATOM     20  C   UNL     1       6.238   4.085  13.298  0.00  0.00    +0.000 A 
ATOM     21  C   UNL     1       7.346   4.809  13.732  0.00  0.00    +0.000 A 
ATOM     22  C   UNL     1       7.476   5.152  15.078  0.00  0.00    +0.000 A 
ENDBRANCH  15  17
BRANCH  15  23
ATOM     23  O   UNL     1       7.329   4.149  18.224  0.00  0.00    +0.000 OA
ATOM     24  H   UNL     1       7.661   3.515  17.565  0.00  0.00    +0.000 HD
ENDBRANCH  15  23
ENDBRANCH   4  15
TORSDOF 5
ENDMDL
MODEL 8
REMARK VINA RESULT:      -7.3      1.375      1.867
REMARK  Name = 
REMARK  8 active torsions:
REMARK  status: ('A' for Active; 'I' for Inactive)
REMARK    1  A    between atoms: C_1  and  N_2
REMARK    2  A    between atoms: N_2  and  C_3
REMARK    3  A    between atoms: N_2  and  C_4
REMARK    4  A    between atoms: C_7  and  C_8
REMARK    5  A    between atoms: C_11  and  C_12
REMARK    6  A    between atoms: C_12  and  C_13
REMARK    7  A    between atoms: C_12  and  O_14
REMARK    8  A    between atoms: C_12  and  C_15
REMARK                            x       y       z     vdW  Elec       q    Type
REMARK                         _______ _______ _______ _____ _____    ______ ____
ROOT
ATOM      1  C   UNL     1       2.121   6.655  19.454  0.00  0.00    +0.000 A 
ATOM      2  C   UNL     1       1.952   5.966  20.639  0.00  0.00    +0.000 A 
ATOM      3  S   UNL     1       2.413   4.331  20.442  0.00  0.00    +0.000 S 
ATOM      4  C   UNL     1       2.837   4.653  18.798  0.00  0.00    +0.000 A 
ATOM      5  N   UNL     1       2.611   5.895  18.405  0.00  0.00    +0.000 NA
ENDROOT
BRANCH   1   9
ATOM      6  C   UNL     1       1.210  10.841  18.908  0.00  0.00    +0.000 A 
ATOM      7  C   UNL     1       0.887  10.161  20.093  0.00  0.00    +0.000 A 
ATOM      8  C   UNL     1       1.169   8.801  20.278  0.00  0.00    +0.000 A 
ATOM      9  C   UNL     1       1.810   8.067  19.283  0.00  0.00    +0.000 A 
ATOM     10  C   UNL     1       2.175   8.726  18.108  0.00  0.00    +0.000 A 
ATOM     11  C   UNL     1       1.875  10.085  17.928  0.00  0.00    +0.000 A 
BRANCH   6  13
ATOM     12  C   UNL     1      -0.473  12.620  18.531  0.00  0.00    +0.000 C 
ATOM     13  N   UNL     1       0.910  12.190  18.723  0.00  0.00    +0.000 N 
ATOM     14  C   UNL     1       1.962  13.115  18.320  0.00  0.00    +0.000 C 
ENDBRANCH   6  13
ENDBRANCH   1   9
BRANCH   4  15
ATOM     15  C   UNL     1       3.431   3.561  17.908  0.00  0.00    +0.000 C 
ATOM     16  C   UNL     1       3.611   2.252  18.697  0.00  0.00    +0.000 C 
BRANCH  15  17
ATOM     17  C   UNL     1       4.760   3.988  17.284  0.00  0.00    +0.000 A 
ATOM     18  C   UNL     1       5.856   4.341  18.098  0.00  0.00    +0.000 A 
ATOM     19  C   UNL     1       7.079   4.713  17.537  0.00  0.00    +0.000 A 
ATOM     20  C   UNL     1       7.231   4.742  16.153  0.00  0.00    +0.000 A 
ATOM     21  C   UNL     1       6.161   4.401  15.331  0.00  0.00    +0.000 A 
ATOM     22  C   UNL     1       4.937   4.028  15.890  0.00  0.00    +0.000 A 
ENDBRANCH  15  17
BRANCH  15  23
ATOM     23  O   UNL     1       2.468   3.256  16.878  0.00  0.00    +0.000 OA
ATOM     24  H   UNL     1       1.618   3.114  17.328  0.00  0.00    +0.000 HD
ENDBRANCH  15  23
ENDBRANCH   4  15
TORSDOF 5
ENDMDL
MODEL 9
REMARK VINA RESULT:      -7.3      1.270      1.566
REMARK  Name = 
REMARK  8 active torsions:
REMARK  status: ('A' for Active; 'I' for Inactive)
REMARK    1  A    between atoms: C_1  and  N_2
REMARK    2  A    between atoms: N_2  and  C_3
REMARK    3  A    between atoms: N_2  and  C_4
REMARK    4  A    between atoms: C_7  and  C_8
REMARK    5  A    between atoms: C_11  and  C_12
REMARK    6  A    between atoms: C_12  and  C_13
REMARK    7  A    between atoms: C_12  and  O_14
REMARK    8  A    between atoms: C_12  and  C_15
REMARK                            x       y       z     vdW  Elec       q    Type
REMARK                         _______ _______ _______ _____ _____    ______ ____
ROOT
ATOM      1  C   UNL     1       3.246   6.384  18.500  0.00  0.00    +0.000 A 
ATOM      2  C   UNL     1       2.899   5.079  18.788  0.00  0.00    +0.000 A 
ATOM      3  S   UNL     1       4.144   4.015  18.295  0.00  0.00    +0.000 S 
ATOM      4  C   UNL     1       5.079   5.366  17.758  0.00  0.00    +0.000 A 
ATOM      5  N   UNL     1       4.484   6.537  17.899  0.00  0.00    +0.000 NA
ENDROOT
BRANCH   1   9
ATOM      6  C   UNL     1       0.728   9.800  19.304  0.00  0.00    +0.000 A 
ATOM      7  C   UNL     1       1.068   8.878  20.307  0.00  0.00    +0.000 A 
ATOM      8  C   UNL     1       1.877   7.761  20.056  0.00  0.00    +0.000 A 
ATOM      9  C   UNL     1       2.398   7.533  18.784  0.00  0.00    +0.000 A 
ATOM     10  C   UNL     1       2.105   8.453  17.776  0.00  0.00    +0.000 A 
ATOM     11  C   UNL     1       1.283   9.561  18.036  0.00  0.00    +0.000 A 
BRANCH   6  13
ATOM     12  C   UNL     1      -0.611  11.141  20.900  0.00  0.00    +0.000 C 
ATOM     13  N   UNL     1      -0.091  10.899  19.556  0.00  0.00    +0.000 N 
ATOM     14  C   UNL     1      -0.758  11.572  18.448  0.00  0.00    +0.000 C 
ENDBRANCH   6  13
ENDBRANCH   1   9
BRANCH   4  15
ATOM     15  C   UNL     1       6.483   5.174  17.182  0.00  0.00    +0.000 C 
ATOM     16  C   UNL     1       7.347   6.425  17.420  0.00  0.00    +0.000 C 
BRANCH  15  17
ATOM     17  C   UNL     1       6.451   4.829  15.693  0.00  0.00    +0.000 A 
ATOM     18  C   UNL     1       7.492   5.242  14.837  0.00  0.00    +0.000 A 
ATOM     19  C   UNL     1       7.481   4.916  13.480  0.00  0.00    +0.000 A 
ATOM     20  C   UNL     1       6.429   4.172  12.951  0.00  0.00    +0.000 A 
ATOM     21  C   UNL     1       5.389   3.756  13.778  0.00  0.00    +0.000 A 
ATOM     22  C   UNL     1       5.399   4.082  15.135  0.00  0.00    +0.000 A 
ENDBRANCH  15  17
BRANCH  15  23
ATOM     23  O   UNL     1       7.126   4.119  17.927  0.00  0.00    +0.000 OA
ATOM     24  H   UNL     1       7.149   3.342  17.344  0.00  0.00    +0.000 HD
ENDBRANCH  15  23
ENDBRANCH   4  15
TORSDOF 5
ENDMDL
