MODEL 1
REMARK VINA RESULT:      -7.5      0.000      0.000
REMARK  Name = 
REMARK  7 active torsions:
REMARK  status: ('A' for Active; 'I' for Inactive)
REMARK    1  A    between atoms: C_1  and  O_2
REMARK    2  A    between atoms: O_2  and  C_3
REMARK    3  A    between atoms: C_7  and  C_8
REMARK    4  A    between atoms: C_14  and  O_15
REMARK    5  A    between atoms: O_15  and  C_16
REMARK    6  A    between atoms: C_17  and  O_18
REMARK    7  A    between atoms: O_18  and  C_19
REMARK                            x       y       z     vdW  Elec       q    Type
REMARK                         _______ _______ _______ _____ _____    ______ ____
ROOT
ATOM      1  C   UNL     1       5.217   4.934  15.806  0.00  0.00    +0.000 C 
ATOM      2  N   UNL     1       5.395   6.146  16.257  0.00  0.00    +0.000 NA
ATOM      3  C   UNL     1       6.570   6.098  17.165  0.00  0.00    +0.000 C 
ATOM      4  C   UNL     1       6.380   5.117  18.318  0.00  0.00    +0.000 C 
ATOM      5  C   UNL     1       5.270   4.105  18.117  0.00  0.00    +0.000 A 
ATOM      6  C   UNL     1       4.757   3.591  19.328  0.00  0.00    +0.000 A 
ATOM      7  C   UNL     1       3.430   3.247  19.458  0.00  0.00    +0.000 A 
ATOM      8  C   UNL     1       2.594   3.343  18.333  0.00  0.00    +0.000 A 
ATOM      9  C   UNL     1       3.179   3.680  17.038  0.00  0.00    +0.000 A 
ATOM     10  C   UNL     1       4.577   4.018  16.894  0.00  0.00    +0.000 A 
ENDROOT
BRANCH   1  15
ATOM     11  C   UNL     1       6.057   3.314  12.355  0.00  0.00    +0.000 A 
ATOM     12  C   UNL     1       7.193   4.011  11.934  0.00  0.00    +0.000 A 
ATOM     13  C   UNL     1       7.754   4.985  12.757  0.00  0.00    +0.000 A 
ATOM     14  C   UNL     1       7.198   5.297  14.030  0.00  0.00    +0.000 A 
ATOM     15  C   UNL     1       6.070   4.626  14.508  0.00  0.00    +0.000 A 
ATOM     16  C   UNL     1       5.513   3.629  13.611  0.00  0.00    +0.000 A 
BRANCH  11  18
ATOM     17  C   UNL     1       6.365   1.239  11.171  0.00  0.00    +0.000 C 
ATOM     18  O   UNL     1       5.595   2.400  11.439  0.00  0.00    +0.000 OA
ENDBRANCH  11  18
ENDBRANCH   1  15
BRANCH   7  19
ATOM     19  O   UNL     1       3.090   3.090  20.783  0.00  0.00    +0.000 OA
ATOM     20  C   UNL     1       2.391   4.091  21.506  0.00  0.00    +0.000 C 
ENDBRANCH   7  19
BRANCH   8  21
ATOM     21  O   UNL     1       1.284   3.362  18.682  0.00  0.00    +0.000 OA
ATOM     22  C   UNL     1       0.448   2.236  18.862  0.00  0.00    +0.000 C 
ENDBRANCH   8  21
TORSDOF 4
ENDMDL
MODEL 2
REMARK VINA RESULT:      -7.5      2.253      2.568
REMARK  Name = 
REMARK  7 active torsions:
REMARK  status: ('A' for Active; 'I' for Inactive)
REMARK    1  A    between atoms: C_1  and  O_2
REMARK    2  A    between atoms: O_2  and  C_3
REMARK    3  A    between atoms: C_7  and  C_8
REMARK    4  A    between atoms: C_14  and  O_15
REMARK    5  A    between atoms: O_15  and  C_16
REMARK    6  A    between atoms: C_17  and  O_18
REMARK    7  A    between atoms: O_18  and  C_19
REMARK                            x       y       z     vdW  Elec       q    Type
REMARK                         _______ _______ _______ _____ _____    ______ ____
ROOT
ATOM      1  C   UNL     1       6.266   5.693  15.998  0.00  0.00    +0.000 C 
ATOM      2  N   UNL     1       7.262   5.807  16.834  0.00  0.00    +0.000 NA
ATOM      3  C   UNL     1       7.394   4.499  17.525  0.00  0.00    +0.000 C 
ATOM      4  C   UNL     1       6.120   4.092  18.259  0.00  0.00    +0.000 C 
ATOM      5  C   UNL     1       4.872   4.837  17.832  0.00  0.00    +0.000 A 
ATOM      6  C   UNL     1       3.868   4.861  18.823  0.00  0.00    +0.000 A 
ATOM      7  C   UNL     1       3.026   5.941  18.969  0.00  0.00    +0.000 A 
ATOM      8  C   UNL     1       3.128   7.004  18.056  0.00  0.00    +0.000 A 
ATOM      9  C   UNL     1       4.029   6.878  16.914  0.00  0.00    +0.000 A 
ATOM     10  C   UNL     1       4.897   5.735  16.746  0.00  0.00    +0.000 A 
ENDROOT
BRANCH   1  15
ATOM     11  C   UNL     1       5.969   3.588  12.724  0.00  0.00    +0.000 A 
ATOM     12  C   UNL     1       7.026   4.057  11.937  0.00  0.00    +0.000 A 
ATOM     13  C   UNL     1       7.893   5.022  12.444  0.00  0.00    +0.000 A 
ATOM     14  C   UNL     1       7.734   5.554  13.754  0.00  0.00    +0.000 A 
ATOM     15  C   UNL     1       6.703   5.117  14.590  0.00  0.00    +0.000 A 
ATOM     16  C   UNL     1       5.818   4.120  14.015  0.00  0.00    +0.000 A 
BRANCH  11  18
ATOM     17  C   UNL     1       4.152   3.098  11.222  0.00  0.00    +0.000 C 
ATOM     18  O   UNL     1       5.179   2.657  12.096  0.00  0.00    +0.000 OA
ENDBRANCH  11  18
ENDBRANCH   1  15
BRANCH   7  19
ATOM     19  O   UNL     1       2.366   5.892  20.177  0.00  0.00    +0.000 OA
ATOM     20  C   UNL     1       2.301   4.706  20.952  0.00  0.00    +0.000 C 
ENDBRANCH   7  19
BRANCH   8  21
ATOM     21  O   UNL     1       2.545   8.132  18.533  0.00  0.00    +0.000 OA
ATOM     22  C   UNL     1       1.946   9.156  17.765  0.00  0.00    +0.000 C 
ENDBRANCH   8  21
TORSDOF 4
ENDMDL
MODEL 3
REMARK VINA RESULT:      -7.3      2.595      7.125
REMARK  Name = 
REMARK  7 active torsions:
REMARK  status: ('A' for Active; 'I' for Inactive)
REMARK    1  A    between atoms: C_1  and  O_2
REMARK    2  A    between atoms: O_2  and  C_3
REMARK    3  A    between atoms: C_7  and  C_8
REMARK    4  A    between atoms: C_14  and  O_15
REMARK    5  A    between atoms: O_15  and  C_16
REMARK    6  A    between atoms: C_17  and  O_18
REMARK    7  A    between atoms: O_18  and  C_19
REMARK                            x       y       z     vdW  Elec       q    Type
REMARK                         _______ _______ _______ _____ _____    ______ ____
ROOT
ATOM      1  C   UNL     1       4.914   4.716  18.368  0.00  0.00    +0.000 C 
ATOM      2  N   UNL     1       5.887   4.201  19.070  0.00  0.00    +0.000 NA
ATOM      3  C   UNL     1       6.808   5.316  19.408  0.00  0.00    +0.000 C 
ATOM      4  C   UNL     1       7.353   6.023  18.171  0.00  0.00    +0.000 C 
ATOM      5  C   UNL     1       6.578   5.762  16.895  0.00  0.00    +0.000 A 
ATOM      6  C   UNL     1       7.347   5.949  15.726  0.00  0.00    +0.000 A 
ATOM      7  C   UNL     1       7.143   5.182  14.601  0.00  0.00    +0.000 A 
ATOM      8  C   UNL     1       6.093   4.249  14.602  0.00  0.00    +0.000 A 
ATOM      9  C   UNL     1       5.178   4.207  15.738  0.00  0.00    +0.000 A 
ATOM     10  C   UNL     1       5.377   5.028  16.911  0.00  0.00    +0.000 A 
ENDROOT
BRANCH   1  15
ATOM     11  C   UNL     1       2.192   7.248  19.561  0.00  0.00    +0.000 A 
ATOM     12  C   UNL     1       1.447   6.514  20.489  0.00  0.00    +0.000 A 
ATOM     13  C   UNL     1       1.818   5.208  20.799  0.00  0.00    +0.000 A 
ATOM     14  C   UNL     1       2.946   4.588  20.191  0.00  0.00    +0.000 A 
ATOM     15  C   UNL     1       3.734   5.275  19.264  0.00  0.00    +0.000 A 
ATOM     16  C   UNL     1       3.302   6.628  18.964  0.00  0.00    +0.000 A 
BRANCH  11  18
ATOM     17  C   UNL     1       1.817   9.070  18.031  0.00  0.00    +0.000 C 
ATOM     18  O   UNL     1       1.705   8.511  19.331  0.00  0.00    +0.000 OA
ENDBRANCH  11  18
ENDBRANCH   1  15
BRANCH   7  19
ATOM     19  O   UNL     1       8.197   5.305  13.723  0.00  0.00    +0.000 OA
ATOM     20  C   UNL     1       8.035   5.844  12.421  0.00  0.00    +0.000 C 
ENDBRANCH   7  19
BRANCH   8  21
ATOM     21  O   UNL     1       6.249   3.319  13.627  0.00  0.00    +0.000 OA
ATOM     22  C   UNL     1       5.558   3.271  12.395  0.00  0.00    +0.000 C 
ENDBRANCH   8  21
TORSDOF 4
ENDMDL
MODEL 4
REMARK VINA RESULT:      -7.2      1.945      7.153
REMARK  Name = 
REMARK  7 active torsions:
REMARK  status: ('A' for Active; 'I' for Inactive)
REMARK    1  A    between atoms: C_1  and  O_2
REMARK    2  A    between atoms: O_2  and  C_3
REMARK    3  A    between atoms: C_7  and  C_8
REMARK    4  A    between atoms: C_14  and  O_15
REMARK    5  A    between atoms: O_15  and  C_16
REMARK    6  A    between atoms: C_17  and  O_18
REMARK    7  A    between atoms: O_18  and  C_19
REMARK                            x       y       z     vdW  Elec       q    Type
REMARK                         _______ _______ _______ _____ _____    ______ ____
ROOT
ATOM      1  C   UNL     1       4.760   4.613  18.018  0.00  0.00    +0.000 C 
ATOM      2  N   UNL     1       5.713   4.122  18.763  0.00  0.00    +0.000 NA
ATOM      3  C   UNL     1       6.576   5.263  19.163  0.00  0.00    +0.000 C 
ATOM      4  C   UNL     1       7.159   6.006  17.965  0.00  0.00    +0.000 C 
ATOM      5  C   UNL     1       6.460   5.737  16.647  0.00  0.00    +0.000 A 
ATOM      6  C   UNL     1       7.282   5.968  15.523  0.00  0.00    +0.000 A 
ATOM      7  C   UNL     1       7.163   5.211  14.379  0.00  0.00    +0.000 A 
ATOM      8  C   UNL     1       6.148   4.241  14.313  0.00  0.00    +0.000 A 
ATOM      9  C   UNL     1       5.178   4.152  15.399  0.00  0.00    +0.000 A 
ATOM     10  C   UNL     1       5.286   4.962  16.592  0.00  0.00    +0.000 A 
ENDROOT
BRANCH   1  15
ATOM     11  C   UNL     1       1.730   4.357  20.467  0.00  0.00    +0.000 A 
ATOM     12  C   UNL     1       1.381   5.691  20.696  0.00  0.00    +0.000 A 
ATOM     13  C   UNL     1       2.068   6.710  20.040  0.00  0.00    +0.000 A 
ATOM     14  C   UNL     1       3.130   6.432  19.134  0.00  0.00    +0.000 A 
ATOM     15  C   UNL     1       3.517   5.118  18.858  0.00  0.00    +0.000 A 
ATOM     16  C   UNL     1       2.780   4.091  19.572  0.00  0.00    +0.000 A 
BRANCH  11  18
ATOM     17  C   UNL     1       1.655   2.404  21.875  0.00  0.00    +0.000 C 
ATOM     18  O   UNL     1       0.990   3.456  21.192  0.00  0.00    +0.000 OA
ENDBRANCH  11  18
ENDBRANCH   1  15
BRANCH   7  19
ATOM     19  O   UNL     1       8.257   5.382  13.559  0.00  0.00    +0.000 OA
ATOM     20  C   UNL     1       8.148   5.962  12.269  0.00  0.00    +0.000 C 
ENDBRANCH   7  19
BRANCH   8  21
ATOM     21  O   UNL     1       6.387   3.332  13.335  0.00  0.00    +0.000 OA
ATOM     22  C   UNL     1       5.648   3.169  12.142  0.00  0.00    +0.000 C 
ENDBRANCH   8  21
TORSDOF 4
ENDMDL
MODEL 5
REMARK VINA RESULT:      -6.7      1.598      1.826
REMARK  Name = 
REMARK  7 active torsions:
REMARK  status: ('A' for Active; 'I' for Inactive)
REMARK    1  A    between atoms: C_1  and  O_2
REMARK    2  A    between atoms: O_2  and  C_3
REMARK    3  A    between atoms: C_7  and  C_8
REMARK    4  A    between atoms: C_14  and  O_15
REMARK    5  A    between atoms: O_15  and  C_16
REMARK    6  A    between atoms: C_17  and  O_18
REMARK    7  A    between atoms: O_18  and  C_19
REMARK                            x       y       z     vdW  Elec       q    Type
REMARK                         _______ _______ _______ _____ _____    ______ ____
ROOT
ATOM      1  C   UNL     1       6.040   5.516  16.164  0.00  0.00    +0.000 C 
ATOM      2  N   UNL     1       6.972   6.089  16.876  0.00  0.00    +0.000 NA
ATOM      3  C   UNL     1       7.662   5.009  17.627  0.00  0.00    +0.000 C 
ATOM      4  C   UNL     1       6.714   4.216  18.520  0.00  0.00    +0.000 C 
ATOM      5  C   UNL     1       5.243   4.375  18.188  0.00  0.00    +0.000 A 
ATOM      6  C   UNL     1       4.392   4.107  19.282  0.00  0.00    +0.000 A 
ATOM      7  C   UNL     1       3.206   4.786  19.453  0.00  0.00    +0.000 A 
ATOM      8  C   UNL     1       2.810   5.710  18.471  0.00  0.00    +0.000 A 
ATOM      9  C   UNL     1       3.596   5.829  17.247  0.00  0.00    +0.000 A 
ATOM     10  C   UNL     1       4.828   5.100  17.054  0.00  0.00    +0.000 A 
ENDROOT
BRANCH   1  15
ATOM     11  C   UNL     1       5.925   3.611  12.758  0.00  0.00    +0.000 A 
ATOM     12  C   UNL     1       7.035   4.109  12.067  0.00  0.00    +0.000 A 
ATOM     13  C   UNL     1       7.880   5.030  12.683  0.00  0.00    +0.000 A 
ATOM     14  C   UNL     1       7.644   5.487  14.011  0.00  0.00    +0.000 A 
ATOM     15  C   UNL     1       6.558   5.017  14.754  0.00  0.00    +0.000 A 
ATOM     16  C   UNL     1       5.700   4.068  14.067  0.00  0.00    +0.000 A 
BRANCH  11  18
ATOM     17  C   UNL     1       5.801   1.631  11.392  0.00  0.00    +0.000 C 
ATOM     18  O   UNL     1       5.166   2.730  12.028  0.00  0.00    +0.000 OA
ENDBRANCH  11  18
ENDBRANCH   1  15
BRANCH   7  19
ATOM     19  O   UNL     1       2.715   4.606  20.727  0.00  0.00    +0.000 OA
ATOM     20  C   UNL     1       2.359   3.326  21.224  0.00  0.00    +0.000 C 
ENDBRANCH   7  19
BRANCH   8  21
ATOM     21  O   UNL     1       1.868   6.566  18.941  0.00  0.00    +0.000 OA
ATOM     22  C   UNL     1       2.095   7.859  19.464  0.00  0.00    +0.000 C 
ENDBRANCH   8  21
TORSDOF 4
ENDMDL
MODEL 6
REMARK VINA RESULT:      -6.3      7.021      8.767
REMARK  Name = 
REMARK  7 active torsions:
REMARK  status: ('A' for Active; 'I' for Inactive)
REMARK    1  A    between atoms: C_1  and  O_2
REMARK    2  A    between atoms: O_2  and  C_3
REMARK    3  A    between atoms: C_7  and  C_8
REMARK    4  A    between atoms: C_14  and  O_15
REMARK    5  A    between atoms: O_15  and  C_16
REMARK    6  A    between atoms: C_17  and  O_18
REMARK    7  A    between atoms: O_18  and  C_19
REMARK                            x       y       z     vdW  Elec       q    Type
REMARK                         _______ _______ _______ _____ _____    ______ ____
ROOT
ATOM      1  C   UNL     1       1.229   9.485  17.912  0.00  0.00    +0.000 C 
ATOM      2  N   UNL     1       1.893  10.567  17.607  0.00  0.00    +0.000 NA
ATOM      3  C   UNL     1       2.139  11.292  18.880  0.00  0.00    +0.000 C 
ATOM      4  C   UNL     1       0.850  11.642  19.615  0.00  0.00    +0.000 C 
ATOM      5  C   UNL     1      -0.371  10.864  19.166  0.00  0.00    +0.000 A 
ATOM      6  C   UNL     1      -1.587  11.530  19.432  0.00  0.00    +0.000 A 
ATOM      7  C   UNL     1      -2.671  11.410  18.592  0.00  0.00    +0.000 A 
ATOM      8  C   UNL     1      -2.579  10.544  17.490  0.00  0.00    +0.000 A 
ATOM      9  C   UNL     1      -1.392   9.707  17.341  0.00  0.00    +0.000 A 
ATOM     10  C   UNL     1      -0.262   9.814  18.235  0.00  0.00    +0.000 A 
ENDROOT
BRANCH   1  15
ATOM     11  C   UNL     1       2.374   6.297  19.853  0.00  0.00    +0.000 A 
ATOM     12  C   UNL     1       3.466   5.837  19.110  0.00  0.00    +0.000 A 
ATOM     13  C   UNL     1       3.900   6.554  17.997  0.00  0.00    +0.000 A 
ATOM     14  C   UNL     1       3.257   7.756  17.586  0.00  0.00    +0.000 A 
ATOM     15  C   UNL     1       2.168   8.270  18.295  0.00  0.00    +0.000 A 
ATOM     16  C   UNL     1       1.744   7.483  19.440  0.00  0.00    +0.000 A 
BRANCH  11  18
ATOM     17  C   UNL     1       1.323   4.285  20.657  0.00  0.00    +0.000 C 
ATOM     18  O   UNL     1       2.038   5.485  20.908  0.00  0.00    +0.000 OA
ENDBRANCH  11  18
ENDBRANCH   1  15
BRANCH   7  19
ATOM     19  O   UNL     1      -3.610  12.383  18.858  0.00  0.00    +0.000 OA
ATOM     20  C   UNL     1      -4.863  12.079  19.450  0.00  0.00    +0.000 C 
ENDBRANCH   7  19
BRANCH   8  21
ATOM     21  O   UNL     1      -3.528  10.814  16.559  0.00  0.00    +0.000 OA
ATOM     22  C   UNL     1      -3.345  10.843  15.158  0.00  0.00    +0.000 C 
ENDBRANCH   8  21
TORSDOF 4
ENDMDL
MODEL 7
REMARK VINA RESULT:      -6.2      4.221      7.776
REMARK  Name = 
REMARK  7 active torsions:
REMARK  status: ('A' for Active; 'I' for Inactive)
REMARK    1  A    between atoms: C_1  and  O_2
REMARK    2  A    between atoms: O_2  and  C_3
REMARK    3  A    between atoms: C_7  and  C_8
REMARK    4  A    between atoms: C_14  and  O_15
REMARK    5  A    between atoms: O_15  and  C_16
REMARK    6  A    between atoms: C_17  and  O_18
REMARK    7  A    between atoms: O_18  and  C_19
REMARK                            x       y       z     vdW  Elec       q    Type
REMARK                         _______ _______ _______ _____ _____    ______ ____
ROOT
ATOM      1  C   UNL     1       2.684   6.856  18.023  0.00  0.00    +0.000 C 
ATOM      2  N   UNL     1       2.115   5.695  18.198  0.00  0.00    +0.000 NA
ATOM      3  C   UNL     1       2.539   5.208  19.536  0.00  0.00    +0.000 C 
ATOM      4  C   UNL     1       4.055   5.089  19.664  0.00  0.00    +0.000 C 
ATOM      5  C   UNL     1       4.844   5.849  18.617  0.00  0.00    +0.000 A 
ATOM      6  C   UNL     1       6.139   5.329  18.407  0.00  0.00    +0.000 A 
ATOM      7  C   UNL     1       6.735   5.361  17.166  0.00  0.00    +0.000 A 
ATOM      8  C   UNL     1       6.060   5.996  16.110  0.00  0.00    +0.000 A 
ATOM      9  C   UNL     1       4.816   6.708  16.386  0.00  0.00    +0.000 A 
ATOM     10  C   UNL     1       4.201   6.696  17.694  0.00  0.00    +0.000 A 
ENDROOT
BRANCH   1  15
ATOM     11  C   UNL     1       1.081   9.128  20.763  0.00  0.00    +0.000 A 
ATOM     12  C   UNL     1       0.598  10.223  20.039  0.00  0.00    +0.000 A 
ATOM     13  C   UNL     1       0.726  10.248  18.652  0.00  0.00    +0.000 A 
ATOM     14  C   UNL     1       1.342   9.181  17.940  0.00  0.00    +0.000 A 
ATOM     15  C   UNL     1       1.833   8.056  18.608  0.00  0.00    +0.000 A 
ATOM     16  C   UNL     1       1.689   8.080  20.053  0.00  0.00    +0.000 A 
BRANCH  11  18
ATOM     17  C   UNL     1      -0.402   9.362  22.647  0.00  0.00    +0.000 C 
ATOM     18  O   UNL     1       0.911   9.242  22.121  0.00  0.00    +0.000 OA
ENDBRANCH  11  18
ENDBRANCH   1  15
BRANCH   7  19
ATOM     19  O   UNL     1       7.826   4.521  17.121  0.00  0.00    +0.000 OA
ATOM     20  C   UNL     1       8.602   4.233  18.273  0.00  0.00    +0.000 C 
ENDBRANCH   7  19
BRANCH   8  21
ATOM     21  O   UNL     1       6.552   5.619  14.903  0.00  0.00    +0.000 OA
ATOM     22  C   UNL     1       6.233   4.436  14.199  0.00  0.00    +0.000 C 
ENDBRANCH   8  21
TORSDOF 4
ENDMDL
MODEL 8
REMARK VINA RESULT:      -6.2      6.933      9.019
REMARK  Name = 
REMARK  7 active torsions:
REMARK  status: ('A' for Active; 'I' for Inactive)
REMARK    1  A    between atoms: C_1  and  O_2
REMARK    2  A    between atoms: O_2  and  C_3
REMARK    3  A    between atoms: C_7  and  C_8
REMARK    4  A    between atoms: C_14  and  O_15
REMARK    5  A    between atoms: O_15  and  C_16
REMARK    6  A    between atoms: C_17  and  O_18
REMARK    7  A    between atoms: O_18  and  C_19
REMARK                            x       y       z     vdW  Elec       q    Type
REMARK                         _______ _______ _______ _____ _____    ______ ____
ROOT
ATOM      1  C   UNL     1       0.737  10.511  18.805  0.00  0.00    +0.000 C 
ATOM      2  N   UNL     1      -0.531  10.216  18.894  0.00  0.00    +0.000 NA
ATOM      3  C   UNL     1      -0.856  10.151  20.342  0.00  0.00    +0.000 C 
ATOM      4  C   UNL     1      -0.012   9.122  21.087  0.00  0.00    +0.000 C 
ATOM      5  C   UNL     1       1.236   8.671  20.355  0.00  0.00    +0.000 A 
ATOM      6  C   UNL     1       1.693   7.399  20.761  0.00  0.00    +0.000 A 
ATOM      7  C   UNL     1       2.300   6.537  19.875  0.00  0.00    +0.000 A 
ATOM      8  C   UNL     1       2.532   6.974  18.560  0.00  0.00    +0.000 A 
ATOM      9  C   UNL     1       2.242   8.360  18.209  0.00  0.00    +0.000 A 
ATOM     10  C   UNL     1       1.626   9.274  19.144  0.00  0.00    +0.000 A 
ENDROOT
BRANCH   1  15
ATOM     11  C   UNL     1       2.789  13.807  18.394  0.00  0.00    +0.000 A 
ATOM     12  C   UNL     1       1.822  14.810  18.506  0.00  0.00    +0.000 A 
ATOM     13  C   UNL     1       0.496  14.470  18.764  0.00  0.00    +0.000 A 
ATOM     14  C   UNL     1       0.089  13.114  18.917  0.00  0.00    +0.000 A 
ATOM     15  C   UNL     1       1.013  12.070  18.826  0.00  0.00    +0.000 A 
ATOM     16  C   UNL     1       2.379  12.472  18.545  0.00  0.00    +0.000 A 
BRANCH  11  18
ATOM     17  C   UNL     1       4.313  15.666  18.249  0.00  0.00    +0.000 C 
ATOM     18  O   UNL     1       4.049  14.278  18.116  0.00  0.00    +0.000 OA
ENDBRANCH  11  18
ENDBRANCH   1  15
BRANCH   7  19
ATOM     19  O   UNL     1       2.359   5.261  20.391  0.00  0.00    +0.000 OA
ATOM     20  C   UNL     1       1.215   4.426  20.469  0.00  0.00    +0.000 C 
ENDBRANCH   7  19
BRANCH   8  21
ATOM     21  O   UNL     1       2.758   5.933  17.719  0.00  0.00    +0.000 OA
ATOM     22  C   UNL     1       4.018   5.410  17.351  0.00  0.00    +0.000 C 
ENDBRANCH   8  21
TORSDOF 4
ENDMDL
MODEL 9
REMARK VINA RESULT:      -6.1      1.932      7.176
REMARK  Name = 
REMARK  7 active torsions:
REMARK  status: ('A' for Active; 'I' for Inactive)
REMARK    1  A    between atoms: C_1  and  O_2
REMARK    2  A    between atoms: O_2  and  C_3
REMARK    3  A    between atoms: C_7  and  C_8
REMARK    4  A    between atoms: C_14  and  O_15
REMARK    5  A    between atoms: O_15  and  C_16
REMARK    6  A    between atoms: C_17  and  O_18
REMARK    7  A    between atoms: O_18  and  C_19
REMARK                            x       y       z     vdW  Elec       q    Type
REMARK                         _______ _______ _______ _____ _____    ______ ____
ROOT
ATOM      1  C   UNL     1       5.205   3.997  18.345  0.00  0.00    +0.000 C 
ATOM      2  N   UNL     1       6.392   4.101  18.878  0.00  0.00    +0.000 NA
ATOM      3  C   UNL     1       6.651   5.551  19.068  0.00  0.00    +0.000 C 
ATOM      4  C   UNL     1       6.576   6.337  17.763  0.00  0.00    +0.000 C 
ATOM      5  C   UNL     1       5.872   5.622  16.628  0.00  0.00    +0.000 A 
ATOM      6  C   UNL     1       6.262   6.079  15.351  0.00  0.00    +0.000 A 
ATOM      7  C   UNL     1       6.322   5.229  14.270  0.00  0.00    +0.000 A 
ATOM      8  C   UNL     1       5.910   3.896  14.435  0.00  0.00    +0.000 A 
ATOM      9  C   UNL     1       5.317   3.487  15.704  0.00  0.00    +0.000 A 
ATOM     10  C   UNL     1       5.231   4.385  16.834  0.00  0.00    +0.000 A 
ENDROOT
BRANCH   1  15
ATOM     11  C   UNL     1       2.185   5.316  20.438  0.00  0.00    +0.000 A 
ATOM     12  C   UNL     1       1.711   4.170  21.086  0.00  0.00    +0.000 A 
ATOM     13  C   UNL     1       2.368   2.954  20.914  0.00  0.00    +0.000 A 
ATOM     14  C   UNL     1       3.520   2.839  20.086  0.00  0.00    +0.000 A 
ATOM     15  C   UNL     1       4.046   3.950  19.422  0.00  0.00    +0.000 A 
ATOM     16  C   UNL     1       3.322   5.193  19.622  0.00  0.00    +0.000 A 
BRANCH  11  18
ATOM     17  C   UNL     1       1.914   7.700  20.233  0.00  0.00    +0.000 C 
ATOM     18  O   UNL     1       1.433   6.440  20.675  0.00  0.00    +0.000 OA
ENDBRANCH  11  18
ENDBRANCH   1  15
BRANCH   7  19
ATOM     19  O   UNL     1       7.029   5.799  13.233  0.00  0.00    +0.000 OA
ATOM     20  C   UNL     1       8.420   5.582  13.062  0.00  0.00    +0.000 C 
ENDBRANCH   7  19
BRANCH   8  21
ATOM     21  O   UNL     1       6.380   3.100  13.443  0.00  0.00    +0.000 OA
ATOM     22  C   UNL     1       5.803   2.922  12.165  0.00  0.00    +0.000 C 
ENDBRANCH   8  21
TORSDOF 4
ENDMDL
