MODEL 1
REMARK VINA RESULT:      -8.5      0.000      0.000
REMARK  Name = 
REMARK  3 active torsions:
REMARK  status: ('A' for Active; 'I' for Inactive)
REMARK    1  A    between atoms: C_8  and  N_9
REMARK    2  A    between atoms: N_9  and  S_10
REMARK    3  A    between atoms: S_10  and  C_13
REMARK                            x       y       z     vdW  Elec       q    Type
REMARK                         _______ _______ _______ _____ _____    ______ ____
ROOT
ATOM      1  O   UNL     1       1.192   2.925  21.691  0.00  0.00    +0.000 OA
ATOM      2  C   UNL     1       1.792   3.113  20.639  0.00  0.00    +0.000 C 
ATOM      3  O   UNL     1       2.252   2.083  19.895  0.00  0.00    +0.000 OA
ATOM      4  C   UNL     1       2.933   2.244  18.739  0.00  0.00    +0.000 C 
ATOM      5  O   UNL     1       3.346   1.282  18.101  0.00  0.00    +0.000 OA
ATOM      6  C   UNL     1       3.197   3.608  18.250  0.00  0.00    +0.000 A 
ATOM      7  C   UNL     1       3.938   3.807  17.075  0.00  0.00    +0.000 A 
ATOM      8  C   UNL     1       4.216   5.103  16.647  0.00  0.00    +0.000 A 
ATOM      9  C   UNL     1       3.717   6.197  17.353  0.00  0.00    +0.000 A 
ATOM     10  C   UNL     1       2.976   6.006  18.530  0.00  0.00    +0.000 A 
ATOM     11  C   UNL     1       2.494   7.090  19.278  0.00  0.00    +0.000 A 
ATOM     12  C   UNL     1       1.790   6.876  20.463  0.00  0.00    +0.000 A 
ATOM     13  C   UNL     1       1.559   5.575  20.908  0.00  0.00    +0.000 A 
ATOM     14  C   UNL     1       2.027   4.485  20.164  0.00  0.00    +0.000 A 
ATOM     15  C   UNL     1       2.727   4.690  18.982  0.00  0.00    +0.000 A 
ENDROOT
BRANCH   8  16
ATOM     16  N   UNL     1       5.029   5.341  15.499  0.00  0.00    +0.000 N 
ATOM     17  H   UNL     1       4.958   6.277  15.099  0.00  0.00    +0.000 HD
BRANCH  16  18
ATOM     18  S   UNL     1       6.666   4.906  15.592  0.00  0.00    +0.000 S 
ATOM     19  O   UNL     1       6.709   3.458  15.657  0.00  0.00    +0.000 OA
ATOM     20  O   UNL     1       7.402   5.636  14.585  0.00  0.00    +0.000 OA
BRANCH  18  21
ATOM     21  C   UNL     1       7.300   5.483  17.147  0.00  0.00    +0.000 A 
ATOM     22  C   UNL     1       7.684   4.824  18.300  0.00  0.00    +0.000 A 
ATOM     23  C   UNL     1       8.188   5.717  19.290  0.00  0.00    +0.000 A 
ATOM     24  C   UNL     1       8.157   7.027  18.866  0.00  0.00    +0.000 A 
ATOM     25  S   UNL     1       7.513   7.176  17.289  0.00  0.00    +0.000 S 
ENDBRANCH  18  21
ENDBRANCH  16  18
ENDBRANCH   8  16
TORSDOF 3
ENDMDL
MODEL 2
REMARK VINA RESULT:      -7.7      2.019      2.913
REMARK  Name = 
REMARK  3 active torsions:
REMARK  status: ('A' for Active; 'I' for Inactive)
REMARK    1  A    between atoms: C_8  and  N_9
REMARK    2  A    between atoms: N_9  and  S_10
REMARK    3  A    between atoms: S_10  and  C_13
REMARK                            x       y       z     vdW  Elec       q    Type
REMARK                         _______ _______ _______ _____ _____    ______ ____
ROOT
ATOM      1  O   UNL     1       1.157   2.925  21.677  0.00  0.00    +0.000 OA
ATOM      2  C   UNL     1       1.795   3.238  20.678  0.00  0.00    +0.000 C 
ATOM      3  O   UNL     1       2.354   2.305  19.876  0.00  0.00    +0.000 OA
ATOM      4  C   UNL     1       3.079   2.604  18.776  0.00  0.00    +0.000 C 
ATOM      5  O   UNL     1       3.581   1.726  18.083  0.00  0.00    +0.000 OA
ATOM      6  C   UNL     1       3.281   4.018  18.418  0.00  0.00    +0.000 A 
ATOM      7  C   UNL     1       4.064   4.360  17.305  0.00  0.00    +0.000 A 
ATOM      8  C   UNL     1       4.282   5.702  17.002  0.00  0.00    +0.000 A 
ATOM      9  C   UNL     1       3.683   6.700  17.769  0.00  0.00    +0.000 A 
ATOM     10  C   UNL     1       2.898   6.366  18.884  0.00  0.00    +0.000 A 
ATOM     11  C   UNL     1       2.315   7.352  19.693  0.00  0.00    +0.000 A 
ATOM     12  C   UNL     1       1.568   6.996  20.816  0.00  0.00    +0.000 A 
ATOM     13  C   UNL     1       1.397   5.650  21.139  0.00  0.00    +0.000 A 
ATOM     14  C   UNL     1       1.968   4.658  20.332  0.00  0.00    +0.000 A 
ATOM     15  C   UNL     1       2.710   5.004  19.211  0.00  0.00    +0.000 A 
ENDROOT
BRANCH   8  16
ATOM     16  N   UNL     1       5.134   6.084  15.924  0.00  0.00    +0.000 N 
ATOM     17  H   UNL     1       5.257   7.090  15.798  0.00  0.00    +0.000 HD
BRANCH  16  18
ATOM     18  S   UNL     1       6.648   5.327  15.811  0.00  0.00    +0.000 S 
ATOM     19  O   UNL     1       7.645   6.358  16.023  0.00  0.00    +0.000 OA
ATOM     20  O   UNL     1       6.629   4.122  16.607  0.00  0.00    +0.000 OA
BRANCH  18  21
ATOM     21  C   UNL     1       6.863   4.778  14.135  0.00  0.00    +0.000 A 
ATOM     22  C   UNL     1       7.775   5.117  13.153  0.00  0.00    +0.000 A 
ATOM     23  C   UNL     1       7.587   4.364  11.959  0.00  0.00    +0.000 A 
ATOM     24  C   UNL     1       6.529   3.488  12.063  0.00  0.00    +0.000 A 
ATOM     25  S   UNL     1       5.764   3.585  13.589  0.00  0.00    +0.000 S 
ENDBRANCH  18  21
ENDBRANCH  16  18
ENDBRANCH   8  16
TORSDOF 3
ENDMDL
MODEL 3
REMARK VINA RESULT:      -7.4      2.255      3.200
REMARK  Name = 
REMARK  3 active torsions:
REMARK  status: ('A' for Active; 'I' for Inactive)
REMARK    1  A    between atoms: C_8  and  N_9
REMARK    2  A    between atoms: N_9  and  S_10
REMARK    3  A    between atoms: S_10  and  C_13
REMARK                            x       y       z     vdW  Elec       q    Type
REMARK                         _______ _______ _______ _____ _____    ______ ____
ROOT
ATOM      1  O   UNL     1       0.784   7.857  21.273  0.00  0.00    +0.000 OA
ATOM      2  C   UNL     1       1.478   7.469  20.340  0.00  0.00    +0.000 C 
ATOM      3  O   UNL     1       1.818   8.290  19.323  0.00  0.00    +0.000 OA
ATOM      4  C   UNL     1       2.567   7.900  18.267  0.00  0.00    +0.000 C 
ATOM      5  O   UNL     1       2.841   8.674  17.357  0.00  0.00    +0.000 OA
ATOM      6  C   UNL     1       3.044   6.508  18.207  0.00  0.00    +0.000 A 
ATOM      7  C   UNL     1       3.788   6.063  17.103  0.00  0.00    +0.000 A 
ATOM      8  C   UNL     1       4.197   4.733  17.038  0.00  0.00    +0.000 A 
ATOM      9  C   UNL     1       3.916   3.862  18.090  0.00  0.00    +0.000 A 
ATOM     10  C   UNL     1       3.173   4.299  19.198  0.00  0.00    +0.000 A 
ATOM     11  C   UNL     1       2.845   3.433  20.251  0.00  0.00    +0.000 A 
ATOM     12  C   UNL     1       2.075   3.882  21.324  0.00  0.00    +0.000 A 
ATOM     13  C   UNL     1       1.629   5.202  21.355  0.00  0.00    +0.000 A 
ATOM     14  C   UNL     1       1.958   6.078  20.313  0.00  0.00    +0.000 A 
ATOM     15  C   UNL     1       2.726   5.640  19.242  0.00  0.00    +0.000 A 
ENDROOT
BRANCH   8  16
ATOM     16  N   UNL     1       4.888   4.230  15.897  0.00  0.00    +0.000 N 
ATOM     17  H   UNL     1       4.301   4.003  15.094  0.00  0.00    +0.000 HD
BRANCH  16  18
ATOM     18  S   UNL     1       6.246   5.093  15.357  0.00  0.00    +0.000 S 
ATOM     19  O   UNL     1       7.173   4.117  14.819  0.00  0.00    +0.000 OA
ATOM     20  O   UNL     1       5.801   6.222  14.571  0.00  0.00    +0.000 OA
BRANCH  18  21
ATOM     21  C   UNL     1       7.049   5.797  16.776  0.00  0.00    +0.000 A 
ATOM     22  C   UNL     1       7.356   7.100  17.123  0.00  0.00    +0.000 A 
ATOM     23  C   UNL     1       7.967   7.188  18.406  0.00  0.00    +0.000 A 
ATOM     24  C   UNL     1       8.120   5.949  18.989  0.00  0.00    +0.000 A 
ATOM     25  S   UNL     1       7.541   4.691  17.986  0.00  0.00    +0.000 S 
ENDBRANCH  18  21
ENDBRANCH  16  18
ENDBRANCH   8  16
TORSDOF 3
ENDMDL
MODEL 4
REMARK VINA RESULT:      -7.3      4.263      6.396
REMARK  Name = 
REMARK  3 active torsions:
REMARK  status: ('A' for Active; 'I' for Inactive)
REMARK    1  A    between atoms: C_8  and  N_9
REMARK    2  A    between atoms: N_9  and  S_10
REMARK    3  A    between atoms: S_10  and  C_13
REMARK                            x       y       z     vdW  Elec       q    Type
REMARK                         _______ _______ _______ _____ _____    ______ ____
ROOT
ATOM      1  O   UNL     1       3.692   1.408  18.114  0.00  0.00    +0.000 OA
ATOM      2  C   UNL     1       3.302   2.495  18.526  0.00  0.00    +0.000 C 
ATOM      3  O   UNL     1       2.437   2.589  19.560  0.00  0.00    +0.000 OA
ATOM      4  C   UNL     1       1.968   3.764  20.036  0.00  0.00    +0.000 C 
ATOM      5  O   UNL     1       1.173   3.804  20.967  0.00  0.00    +0.000 OA
ATOM      6  C   UNL     1       2.413   5.017  19.405  0.00  0.00    +0.000 A 
ATOM      7  C   UNL     1       1.911   6.250  19.850  0.00  0.00    +0.000 A 
ATOM      8  C   UNL     1       2.308   7.426  19.216  0.00  0.00    +0.000 A 
ATOM      9  C   UNL     1       3.240   7.383  18.180  0.00  0.00    +0.000 A 
ATOM     10  C   UNL     1       3.746   6.154  17.729  0.00  0.00    +0.000 A 
ATOM     11  C   UNL     1       4.656   6.081  16.663  0.00  0.00    +0.000 A 
ATOM     12  C   UNL     1       5.119   4.846  16.210  0.00  0.00    +0.000 A 
ATOM     13  C   UNL     1       4.677   3.673  16.819  0.00  0.00    +0.000 A 
ATOM     14  C   UNL     1       3.776   3.734  17.890  0.00  0.00    +0.000 A 
ATOM     15  C   UNL     1       3.312   4.960  18.349  0.00  0.00    +0.000 A 
ENDROOT
BRANCH   8  16
ATOM     16  N   UNL     1       1.760   8.687  19.594  0.00  0.00    +0.000 N 
ATOM     17  H   UNL     1       2.337   9.243  20.226  0.00  0.00    +0.000 HD
BRANCH  16  18
ATOM     18  S   UNL     1       1.173   9.691  18.359  0.00  0.00    +0.000 S 
ATOM     19  O   UNL     1       2.231  10.634  18.052  0.00  0.00    +0.000 OA
ATOM     20  O   UNL     1       0.575   8.869  17.331  0.00  0.00    +0.000 OA
BRANCH  18  21
ATOM     21  C   UNL     1      -0.162  10.655  19.024  0.00  0.00    +0.000 A 
ATOM     22  C   UNL     1      -0.299  11.374  20.197  0.00  0.00    +0.000 A 
ATOM     23  C   UNL     1      -1.555  12.041  20.277  0.00  0.00    +0.000 A 
ATOM     24  C   UNL     1      -2.339  11.798  19.172  0.00  0.00    +0.000 A 
ATOM     25  S   UNL     1      -1.568  10.761  18.053  0.00  0.00    +0.000 S 
ENDBRANCH  18  21
ENDBRANCH  16  18
ENDBRANCH   8  16
TORSDOF 3
ENDMDL
MODEL 5
REMARK VINA RESULT:      -7.2      4.411      6.486
REMARK  Name = 
REMARK  3 active torsions:
REMARK  status: ('A' for Active; 'I' for Inactive)
REMARK    1  A    between atoms: C_8  and  N_9
REMARK    2  A    between atoms: N_9  and  S_10
REMARK    3  A    between atoms: S_10  and  C_13
REMARK                            x       y       z     vdW  Elec       q    Type
REMARK                         _______ _______ _______ _____ _____    ______ ____
ROOT
ATOM      1  O   UNL     1       4.885   2.247  19.985  0.00  0.00    +0.000 OA
ATOM      2  C   UNL     1       4.184   3.222  19.743  0.00  0.00    +0.000 C 
ATOM      3  O   UNL     1       2.904   3.295  20.169  0.00  0.00    +0.000 OA
ATOM      4  C   UNL     1       2.089   4.343  19.910  0.00  0.00    +0.000 C 
ATOM      5  O   UNL     1       0.929   4.362  20.304  0.00  0.00    +0.000 OA
ATOM      6  C   UNL     1       2.610   5.473  19.122  0.00  0.00    +0.000 A 
ATOM      7  C   UNL     1       1.775   6.555  18.803  0.00  0.00    +0.000 A 
ATOM      8  C   UNL     1       2.268   7.598  18.021  0.00  0.00    +0.000 A 
ATOM      9  C   UNL     1       3.598   7.592  17.603  0.00  0.00    +0.000 A 
ATOM     10  C   UNL     1       4.439   6.513  17.918  0.00  0.00    +0.000 A 
ATOM     11  C   UNL     1       5.770   6.466  17.478  0.00  0.00    +0.000 A 
ATOM     12  C   UNL     1       6.576   5.367  17.775  0.00  0.00    +0.000 A 
ATOM     13  C   UNL     1       6.058   4.306  18.516  0.00  0.00    +0.000 A 
ATOM     14  C   UNL     1       4.733   4.347  18.969  0.00  0.00    +0.000 A 
ATOM     15  C   UNL     1       3.925   5.439  18.679  0.00  0.00    +0.000 A 
ENDROOT
BRANCH   8  16
ATOM     16  N   UNL     1       1.426   8.675  17.615  0.00  0.00    +0.000 N 
ATOM     17  H   UNL     1       0.529   8.402  17.212  0.00  0.00    +0.000 HD
BRANCH  16  18
ATOM     18  S   UNL     1       1.169   9.933  18.725  0.00  0.00    +0.000 S 
ATOM     19  O   UNL     1       1.198   9.335  20.045  0.00  0.00    +0.000 OA
ATOM     20  O   UNL     1       2.028  11.043  18.381  0.00  0.00    +0.000 OA
BRANCH  18  21
ATOM     21  C   UNL     1      -0.487  10.534  18.497  0.00  0.00    +0.000 A 
ATOM     22  C   UNL     1      -1.490  10.191  17.610  0.00  0.00    +0.000 A 
ATOM     23  C   UNL     1      -2.690  10.923  17.842  0.00  0.00    +0.000 A 
ATOM     24  C   UNL     1      -2.558  11.810  18.887  0.00  0.00    +0.000 A 
ATOM     25  S   UNL     1      -0.992  11.766  19.573  0.00  0.00    +0.000 S 
ENDBRANCH  18  21
ENDBRANCH  16  18
ENDBRANCH   8  16
TORSDOF 3
ENDMDL
MODEL 6
REMARK VINA RESULT:      -7.1      4.172      6.829
REMARK  Name = 
REMARK  3 active torsions:
REMARK  status: ('A' for Active; 'I' for Inactive)
REMARK    1  A    between atoms: C_8  and  N_9
REMARK    2  A    between atoms: N_9  and  S_10
REMARK    3  A    between atoms: S_10  and  C_13
REMARK                            x       y       z     vdW  Elec       q    Type
REMARK                         _______ _______ _______ _____ _____    ______ ____
ROOT
ATOM      1  O   UNL     1       3.999   1.990  18.309  0.00  0.00    +0.000 OA
ATOM      2  C   UNL     1       3.484   3.007  18.759  0.00  0.00    +0.000 C 
ATOM      3  O   UNL     1       2.648   2.965  19.819  0.00  0.00    +0.000 OA
ATOM      4  C   UNL     1       2.045   4.058  20.338  0.00  0.00    +0.000 C 
ATOM      5  O   UNL     1       1.281   3.974  21.292  0.00  0.00    +0.000 OA
ATOM      6  C   UNL     1       2.303   5.372  19.726  0.00  0.00    +0.000 A 
ATOM      7  C   UNL     1       1.658   6.519  20.216  0.00  0.00    +0.000 A 
ATOM      8  C   UNL     1       1.879   7.750  19.601  0.00  0.00    +0.000 A 
ATOM      9  C   UNL     1       2.775   7.851  18.538  0.00  0.00    +0.000 A 
ATOM     10  C   UNL     1       3.423   6.709  18.042  0.00  0.00    +0.000 A 
ATOM     11  C   UNL     1       4.300   6.778  16.949  0.00  0.00    +0.000 A 
ATOM     12  C   UNL     1       4.905   5.624  16.452  0.00  0.00    +0.000 A 
ATOM     13  C   UNL     1       4.640   4.391  17.044  0.00  0.00    +0.000 A 
ATOM     14  C   UNL     1       3.772   4.311  18.141  0.00  0.00    +0.000 A 
ATOM     15  C   UNL     1       3.168   5.456  18.644  0.00  0.00    +0.000 A 
ENDROOT
BRANCH   8  16
ATOM     16  N   UNL     1       1.184   8.920  20.026  0.00  0.00    +0.000 N 
ATOM     17  H   UNL     1       0.470   9.263  19.383  0.00  0.00    +0.000 HD
BRANCH  16  18
ATOM     18  S   UNL     1       0.554   8.932  21.602  0.00  0.00    +0.000 S 
ATOM     19  O   UNL     1      -0.588   8.039  21.601  0.00  0.00    +0.000 OA
ATOM     20  O   UNL     1       1.640   8.764  22.541  0.00  0.00    +0.000 OA
BRANCH  18  21
ATOM     21  C   UNL     1      -0.094  10.554  21.921  0.00  0.00    +0.000 A 
ATOM     22  C   UNL     1      -0.943  11.044  22.896  0.00  0.00    +0.000 A 
ATOM     23  C   UNL     1      -1.145  12.449  22.781  0.00  0.00    +0.000 A 
ATOM     24  C   UNL     1      -0.457  12.982  21.713  0.00  0.00    +0.000 A 
ATOM     25  S   UNL     1       0.415  11.790  20.852  0.00  0.00    +0.000 S 
ENDBRANCH  18  21
ENDBRANCH  16  18
ENDBRANCH   8  16
TORSDOF 3
ENDMDL
MODEL 7
REMARK VINA RESULT:      -7.1      4.210      6.018
REMARK  Name = 
REMARK  3 active torsions:
REMARK  status: ('A' for Active; 'I' for Inactive)
REMARK    1  A    between atoms: C_8  and  N_9
REMARK    2  A    between atoms: N_9  and  S_10
REMARK    3  A    between atoms: S_10  and  C_13
REMARK                            x       y       z     vdW  Elec       q    Type
REMARK                         _______ _______ _______ _____ _____    ______ ____
ROOT
ATOM      1  O   UNL     1       3.479   1.738  17.577  0.00  0.00    +0.000 OA
ATOM      2  C   UNL     1       3.093   2.759  18.135  0.00  0.00    +0.000 C 
ATOM      3  O   UNL     1       2.211   2.715  19.157  0.00  0.00    +0.000 OA
ATOM      4  C   UNL     1       1.746   3.816  19.789  0.00  0.00    +0.000 C 
ATOM      5  O   UNL     1       0.935   3.732  20.704  0.00  0.00    +0.000 OA
ATOM      6  C   UNL     1       2.216   5.141  19.353  0.00  0.00    +0.000 A 
ATOM      7  C   UNL     1       1.720   6.303  19.963  0.00  0.00    +0.000 A 
ATOM      8  C   UNL     1       2.141   7.552  19.512  0.00  0.00    +0.000 A 
ATOM      9  C   UNL     1       3.091   7.646  18.495  0.00  0.00    +0.000 A 
ATOM     10  C   UNL     1       3.592   6.489  17.880  0.00  0.00    +0.000 A 
ATOM     11  C   UNL     1       4.520   6.558  16.831  0.00  0.00    +0.000 A 
ATOM     12  C   UNL     1       4.978   5.394  16.212  0.00  0.00    +0.000 A 
ATOM     13  C   UNL     1       4.512   4.152  16.638  0.00  0.00    +0.000 A 
ATOM     14  C   UNL     1       3.592   4.071  17.691  0.00  0.00    +0.000 A 
ATOM     15  C   UNL     1       3.134   5.224  18.315  0.00  0.00    +0.000 A 
ENDROOT
BRANCH   8  16
ATOM     16  N   UNL     1       1.600   8.753  20.059  0.00  0.00    +0.000 N 
ATOM     17  H   UNL     1       2.257   9.329  20.586  0.00  0.00    +0.000 HD
BRANCH  16  18
ATOM     18  S   UNL     1       0.702   9.754  19.023  0.00  0.00    +0.000 S 
ATOM     19  O   UNL     1       0.801   9.177  17.697  0.00  0.00    +0.000 OA
ATOM     20  O   UNL     1      -0.581  10.026  19.632  0.00  0.00    +0.000 OA
BRANCH  18  21
ATOM     21  C   UNL     1       1.521  11.327  18.934  0.00  0.00    +0.000 A 
ATOM     22  C   UNL     1       2.367  11.885  17.995  0.00  0.00    +0.000 A 
ATOM     23  C   UNL     1       2.742  13.218  18.330  0.00  0.00    +0.000 A 
ATOM     24  C   UNL     1       2.182  13.627  19.520  0.00  0.00    +0.000 A 
ATOM     25  S   UNL     1       1.222  12.404  20.231  0.00  0.00    +0.000 S 
ENDBRANCH  18  21
ENDBRANCH  16  18
ENDBRANCH   8  16
TORSDOF 3
ENDMDL
MODEL 8
REMARK VINA RESULT:      -7.0      4.133      5.807
REMARK  Name = 
REMARK  3 active torsions:
REMARK  status: ('A' for Active; 'I' for Inactive)
REMARK    1  A    between atoms: C_8  and  N_9
REMARK    2  A    between atoms: N_9  and  S_10
REMARK    3  A    between atoms: S_10  and  C_13
REMARK                            x       y       z     vdW  Elec       q    Type
REMARK                         _______ _______ _______ _____ _____    ______ ____
ROOT
ATOM      1  O   UNL     1       3.846   1.233  18.404  0.00  0.00    +0.000 OA
ATOM      2  C   UNL     1       3.744   2.436  18.191  0.00  0.00    +0.000 C 
ATOM      3  O   UNL     1       4.388   3.027  17.161  0.00  0.00    +0.000 OA
ATOM      4  C   UNL     1       4.319   4.352  16.900  0.00  0.00    +0.000 C 
ATOM      5  O   UNL     1       4.931   4.850  15.962  0.00  0.00    +0.000 OA
ATOM      6  C   UNL     1       3.503   5.210  17.774  0.00  0.00    +0.000 A 
ATOM      7  C   UNL     1       3.445   6.594  17.552  0.00  0.00    +0.000 A 
ATOM      8  C   UNL     1       2.703   7.400  18.412  0.00  0.00    +0.000 A 
ATOM      9  C   UNL     1       1.978   6.828  19.457  0.00  0.00    +0.000 A 
ATOM     10  C   UNL     1       2.030   5.444  19.686  0.00  0.00    +0.000 A 
ATOM     11  C   UNL     1       1.340   4.850  20.752  0.00  0.00    +0.000 A 
ATOM     12  C   UNL     1       1.435   3.477  20.980  0.00  0.00    +0.000 A 
ATOM     13  C   UNL     1       2.221   2.687  20.143  0.00  0.00    +0.000 A 
ATOM     14  C   UNL     1       2.907   3.269  19.069  0.00  0.00    +0.000 A 
ATOM     15  C   UNL     1       2.815   4.634  18.834  0.00  0.00    +0.000 A 
ENDROOT
BRANCH   8  16
ATOM     16  N   UNL     1       2.684   8.818  18.260  0.00  0.00    +0.000 N 
ATOM     17  H   UNL     1       2.999   9.165  17.353  0.00  0.00    +0.000 HD
BRANCH  16  18
ATOM     18  S   UNL     1       1.263   9.637  18.697  0.00  0.00    +0.000 S 
ATOM     19  O   UNL     1       0.294   9.377  17.650  0.00  0.00    +0.000 OA
ATOM     20  O   UNL     1       0.968   9.355  20.083  0.00  0.00    +0.000 OA
BRANCH  18  21
ATOM     21  C   UNL     1       1.594  11.380  18.633  0.00  0.00    +0.000 A 
ATOM     22  C   UNL     1       2.553  12.124  17.971  0.00  0.00    +0.000 A 
ATOM     23  C   UNL     1       2.392  13.523  18.182  0.00  0.00    +0.000 A 
ATOM     24  C   UNL     1       1.327  13.801  19.010  0.00  0.00    +0.000 A 
ATOM     25  S   UNL     1       0.537  12.379  19.536  0.00  0.00    +0.000 S 
ENDBRANCH  18  21
ENDBRANCH  16  18
ENDBRANCH   8  16
TORSDOF 3
ENDMDL
MODEL 9
REMARK VINA RESULT:      -7.0      4.141      6.226
REMARK  Name = 
REMARK  3 active torsions:
REMARK  status: ('A' for Active; 'I' for Inactive)
REMARK    1  A    between atoms: C_8  and  N_9
REMARK    2  A    between atoms: N_9  and  S_10
REMARK    3  A    between atoms: S_10  and  C_13
REMARK                            x       y       z     vdW  Elec       q    Type
REMARK                         _______ _______ _______ _____ _____    ______ ____
ROOT
ATOM      1  O   UNL     1       3.944   1.402  17.741  0.00  0.00    +0.000 OA
ATOM      2  C   UNL     1       3.745   2.609  17.832  0.00  0.00    +0.000 C 
ATOM      3  O   UNL     1       4.349   3.488  17.003  0.00  0.00    +0.000 OA
ATOM      4  C   UNL     1       4.173   4.826  17.079  0.00  0.00    +0.000 C 
ATOM      5  O   UNL     1       4.752   5.591  16.316  0.00  0.00    +0.000 OA
ATOM      6  C   UNL     1       3.279   5.370  18.115  0.00  0.00    +0.000 A 
ATOM      7  C   UNL     1       3.109   6.758  18.244  0.00  0.00    +0.000 A 
ATOM      8  C   UNL     1       2.293   7.261  19.255  0.00  0.00    +0.000 A 
ATOM      9  C   UNL     1       1.607   6.389  20.100  0.00  0.00    +0.000 A 
ATOM     10  C   UNL     1       1.772   5.001  19.977  0.00  0.00    +0.000 A 
ATOM     11  C   UNL     1       1.122   4.105  20.839  0.00  0.00    +0.000 A 
ATOM     12  C   UNL     1       1.329   2.731  20.719  0.00  0.00    +0.000 A 
ATOM     13  C   UNL     1       2.186   2.240  19.736  0.00  0.00    +0.000 A 
ATOM     14  C   UNL     1       2.833   3.126  18.864  0.00  0.00    +0.000 A 
ATOM     15  C   UNL     1       2.630   4.495  18.975  0.00  0.00    +0.000 A 
ENDROOT
BRANCH   8  16
ATOM     16  N   UNL     1       2.158   8.665  19.461  0.00  0.00    +0.000 N 
ATOM     17  H   UNL     1       3.015   9.154  19.721  0.00  0.00    +0.000 HD
BRANCH  16  18
ATOM     18  S   UNL     1       1.355   9.562  18.265  0.00  0.00    +0.000 S 
ATOM     19  O   UNL     1       2.348  10.422  17.653  0.00  0.00    +0.000 OA
ATOM     20  O   UNL     1       0.544   8.666  17.473  0.00  0.00    +0.000 OA
BRANCH  18  21
ATOM     21  C   UNL     1       0.203  10.645  19.074  0.00  0.00    +0.000 A 
ATOM     22  C   UNL     1      -0.648  11.625  18.596  0.00  0.00    +0.000 A 
ATOM     23  C   UNL     1      -1.436  12.206  19.631  0.00  0.00    +0.000 A 
ATOM     24  C   UNL     1      -1.151  11.662  20.863  0.00  0.00    +0.000 A 
ATOM     25  S   UNL     1       0.069  10.468  20.771  0.00  0.00    +0.000 S 
ENDBRANCH  18  21
ENDBRANCH  16  18
ENDBRANCH   8  16
TORSDOF 3
ENDMDL
