MODEL 1
REMARK VINA RESULT:      -7.9      0.000      0.000
REMARK  Name = 
REMARK  10 active torsions:
REMARK  status: ('A' for Active; 'I' for Inactive)
REMARK    1  A    between atoms: C_1  and  C_2
REMARK    2  A    between atoms: C_2  and  O_3
REMARK    3  A    between atoms: O_3  and  C_4
REMARK    4  A    between atoms: C_4  and  C_6
REMARK    5  A    between atoms: C_9  and  C_10
REMARK    6  A    between atoms: C_11  and  C_12
REMARK    7  A    between atoms: C_13  and  C_14
REMARK    8  A    between atoms: C_15  and  C_16
REMARK    9  A    between atoms: C_20  and  C_21
REMARK   10  A    between atoms: C_20  and  C_22
REMARK                            x       y       z     vdW  Elec       q    Type
REMARK                         _______ _______ _______ _____ _____    ______ ____
ROOT
ATOM      1  C   UNL     1       7.732   7.759  17.895  0.00  0.00    +0.000 C 
ATOM      2  C   UNL     1       8.246   8.833  18.087  0.00  0.00    +0.000 C 
ENDROOT
BRANCH   1   6
ATOM      3  C   UNL     1       5.632   4.503  17.968  0.00  0.00    +0.000 A 
ATOM      4  C   UNL     1       6.377   4.490  16.800  0.00  0.00    +0.000 A 
ATOM      5  C   UNL     1       7.199   5.652  16.664  0.00  0.00    +0.000 A 
ATOM      6  C   UNL     1       7.049   6.519  17.725  0.00  0.00    +0.000 A 
ATOM      7  S   UNL     1       5.923   5.933  18.865  0.00  0.00    +0.000 S 
BRANCH   3   8
ATOM      8  C   UNL     1       4.748   3.498  18.524  0.00  0.00    +0.000 C 
ATOM      9  O   UNL     1       4.979   2.783  19.493  0.00  0.00    +0.000 OA
BRANCH   8  10
ATOM     10  O   UNL     1       3.644   3.369  17.729  0.00  0.00    +0.000 OA
BRANCH  10  12
ATOM     11  C   UNL     1       1.560   2.478  18.456  0.00  0.00    +0.000 C 
ATOM     12  C   UNL     1       2.928   2.138  17.893  0.00  0.00    +0.000 C 
ENDBRANCH  10  12
ENDBRANCH   8  10
ENDBRANCH   3   8
ENDBRANCH   1   6
BRANCH   2  13
ATOM     13  C   UNL     1       8.783  10.117  18.378  0.00  0.00    +0.000 C 
ATOM     14  C   UNL     1       9.390  10.395  19.542  0.00  0.00    +0.000 C 
BRANCH  14  15
ATOM     15  C   UNL     1       9.930  11.711  19.898  0.00  0.00    +0.000 C 
ATOM     16  C   UNL     1       9.519  12.380  21.006  0.00  0.00    +0.000 C 
ATOM     17  C   UNL     1       8.572  11.841  22.054  0.00  0.00    +0.000 C 
ATOM     18  C   UNL     1      10.005  13.774  21.349  0.00  0.00    +0.000 C 
ATOM     19  C   UNL     1      10.758  14.474  20.228  0.00  0.00    +0.000 C 
ATOM     20  C   UNL     1      11.740  13.510  19.586  0.00  0.00    +0.000 C 
ATOM     21  C   UNL     1      11.030  12.275  18.961  0.00  0.00    +0.000 C 
ATOM     22  C   UNL     1      12.147  11.244  18.677  0.00  0.00    +0.000 C 
ATOM     23  C   UNL     1      10.401  12.692  17.613  0.00  0.00    +0.000 C 
ENDBRANCH  14  15
ENDBRANCH   2  13
TORSDOF 6
ENDMDL
MODEL 2
REMARK VINA RESULT:      -7.8      6.542      8.490
REMARK  Name = 
REMARK  10 active torsions:
REMARK  status: ('A' for Active; 'I' for Inactive)
REMARK    1  A    between atoms: C_1  and  C_2
REMARK    2  A    between atoms: C_2  and  O_3
REMARK    3  A    between atoms: O_3  and  C_4
REMARK    4  A    between atoms: C_4  and  C_6
REMARK    5  A    between atoms: C_9  and  C_10
REMARK    6  A    between atoms: C_11  and  C_12
REMARK    7  A    between atoms: C_13  and  C_14
REMARK    8  A    between atoms: C_15  and  C_16
REMARK    9  A    between atoms: C_20  and  C_21
REMARK   10  A    between atoms: C_20  and  C_22
REMARK                            x       y       z     vdW  Elec       q    Type
REMARK                         _______ _______ _______ _____ _____    ______ ____
ROOT
ATOM      1  C   UNL     1       3.135   7.723  17.700  0.00  0.00    +0.000 C 
ATOM      2  C   UNL     1       2.341   8.614  17.869  0.00  0.00    +0.000 C 
ENDROOT
BRANCH   1   6
ATOM      3  C   UNL     1       5.915   5.100  17.061  0.00  0.00    +0.000 A 
ATOM      4  C   UNL     1       4.846   4.437  17.640  0.00  0.00    +0.000 A 
ATOM      5  C   UNL     1       3.750   5.312  17.922  0.00  0.00    +0.000 A 
ATOM      6  C   UNL     1       4.021   6.613  17.560  0.00  0.00    +0.000 A 
ATOM      7  S   UNL     1       5.583   6.772  16.893  0.00  0.00    +0.000 S 
BRANCH   3   8
ATOM      8  C   UNL     1       7.170   4.583  16.550  0.00  0.00    +0.000 C 
ATOM      9  O   UNL     1       8.115   4.179  17.220  0.00  0.00    +0.000 OA
BRANCH   8  10
ATOM     10  O   UNL     1       7.203   4.722  15.191  0.00  0.00    +0.000 OA
BRANCH  10  12
ATOM     11  C   UNL     1       6.637   3.890  13.034  0.00  0.00    +0.000 C 
ATOM     12  C   UNL     1       6.208   3.966  14.488  0.00  0.00    +0.000 C 
ENDBRANCH  10  12
ENDBRANCH   8  10
ENDBRANCH   3   8
ENDBRANCH   1   6
BRANCH   2  13
ATOM     13  C   UNL     1       1.364   9.611  18.139  0.00  0.00    +0.000 C 
ATOM     14  C   UNL     1       0.524   9.531  19.182  0.00  0.00    +0.000 C 
BRANCH  14  15
ATOM     15  C   UNL     1      -0.518  10.518  19.481  0.00  0.00    +0.000 C 
ATOM     16  C   UNL     1      -1.547  10.757  18.628  0.00  0.00    +0.000 C 
ATOM     17  C   UNL     1      -1.824   9.991  17.354  0.00  0.00    +0.000 C 
ATOM     18  C   UNL     1      -2.590  11.828  18.880  0.00  0.00    +0.000 C 
ATOM     19  C   UNL     1      -2.243  12.796  20.001  0.00  0.00    +0.000 C 
ATOM     20  C   UNL     1      -1.700  12.028  21.194  0.00  0.00    +0.000 C 
ATOM     21  C   UNL     1      -0.403  11.243  20.848  0.00  0.00    +0.000 C 
ATOM     22  C   UNL     1      -0.180  10.258  22.019  0.00  0.00    +0.000 C 
ATOM     23  C   UNL     1       0.784  12.231  20.814  0.00  0.00    +0.000 C 
ENDBRANCH  14  15
ENDBRANCH   2  13
TORSDOF 6
ENDMDL
MODEL 3
REMARK VINA RESULT:      -7.6      1.538      2.233
REMARK  Name = 
REMARK  10 active torsions:
REMARK  status: ('A' for Active; 'I' for Inactive)
REMARK    1  A    between atoms: C_1  and  C_2
REMARK    2  A    between atoms: C_2  and  O_3
REMARK    3  A    between atoms: O_3  and  C_4
REMARK    4  A    between atoms: C_4  and  C_6
REMARK    5  A    between atoms: C_9  and  C_10
REMARK    6  A    between atoms: C_11  and  C_12
REMARK    7  A    between atoms: C_13  and  C_14
REMARK    8  A    between atoms: C_15  and  C_16
REMARK    9  A    between atoms: C_20  and  C_21
REMARK   10  A    between atoms: C_20  and  C_22
REMARK                            x       y       z     vdW  Elec       q    Type
REMARK                         _______ _______ _______ _____ _____    ______ ____
ROOT
ATOM      1  C   UNL     1       7.826   8.233  17.930  0.00  0.00    +0.000 C 
ATOM      2  C   UNL     1       8.321   9.311  18.149  0.00  0.00    +0.000 C 
ENDROOT
BRANCH   1   6
ATOM      3  C   UNL     1       6.037   4.940  16.948  0.00  0.00    +0.000 A 
ATOM      4  C   UNL     1       7.127   4.601  17.732  0.00  0.00    +0.000 A 
ATOM      5  C   UNL     1       7.869   5.746  18.159  0.00  0.00    +0.000 A 
ATOM      6  C   UNL     1       7.330   6.920  17.679  0.00  0.00    +0.000 A 
ATOM      7  S   UNL     1       5.947   6.636  16.721  0.00  0.00    +0.000 S 
BRANCH   3   8
ATOM      8  C   UNL     1       4.993   4.104  16.387  0.00  0.00    +0.000 C 
ATOM      9  O   UNL     1       4.241   3.364  17.011  0.00  0.00    +0.000 OA
BRANCH   8  10
ATOM     10  O   UNL     1       5.043   4.164  15.022  0.00  0.00    +0.000 OA
BRANCH  10  12
ATOM     11  C   UNL     1       6.116   3.660  12.958  0.00  0.00    +0.000 C 
ATOM     12  C   UNL     1       6.315   3.823  14.454  0.00  0.00    +0.000 C 
ENDBRANCH  10  12
ENDBRANCH   8  10
ENDBRANCH   3   8
ENDBRANCH   1   6
BRANCH   2  13
ATOM     13  C   UNL     1       8.992  10.539  18.397  0.00  0.00    +0.000 C 
ATOM     14  C   UNL     1       9.462  10.870  19.610  0.00  0.00    +0.000 C 
BRANCH  14  15
ATOM     15  C   UNL     1      10.131  12.136  19.920  0.00  0.00    +0.000 C 
ATOM     16  C   UNL     1       9.754  12.909  20.972  0.00  0.00    +0.000 C 
ATOM     17  C   UNL     1       8.713  12.538  22.003  0.00  0.00    +0.000 C 
ATOM     18  C   UNL     1      10.379  14.259  21.263  0.00  0.00    +0.000 C 
ATOM     19  C   UNL     1      11.248  14.808  20.141  0.00  0.00    +0.000 C 
ATOM     20  C   UNL     1      12.141  13.706  19.596  0.00  0.00    +0.000 C 
ATOM     21  C   UNL     1      11.323  12.523  19.006  0.00  0.00    +0.000 C 
ATOM     22  C   UNL     1      12.328  11.361  18.827  0.00  0.00    +0.000 C 
ATOM     23  C   UNL     1      10.798  12.927  17.611  0.00  0.00    +0.000 C 
ENDBRANCH  14  15
ENDBRANCH   2  13
TORSDOF 6
ENDMDL
MODEL 4
REMARK VINA RESULT:      -7.5      1.201      1.860
REMARK  Name = 
REMARK  10 active torsions:
REMARK  status: ('A' for Active; 'I' for Inactive)
REMARK    1  A    between atoms: C_1  and  C_2
REMARK    2  A    between atoms: C_2  and  O_3
REMARK    3  A    between atoms: O_3  and  C_4
REMARK    4  A    between atoms: C_4  and  C_6
REMARK    5  A    between atoms: C_9  and  C_10
REMARK    6  A    between atoms: C_11  and  C_12
REMARK    7  A    between atoms: C_13  and  C_14
REMARK    8  A    between atoms: C_15  and  C_16
REMARK    9  A    between atoms: C_20  and  C_21
REMARK   10  A    between atoms: C_20  and  C_22
REMARK                            x       y       z     vdW  Elec       q    Type
REMARK                         _______ _______ _______ _____ _____    ______ ____
ROOT
ATOM      1  C   UNL     1       7.454   7.848  17.733  0.00  0.00    +0.000 C 
ATOM      2  C   UNL     1       8.168   8.815  17.818  0.00  0.00    +0.000 C 
ENDROOT
BRANCH   1   6
ATOM      3  C   UNL     1       5.192   4.715  18.016  0.00  0.00    +0.000 A 
ATOM      4  C   UNL     1       4.874   5.348  16.826  0.00  0.00    +0.000 A 
ATOM      5  C   UNL     1       5.654   6.527  16.611  0.00  0.00    +0.000 A 
ATOM      6  C   UNL     1       6.532   6.763  17.647  0.00  0.00    +0.000 A 
ATOM      7  S   UNL     1       6.409   5.573  18.863  0.00  0.00    +0.000 S 
BRANCH   3   8
ATOM      8  C   UNL     1       4.706   3.465  18.568  0.00  0.00    +0.000 C 
ATOM      9  O   UNL     1       4.994   2.993  19.663  0.00  0.00    +0.000 OA
BRANCH   8  10
ATOM     10  O   UNL     1       3.957   2.811  17.630  0.00  0.00    +0.000 OA
BRANCH  10  12
ATOM     11  C   UNL     1       1.686   3.306  18.140  0.00  0.00    +0.000 C 
ATOM     12  C   UNL     1       2.750   2.223  18.132  0.00  0.00    +0.000 C 
ENDBRANCH  10  12
ENDBRANCH   8  10
ENDBRANCH   3   8
ENDBRANCH   1   6
BRANCH   2  13
ATOM     13  C   UNL     1       8.933  10.007  17.946  0.00  0.00    +0.000 C 
ATOM     14  C   UNL     1       8.514  11.056  18.671  0.00  0.00    +0.000 C 
BRANCH  14  15
ATOM     15  C   UNL     1       9.253  12.315  18.806  0.00  0.00    +0.000 C 
ATOM     16  C   UNL     1       8.877  13.443  18.150  0.00  0.00    +0.000 C 
ATOM     17  C   UNL     1       7.627  13.593  17.312  0.00  0.00    +0.000 C 
ATOM     18  C   UNL     1       9.671  14.732  18.212  0.00  0.00    +0.000 C 
ATOM     19  C   UNL     1      11.056  14.591  18.825  0.00  0.00    +0.000 C 
ATOM     20  C   UNL     1      10.981  13.732  20.076  0.00  0.00    +0.000 C 
ATOM     21  C   UNL     1      10.464  12.297  19.775  0.00  0.00    +0.000 C 
ATOM     22  C   UNL     1      10.110  11.679  21.148  0.00  0.00    +0.000 C 
ATOM     23  C   UNL     1      11.614  11.473  19.155  0.00  0.00    +0.000 C 
ENDBRANCH  14  15
ENDBRANCH   2  13
TORSDOF 6
ENDMDL
MODEL 5
REMARK VINA RESULT:      -7.5      1.954      3.064
REMARK  Name = 
REMARK  10 active torsions:
REMARK  status: ('A' for Active; 'I' for Inactive)
REMARK    1  A    between atoms: C_1  and  C_2
REMARK    2  A    between atoms: C_2  and  O_3
REMARK    3  A    between atoms: O_3  and  C_4
REMARK    4  A    between atoms: C_4  and  C_6
REMARK    5  A    between atoms: C_9  and  C_10
REMARK    6  A    between atoms: C_11  and  C_12
REMARK    7  A    between atoms: C_13  and  C_14
REMARK    8  A    between atoms: C_15  and  C_16
REMARK    9  A    between atoms: C_20  and  C_21
REMARK   10  A    between atoms: C_20  and  C_22
REMARK                            x       y       z     vdW  Elec       q    Type
REMARK                         _______ _______ _______ _____ _____    ______ ____
ROOT
ATOM      1  C   UNL     1       8.231   8.635  18.146  0.00  0.00    +0.000 C 
ATOM      2  C   UNL     1       8.698   9.738  18.284  0.00  0.00    +0.000 C 
ENDROOT
BRANCH   1   6
ATOM      3  C   UNL     1       6.122   5.461  17.442  0.00  0.00    +0.000 A 
ATOM      4  C   UNL     1       7.106   5.111  18.353  0.00  0.00    +0.000 A 
ATOM      5  C   UNL     1       7.951   6.213  18.692  0.00  0.00    +0.000 A 
ATOM      6  C   UNL     1       7.595   7.364  18.023  0.00  0.00    +0.000 A 
ATOM      7  S   UNL     1       6.258   7.110  16.996  0.00  0.00    +0.000 S 
BRANCH   3   8
ATOM      8  C   UNL     1       5.025   4.680  16.906  0.00  0.00    +0.000 C 
ATOM      9  O   UNL     1       5.013   4.085  15.834  0.00  0.00    +0.000 OA
BRANCH   8  10
ATOM     10  O   UNL     1       3.935   4.799  17.723  0.00  0.00    +0.000 OA
BRANCH  10  12
ATOM     11  C   UNL     1       1.622   4.239  17.703  0.00  0.00    +0.000 C 
ATOM     12  C   UNL     1       3.036   3.684  17.687  0.00  0.00    +0.000 C 
ENDBRANCH  10  12
ENDBRANCH   8  10
ENDBRANCH   3   8
ENDBRANCH   1   6
BRANCH   2  13
ATOM     13  C   UNL     1       9.171  11.061  18.499  0.00  0.00    +0.000 C 
ATOM     14  C   UNL     1       8.788  12.095  17.733  0.00  0.00    +0.000 C 
BRANCH  14  15
ATOM     15  C   UNL     1       9.272  13.469  17.897  0.00  0.00    +0.000 C 
ATOM     16  C   UNL     1      10.527  13.837  17.530  0.00  0.00    +0.000 C 
ATOM     17  C   UNL     1      11.527  12.952  16.821  0.00  0.00    +0.000 C 
ATOM     18  C   UNL     1      11.074  15.231  17.765  0.00  0.00    +0.000 C 
ATOM     19  C   UNL     1      10.228  16.095  18.687  0.00  0.00    +0.000 C 
ATOM     20  C   UNL     1       8.760  15.952  18.323  0.00  0.00    +0.000 C 
ATOM     21  C   UNL     1       8.255  14.489  18.474  0.00  0.00    +0.000 C 
ATOM     22  C   UNL     1       6.892  14.434  17.746  0.00  0.00    +0.000 C 
ATOM     23  C   UNL     1       8.018  14.195  19.971  0.00  0.00    +0.000 C 
ENDBRANCH  14  15
ENDBRANCH   2  13
TORSDOF 6
ENDMDL
MODEL 6
REMARK VINA RESULT:      -7.3      1.581      2.409
REMARK  Name = 
REMARK  10 active torsions:
REMARK  status: ('A' for Active; 'I' for Inactive)
REMARK    1  A    between atoms: C_1  and  C_2
REMARK    2  A    between atoms: C_2  and  O_3
REMARK    3  A    between atoms: O_3  and  C_4
REMARK    4  A    between atoms: C_4  and  C_6
REMARK    5  A    between atoms: C_9  and  C_10
REMARK    6  A    between atoms: C_11  and  C_12
REMARK    7  A    between atoms: C_13  and  C_14
REMARK    8  A    between atoms: C_15  and  C_16
REMARK    9  A    between atoms: C_20  and  C_21
REMARK   10  A    between atoms: C_20  and  C_22
REMARK                            x       y       z     vdW  Elec       q    Type
REMARK                         _______ _______ _______ _____ _____    ______ ____
ROOT
ATOM      1  C   UNL     1       8.103   8.349  18.149  0.00  0.00    +0.000 C 
ATOM      2  C   UNL     1       8.662   9.414  18.239  0.00  0.00    +0.000 C 
ENDROOT
BRANCH   1   6
ATOM      3  C   UNL     1       6.030   5.202  17.248  0.00  0.00    +0.000 A 
ATOM      4  C   UNL     1       6.995   4.815  18.164  0.00  0.00    +0.000 A 
ATOM      5  C   UNL     1       7.826   5.903  18.574  0.00  0.00    +0.000 A 
ATOM      6  C   UNL     1       7.478   7.083  17.952  0.00  0.00    +0.000 A 
ATOM      7  S   UNL     1       6.166   6.870  16.883  0.00  0.00    +0.000 S 
BRANCH   3   8
ATOM      8  C   UNL     1       4.950   4.442  16.651  0.00  0.00    +0.000 C 
ATOM      9  O   UNL     1       5.052   3.628  15.739  0.00  0.00    +0.000 OA
BRANCH   8  10
ATOM     10  O   UNL     1       3.756   4.854  17.174  0.00  0.00    +0.000 OA
BRANCH  10  12
ATOM     11  C   UNL     1       1.572   4.112  17.761  0.00  0.00    +0.000 C 
ATOM     12  C   UNL     1       3.059   3.856  17.931  0.00  0.00    +0.000 C 
ENDBRANCH  10  12
ENDBRANCH   8  10
ENDBRANCH   3   8
ENDBRANCH   1   6
BRANCH   2  13
ATOM     13  C   UNL     1       9.340  10.664  18.251  0.00  0.00    +0.000 C 
ATOM     14  C   UNL     1       9.339  11.472  19.322  0.00  0.00    +0.000 C 
BRANCH  14  15
ATOM     15  C   UNL     1       9.997  12.781  19.369  0.00  0.00    +0.000 C 
ATOM     16  C   UNL     1      11.344  12.904  19.494  0.00  0.00    +0.000 C 
ATOM     17  C   UNL     1      12.332  11.760  19.485  0.00  0.00    +0.000 C 
ATOM     18  C   UNL     1      12.037  14.246  19.625  0.00  0.00    +0.000 C 
ATOM     19  C   UNL     1      11.102  15.416  19.891  0.00  0.00    +0.000 C 
ATOM     20  C   UNL     1       9.887  15.321  18.983  0.00  0.00    +0.000 C 
ATOM     21  C   UNL     1       9.072  14.018  19.224  0.00  0.00    +0.000 C 
ATOM     22  C   UNL     1       8.108  13.894  18.022  0.00  0.00    +0.000 C 
ATOM     23  C   UNL     1       8.228  14.189  20.506  0.00  0.00    +0.000 C 
ENDBRANCH  14  15
ENDBRANCH   2  13
TORSDOF 6
ENDMDL
MODEL 7
REMARK VINA RESULT:      -7.3      1.323      2.099
REMARK  Name = 
REMARK  10 active torsions:
REMARK  status: ('A' for Active; 'I' for Inactive)
REMARK    1  A    between atoms: C_1  and  C_2
REMARK    2  A    between atoms: C_2  and  O_3
REMARK    3  A    between atoms: O_3  and  C_4
REMARK    4  A    between atoms: C_4  and  C_6
REMARK    5  A    between atoms: C_9  and  C_10
REMARK    6  A    between atoms: C_11  and  C_12
REMARK    7  A    between atoms: C_13  and  C_14
REMARK    8  A    between atoms: C_15  and  C_16
REMARK    9  A    between atoms: C_20  and  C_21
REMARK   10  A    between atoms: C_20  and  C_22
REMARK                            x       y       z     vdW  Elec       q    Type
REMARK                         _______ _______ _______ _____ _____    ______ ____
ROOT
ATOM      1  C   UNL     1       7.618   7.657  17.831  0.00  0.00    +0.000 C 
ATOM      2  C   UNL     1       8.188   8.719  17.790  0.00  0.00    +0.000 C 
ENDROOT
BRANCH   1   6
ATOM      3  C   UNL     1       5.084   4.726  17.846  0.00  0.00    +0.000 A 
ATOM      4  C   UNL     1       6.350   4.180  17.984  0.00  0.00    +0.000 A 
ATOM      5  C   UNL     1       7.375   5.176  17.993  0.00  0.00    +0.000 A 
ATOM      6  C   UNL     1       6.863   6.447  17.851  0.00  0.00    +0.000 A 
ATOM      7  S   UNL     1       5.163   6.431  17.705  0.00  0.00    +0.000 S 
BRANCH   3   8
ATOM      8  C   UNL     1       3.783   4.087  17.873  0.00  0.00    +0.000 C 
ATOM      9  O   UNL     1       3.322   3.343  17.014  0.00  0.00    +0.000 OA
BRANCH   8  10
ATOM     10  O   UNL     1       3.076   4.532  18.955  0.00  0.00    +0.000 OA
BRANCH  10  12
ATOM     11  C   UNL     1       1.027   3.752  19.882  0.00  0.00    +0.000 C 
ATOM     12  C   UNL     1       2.520   3.495  19.774  0.00  0.00    +0.000 C 
ENDBRANCH  10  12
ENDBRANCH   8  10
ENDBRANCH   3   8
ENDBRANCH   1   6
BRANCH   2  13
ATOM     13  C   UNL     1       8.772  10.013  17.729  0.00  0.00    +0.000 C 
ATOM     14  C   UNL     1       8.942  10.778  18.819  0.00  0.00    +0.000 C 
BRANCH  14  15
ATOM     15  C   UNL     1       9.511  12.129  18.800  0.00  0.00    +0.000 C 
ATOM     16  C   UNL     1       9.004  13.111  18.011  0.00  0.00    +0.000 C 
ATOM     17  C   UNL     1       7.759  12.996  17.160  0.00  0.00    +0.000 C 
ATOM     18  C   UNL     1       9.625  14.490  17.917  0.00  0.00    +0.000 C 
ATOM     19  C   UNL     1      11.007  14.604  18.543  0.00  0.00    +0.000 C 
ATOM     20  C   UNL     1      11.021  13.901  19.890  0.00  0.00    +0.000 C 
ATOM     21  C   UNL     1      10.698  12.385  19.766  0.00  0.00    +0.000 C 
ATOM     22  C   UNL     1      10.402  11.897  21.203  0.00  0.00    +0.000 C 
ATOM     23  C   UNL     1      11.954  11.648  19.252  0.00  0.00    +0.000 C 
ENDBRANCH  14  15
ENDBRANCH   2  13
TORSDOF 6
ENDMDL
MODEL 8
REMARK VINA RESULT:      -7.3      2.373      3.669
REMARK  Name = 
REMARK  10 active torsions:
REMARK  status: ('A' for Active; 'I' for Inactive)
REMARK    1  A    between atoms: C_1  and  C_2
REMARK    2  A    between atoms: C_2  and  O_3
REMARK    3  A    between atoms: O_3  and  C_4
REMARK    4  A    between atoms: C_4  and  C_6
REMARK    5  A    between atoms: C_9  and  C_10
REMARK    6  A    between atoms: C_11  and  C_12
REMARK    7  A    between atoms: C_13  and  C_14
REMARK    8  A    between atoms: C_15  and  C_16
REMARK    9  A    between atoms: C_20  and  C_21
REMARK   10  A    between atoms: C_20  and  C_22
REMARK                            x       y       z     vdW  Elec       q    Type
REMARK                         _______ _______ _______ _____ _____    ______ ____
ROOT
ATOM      1  C   UNL     1       8.271   8.678  18.331  0.00  0.00    +0.000 C 
ATOM      2  C   UNL     1       8.702   9.790  18.509  0.00  0.00    +0.000 C 
ENDROOT
BRANCH   1   6
ATOM      3  C   UNL     1       6.775   5.330  17.079  0.00  0.00    +0.000 A 
ATOM      4  C   UNL     1       7.462   5.064  18.253  0.00  0.00    +0.000 A 
ATOM      5  C   UNL     1       8.059   6.236  18.813  0.00  0.00    +0.000 A 
ATOM      6  C   UNL     1       7.822   7.355  18.045  0.00  0.00    +0.000 A 
ATOM      7  S   UNL     1       6.890   6.988  16.663  0.00  0.00    +0.000 S 
BRANCH   3   8
ATOM      8  C   UNL     1       5.970   4.456  16.249  0.00  0.00    +0.000 C 
ATOM      9  O   UNL     1       4.805   4.132  16.452  0.00  0.00    +0.000 OA
BRANCH   8  10
ATOM     10  O   UNL     1       6.743   3.934  15.249  0.00  0.00    +0.000 OA
BRANCH  10  12
ATOM     11  C   UNL     1       5.973   3.545  13.031  0.00  0.00    +0.000 C 
ATOM     12  C   UNL     1       6.579   4.569  13.974  0.00  0.00    +0.000 C 
ENDBRANCH  10  12
ENDBRANCH   8  10
ENDBRANCH   3   8
ENDBRANCH   1   6
BRANCH   2  13
ATOM     13  C   UNL     1       9.256  11.093  18.633  0.00  0.00    +0.000 C 
ATOM     14  C   UNL     1       8.887  12.111  17.840  0.00  0.00    +0.000 C 
BRANCH  14  15
ATOM     15  C   UNL     1       9.452  13.461  17.911  0.00  0.00    +0.000 C 
ATOM     16  C   UNL     1      10.726  13.728  17.520  0.00  0.00    +0.000 C 
ATOM     17  C   UNL     1      11.668  12.740  16.873  0.00  0.00    +0.000 C 
ATOM     18  C   UNL     1      11.356  15.100  17.660  0.00  0.00    +0.000 C 
ATOM     19  C   UNL     1      10.565  16.073  18.521  0.00  0.00    +0.000 C 
ATOM     20  C   UNL     1       9.090  15.994  18.166  0.00  0.00    +0.000 C 
ATOM     21  C   UNL     1       8.500  14.577  18.416  0.00  0.00    +0.000 C 
ATOM     22  C   UNL     1       7.133  14.555  17.693  0.00  0.00    +0.000 C 
ATOM     23  C   UNL     1       8.250  14.401  19.930  0.00  0.00    +0.000 C 
ENDBRANCH  14  15
ENDBRANCH   2  13
TORSDOF 6
ENDMDL
MODEL 9
REMARK VINA RESULT:      -7.3      6.337      7.913
REMARK  Name = 
REMARK  10 active torsions:
REMARK  status: ('A' for Active; 'I' for Inactive)
REMARK    1  A    between atoms: C_1  and  C_2
REMARK    2  A    between atoms: C_2  and  O_3
REMARK    3  A    between atoms: O_3  and  C_4
REMARK    4  A    between atoms: C_4  and  C_6
REMARK    5  A    between atoms: C_9  and  C_10
REMARK    6  A    between atoms: C_11  and  C_12
REMARK    7  A    between atoms: C_13  and  C_14
REMARK    8  A    between atoms: C_15  and  C_16
REMARK    9  A    between atoms: C_20  and  C_21
REMARK   10  A    between atoms: C_20  and  C_22
REMARK                            x       y       z     vdW  Elec       q    Type
REMARK                         _______ _______ _______ _____ _____    ______ ____
ROOT
ATOM      1  C   UNL     1       3.017   7.500  17.735  0.00  0.00    +0.000 C 
ATOM      2  C   UNL     1       2.273   8.445  17.811  0.00  0.00    +0.000 C 
ENDROOT
BRANCH   1   6
ATOM      3  C   UNL     1       5.949   5.025  17.192  0.00  0.00    +0.000 A 
ATOM      4  C   UNL     1       4.952   4.344  17.871  0.00  0.00    +0.000 A 
ATOM      5  C   UNL     1       3.809   5.163  18.127  0.00  0.00    +0.000 A 
ATOM      6  C   UNL     1       3.973   6.445  17.648  0.00  0.00    +0.000 A 
ATOM      7  S   UNL     1       5.493   6.651  16.902  0.00  0.00    +0.000 S 
BRANCH   3   8
ATOM      8  C   UNL     1       7.217   4.552  16.672  0.00  0.00    +0.000 C 
ATOM      9  O   UNL     1       8.181   4.183  17.334  0.00  0.00    +0.000 OA
BRANCH   8  10
ATOM     10  O   UNL     1       7.233   4.689  15.312  0.00  0.00    +0.000 OA
BRANCH  10  12
ATOM     11  C   UNL     1       6.617   3.927  13.143  0.00  0.00    +0.000 C 
ATOM     12  C   UNL     1       6.263   3.892  14.619  0.00  0.00    +0.000 C 
ENDBRANCH  10  12
ENDBRANCH   8  10
ENDBRANCH   3   8
ENDBRANCH   1   6
BRANCH   2  13
ATOM     13  C   UNL     1       1.472   9.617  17.888  0.00  0.00    +0.000 C 
ATOM     14  C   UNL     1       1.480  10.424  18.961  0.00  0.00    +0.000 C 
BRANCH  14  15
ATOM     15  C   UNL     1       0.649  11.624  19.099  0.00  0.00    +0.000 C 
ATOM     16  C   UNL     1       1.113  12.859  18.776  0.00  0.00    +0.000 C 
ATOM     17  C   UNL     1       2.454  13.153  18.144  0.00  0.00    +0.000 C 
ATOM     18  C   UNL     1       0.300  14.121  18.986  0.00  0.00    +0.000 C 
ATOM     19  C   UNL     1      -0.946  13.935  19.838  0.00  0.00    +0.000 C 
ATOM     20  C   UNL     1      -1.677  12.673  19.413  0.00  0.00    +0.000 C 
ATOM     21  C   UNL     1      -0.804  11.398  19.592  0.00  0.00    +0.000 C 
ATOM     22  C   UNL     1      -1.524  10.278  18.807  0.00  0.00    +0.000 C 
ATOM     23  C   UNL     1      -0.790  11.010  21.087  0.00  0.00    +0.000 C 
ENDBRANCH  14  15
ENDBRANCH   2  13
TORSDOF 6
ENDMDL
