MODEL 1
REMARK VINA RESULT:      -9.3      0.000      0.000
REMARK  Name = 
REMARK  10 active torsions:
REMARK  status: ('A' for Active; 'I' for Inactive)
REMARK    1  A    between atoms: C_1  and  C_2
REMARK    2  A    between atoms: C_6  and  C_7
REMARK    3  A    between atoms: C_8  and  N_9
REMARK    4  A    between atoms: C_11  and  C_12
REMARK    5  A    between atoms: C_11  and  N_29
REMARK    6  A    between atoms: N_14  and  C_15
REMARK    7  A    between atoms: C_17  and  C_18
REMARK    8  A    between atoms: C_23  and  C_24
REMARK    9  A    between atoms: N_29  and  C_30
REMARK   10  A    between atoms: N_29  and  C_31
REMARK                            x       y       z     vdW  Elec       q    Type
REMARK                         _______ _______ _______ _____ _____    ______ ____
ROOT
ATOM      1  C   UNL     1       1.595   9.190  18.415  0.00  0.00    +0.000 C 
ATOM      2  O   UNL     1       1.934   9.251  17.230  0.00  0.00    +0.000 OA
ATOM      3  N   UNL     1       1.878   8.086  19.223  0.00  0.00    +0.000 N 
ATOM      4  H   UNL     1       1.229   7.903  19.978  0.00  0.00    +0.000 HD
ENDROOT
BRANCH   1   7
ATOM      5  N   UNL     1      -1.322  11.434  18.634  0.00  0.00    +0.000 N 
ATOM      6  C   UNL     1      -0.737  10.116  18.544  0.00  0.00    +0.000 C 
ATOM      7  C   UNL     1       0.730  10.314  19.049  0.00  0.00    +0.000 C 
ATOM      8  C   UNL     1       1.002  11.694  18.421  0.00  0.00    +0.000 C 
ATOM      9  C   UNL     1      -0.337  12.396  18.470  0.00  0.00    +0.000 C 
ATOM     10  O   UNL     1      -0.463  13.608  18.357  0.00  0.00    +0.000 OA
BRANCH   5  18
ATOM     11  C   UNL     1      -2.911  12.538  20.827  0.00  0.00    +0.000 C 
ATOM     12  C   UNL     1      -3.498  12.150  19.497  0.00  0.00    +0.000 A 
ATOM     13  C   UNL     1      -4.875  12.364  19.308  0.00  0.00    +0.000 A 
ATOM     14  C   UNL     1      -5.477  12.107  18.083  0.00  0.00    +0.000 A 
ATOM     15  C   UNL     1      -4.710  11.618  17.032  0.00  0.00    +0.000 A 
ATOM     16  C   UNL     1      -3.332  11.366  17.190  0.00  0.00    +0.000 A 
ATOM     17  C   UNL     1      -2.600  10.776  16.016  0.00  0.00    +0.000 C 
ATOM     18  C   UNL     1      -2.714  11.643  18.432  0.00  0.00    +0.000 A 
ENDBRANCH   5  18
BRANCH   7  19
ATOM     19  N   UNL     1       0.827  10.336  20.553  0.00  0.00    +0.000 NA
ATOM     20  C   UNL     1       1.162  11.646  21.121  0.00  0.00    +0.000 C 
ATOM     21  C   UNL     1      -0.297   9.766  21.292  0.00  0.00    +0.000 C 
ENDBRANCH   7  19
ENDBRANCH   1   7
BRANCH   3  22
ATOM     22  C   UNL     1       2.551   6.966  18.680  0.00  0.00    +0.000 A 
ATOM     23  C   UNL     1       3.669   7.153  17.859  0.00  0.00    +0.000 A 
ATOM     24  C   UNL     1       4.284   6.065  17.224  0.00  0.00    +0.000 A 
ATOM     25  C   UNL     1       3.751   4.782  17.410  0.00  0.00    +0.000 A 
ATOM     26  C   UNL     1       2.639   4.573  18.251  0.00  0.00    +0.000 A 
ATOM     27  C   UNL     1       2.074   5.676  18.920  0.00  0.00    +0.000 A 
BRANCH  24  28
ATOM     28  C   UNL     1       5.479   6.272  16.323  0.00  0.00    +0.000 C 
ATOM     29  F   UNL     1       5.150   6.609  15.045  0.00  0.00    +0.000 F 
ATOM     30  F   UNL     1       6.295   7.267  16.770  0.00  0.00    +0.000 F 
ATOM     31  F   UNL     1       6.259   5.161  16.232  0.00  0.00    +0.000 F 
ENDBRANCH  24  28
BRANCH  26  32
ATOM     32  C   UNL     1       2.027   3.198  18.385  0.00  0.00    +0.000 C 
ATOM     33  F   UNL     1       0.666   3.203  18.390  0.00  0.00    +0.000 F 
ATOM     34  F   UNL     1       2.395   2.364  17.375  0.00  0.00    +0.000 F 
ATOM     35  F   UNL     1       2.402   2.578  19.538  0.00  0.00    +0.000 F 
ENDBRANCH  26  32
ENDBRANCH   3  22
TORSDOF 6
ENDMDL
MODEL 2
REMARK VINA RESULT:      -9.3      0.477      1.089
REMARK  Name = 
REMARK  10 active torsions:
REMARK  status: ('A' for Active; 'I' for Inactive)
REMARK    1  A    between atoms: C_1  and  C_2
REMARK    2  A    between atoms: C_6  and  C_7
REMARK    3  A    between atoms: C_8  and  N_9
REMARK    4  A    between atoms: C_11  and  C_12
REMARK    5  A    between atoms: C_11  and  N_29
REMARK    6  A    between atoms: N_14  and  C_15
REMARK    7  A    between atoms: C_17  and  C_18
REMARK    8  A    between atoms: C_23  and  C_24
REMARK    9  A    between atoms: N_29  and  C_30
REMARK   10  A    between atoms: N_29  and  C_31
REMARK                            x       y       z     vdW  Elec       q    Type
REMARK                         _______ _______ _______ _____ _____    ______ ____
ROOT
ATOM      1  C   UNL     1       1.507   9.213  18.491  0.00  0.00    +0.000 C 
ATOM      2  O   UNL     1       1.737   9.169  17.279  0.00  0.00    +0.000 OA
ATOM      3  N   UNL     1       1.883   8.192  19.367  0.00  0.00    +0.000 N 
ATOM      4  H   UNL     1       1.308   8.071  20.190  0.00  0.00    +0.000 HD
ENDROOT
BRANCH   1   7
ATOM      5  N   UNL     1      -1.371  11.508  18.693  0.00  0.00    +0.000 N 
ATOM      6  C   UNL     1      -0.807  10.180  18.650  0.00  0.00    +0.000 C 
ATOM      7  C   UNL     1       0.678  10.380  19.096  0.00  0.00    +0.000 C 
ATOM      8  C   UNL     1       0.947  11.723  18.392  0.00  0.00    +0.000 C 
ATOM      9  C   UNL     1      -0.380  12.447  18.450  0.00  0.00    +0.000 C 
ATOM     10  O   UNL     1      -0.493  13.654  18.281  0.00  0.00    +0.000 OA
BRANCH   5  18
ATOM     11  C   UNL     1      -2.898  12.615  20.930  0.00  0.00    +0.000 C 
ATOM     12  C   UNL     1      -3.520  12.237  19.613  0.00  0.00    +0.000 A 
ATOM     13  C   UNL     1      -4.900  12.461  19.460  0.00  0.00    +0.000 A 
ATOM     14  C   UNL     1      -5.534  12.213  18.249  0.00  0.00    +0.000 A 
ATOM     15  C   UNL     1      -4.796  11.723  17.177  0.00  0.00    +0.000 A 
ATOM     16  C   UNL     1      -3.417  11.460  17.300  0.00  0.00    +0.000 A 
ATOM     17  C   UNL     1      -2.719  10.870  16.106  0.00  0.00    +0.000 C 
ATOM     18  C   UNL     1      -2.766  11.728  18.527  0.00  0.00    +0.000 A 
ENDBRANCH   5  18
BRANCH   7  19
ATOM     19  N   UNL     1       0.825  10.474  20.593  0.00  0.00    +0.000 NA
ATOM     20  C   UNL     1       1.212  11.801  21.083  0.00  0.00    +0.000 C 
ATOM     21  C   UNL     1      -0.287   9.971  21.396  0.00  0.00    +0.000 C 
ENDBRANCH   7  19
ENDBRANCH   1   7
BRANCH   3  22
ATOM     22  C   UNL     1       2.529   7.035  18.868  0.00  0.00    +0.000 A 
ATOM     23  C   UNL     1       3.529   7.157  17.897  0.00  0.00    +0.000 A 
ATOM     24  C   UNL     1       4.105   6.020  17.312  0.00  0.00    +0.000 A 
ATOM     25  C   UNL     1       3.649   4.753  17.702  0.00  0.00    +0.000 A 
ATOM     26  C   UNL     1       2.658   4.612  18.694  0.00  0.00    +0.000 A 
ATOM     27  C   UNL     1       2.136   5.769  19.305  0.00  0.00    +0.000 A 
BRANCH  24  28
ATOM     28  C   UNL     1       5.171   6.155  16.251  0.00  0.00    +0.000 C 
ATOM     29  F   UNL     1       6.386   6.526  16.739  0.00  0.00    +0.000 F 
ATOM     30  F   UNL     1       5.381   4.988  15.580  0.00  0.00    +0.000 F 
ATOM     31  F   UNL     1       4.847   7.078  15.303  0.00  0.00    +0.000 F 
ENDBRANCH  24  28
BRANCH  26  32
ATOM     32  C   UNL     1       2.122   3.247  19.054  0.00  0.00    +0.000 C 
ATOM     33  F   UNL     1       3.075   2.383  19.498  0.00  0.00    +0.000 F 
ATOM     34  F   UNL     1       1.179   3.300  20.034  0.00  0.00    +0.000 F 
ATOM     35  F   UNL     1       1.526   2.631  17.995  0.00  0.00    +0.000 F 
ENDBRANCH  26  32
ENDBRANCH   3  22
TORSDOF 6
ENDMDL
MODEL 3
REMARK VINA RESULT:      -9.2      0.350      1.698
REMARK  Name = 
REMARK  10 active torsions:
REMARK  status: ('A' for Active; 'I' for Inactive)
REMARK    1  A    between atoms: C_1  and  C_2
REMARK    2  A    between atoms: C_6  and  C_7
REMARK    3  A    between atoms: C_8  and  N_9
REMARK    4  A    between atoms: C_11  and  C_12
REMARK    5  A    between atoms: C_11  and  N_29
REMARK    6  A    between atoms: N_14  and  C_15
REMARK    7  A    between atoms: C_17  and  C_18
REMARK    8  A    between atoms: C_23  and  C_24
REMARK    9  A    between atoms: N_29  and  C_30
REMARK   10  A    between atoms: N_29  and  C_31
REMARK                            x       y       z     vdW  Elec       q    Type
REMARK                         _______ _______ _______ _____ _____    ______ ____
ROOT
ATOM      1  C   UNL     1       1.534   9.254  18.466  0.00  0.00    +0.000 C 
ATOM      2  O   UNL     1       1.806   9.252  17.263  0.00  0.00    +0.000 OA
ATOM      3  N   UNL     1       1.871   8.197  19.316  0.00  0.00    +0.000 N 
ATOM      4  H   UNL     1       1.266   8.050  20.113  0.00  0.00    +0.000 HD
ENDROOT
BRANCH   1   7
ATOM      5  N   UNL     1      -1.362  11.524  18.689  0.00  0.00    +0.000 N 
ATOM      6  C   UNL     1      -0.788  10.200  18.628  0.00  0.00    +0.000 C 
ATOM      7  C   UNL     1       0.693  10.404  19.086  0.00  0.00    +0.000 C 
ATOM      8  C   UNL     1       0.956  11.761  18.404  0.00  0.00    +0.000 C 
ATOM      9  C   UNL     1      -0.377  12.473  18.466  0.00  0.00    +0.000 C 
ATOM     10  O   UNL     1      -0.498  13.682  18.316  0.00  0.00    +0.000 OA
BRANCH   5  18
ATOM     11  C   UNL     1      -2.590  10.825  16.128  0.00  0.00    +0.000 C 
ATOM     12  C   UNL     1      -3.357  11.427  17.273  0.00  0.00    +0.000 A 
ATOM     13  C   UNL     1      -4.737  11.629  17.094  0.00  0.00    +0.000 A 
ATOM     14  C   UNL     1      -5.530  12.106  18.131  0.00  0.00    +0.000 A 
ATOM     15  C   UNL     1      -4.948  12.401  19.358  0.00  0.00    +0.000 A 
ATOM     16  C   UNL     1      -3.565  12.237  19.568  0.00  0.00    +0.000 A 
ATOM     17  C   UNL     1      -3.018  12.645  20.908  0.00  0.00    +0.000 C 
ATOM     18  C   UNL     1      -2.758  11.736  18.519  0.00  0.00    +0.000 A 
ENDBRANCH   5  18
BRANCH   7  19
ATOM     19  N   UNL     1       0.832  10.476  20.584  0.00  0.00    +0.000 NA
ATOM     20  C   UNL     1       1.232  11.790  21.096  0.00  0.00    +0.000 C 
ATOM     21  C   UNL     1      -0.292   9.977  21.373  0.00  0.00    +0.000 C 
ENDBRANCH   7  19
ENDBRANCH   1   7
BRANCH   3  22
ATOM     22  C   UNL     1       2.525   7.054  18.797  0.00  0.00    +0.000 A 
ATOM     23  C   UNL     1       3.554   7.202  17.859  0.00  0.00    +0.000 A 
ATOM     24  C   UNL     1       4.140   6.083  17.253  0.00  0.00    +0.000 A 
ATOM     25  C   UNL     1       3.667   4.806  17.587  0.00  0.00    +0.000 A 
ATOM     26  C   UNL     1       2.647   4.637  18.546  0.00  0.00    +0.000 A 
ATOM     27  C   UNL     1       2.114   5.776  19.180  0.00  0.00    +0.000 A 
BRANCH  24  28
ATOM     28  C   UNL     1       5.237   6.247  16.228  0.00  0.00    +0.000 C 
ATOM     29  F   UNL     1       5.640   5.074  15.664  0.00  0.00    +0.000 F 
ATOM     30  F   UNL     1       4.859   7.046  15.192  0.00  0.00    +0.000 F 
ATOM     31  F   UNL     1       6.356   6.817  16.752  0.00  0.00    +0.000 F 
ENDBRANCH  24  28
BRANCH  26  32
ATOM     32  C   UNL     1       2.094   3.264  18.844  0.00  0.00    +0.000 C 
ATOM     33  F   UNL     1       1.856   2.516  17.732  0.00  0.00    +0.000 F 
ATOM     34  F   UNL     1       2.932   2.523  19.620  0.00  0.00    +0.000 F 
ATOM     35  F   UNL     1       0.911   3.319  19.517  0.00  0.00    +0.000 F 
ENDBRANCH  26  32
ENDBRANCH   3  22
TORSDOF 6
ENDMDL
MODEL 4
REMARK VINA RESULT:      -9.2      1.279      2.195
REMARK  Name = 
REMARK  10 active torsions:
REMARK  status: ('A' for Active; 'I' for Inactive)
REMARK    1  A    between atoms: C_1  and  C_2
REMARK    2  A    between atoms: C_6  and  C_7
REMARK    3  A    between atoms: C_8  and  N_9
REMARK    4  A    between atoms: C_11  and  C_12
REMARK    5  A    between atoms: C_11  and  N_29
REMARK    6  A    between atoms: N_14  and  C_15
REMARK    7  A    between atoms: C_17  and  C_18
REMARK    8  A    between atoms: C_23  and  C_24
REMARK    9  A    between atoms: N_29  and  C_30
REMARK   10  A    between atoms: N_29  and  C_31
REMARK                            x       y       z     vdW  Elec       q    Type
REMARK                         _______ _______ _______ _____ _____    ______ ____
ROOT
ATOM      1  C   UNL     1       1.174   9.291  20.082  0.00  0.00    +0.000 C 
ATOM      2  O   UNL     1       1.551   8.777  21.138  0.00  0.00    +0.000 OA
ATOM      3  N   UNL     1       1.533   8.786  18.829  0.00  0.00    +0.000 N 
ATOM      4  H   UNL     1       1.584   9.456  18.072  0.00  0.00    +0.000 HD
ENDROOT
BRANCH   1   7
ATOM      5  N   UNL     1      -1.576  11.520  19.053  0.00  0.00    +0.000 N 
ATOM      6  C   UNL     1      -1.086  10.272  19.590  0.00  0.00    +0.000 C 
ATOM      7  C   UNL     1       0.355  10.611  20.092  0.00  0.00    +0.000 C 
ATOM      8  C   UNL     1       0.769  11.572  18.961  0.00  0.00    +0.000 C 
ATOM      9  C   UNL     1      -0.515  12.277  18.583  0.00  0.00    +0.000 C 
ATOM     10  O   UNL     1      -0.543  13.325  17.951  0.00  0.00    +0.000 OA
BRANCH   5  18
ATOM     11  C   UNL     1      -2.435  10.380  16.500  0.00  0.00    +0.000 C 
ATOM     12  C   UNL     1      -3.353  11.151  17.409  0.00  0.00    +0.000 A 
ATOM     13  C   UNL     1      -4.693  11.295  17.008  0.00  0.00    +0.000 A 
ATOM     14  C   UNL     1      -5.621  11.925  17.828  0.00  0.00    +0.000 A 
ATOM     15  C   UNL     1      -5.216  12.431  19.057  0.00  0.00    +0.000 A 
ATOM     16  C   UNL     1      -3.876  12.330  19.483  0.00  0.00    +0.000 A 
ATOM     17  C   UNL     1      -3.521  12.965  20.799  0.00  0.00    +0.000 C 
ATOM     18  C   UNL     1      -2.933  11.675  18.656  0.00  0.00    +0.000 A 
ENDBRANCH   5  18
BRANCH   7  19
ATOM     19  N   UNL     1       0.356  11.278  21.443  0.00  0.00    +0.000 NA
ATOM     20  C   UNL     1       0.622  12.720  21.410  0.00  0.00    +0.000 C 
ATOM     21  C   UNL     1      -0.798  11.024  22.302  0.00  0.00    +0.000 C 
ENDBRANCH   7  19
ENDBRANCH   1   7
BRANCH   3  22
ATOM     22  C   UNL     1       2.385   7.660  18.738  0.00  0.00    +0.000 A 
ATOM     23  C   UNL     1       3.355   7.596  17.731  0.00  0.00    +0.000 A 
ATOM     24  C   UNL     1       4.135   6.444  17.557  0.00  0.00    +0.000 A 
ATOM     25  C   UNL     1       3.916   5.345  18.398  0.00  0.00    +0.000 A 
ATOM     26  C   UNL     1       2.959   5.400  19.431  0.00  0.00    +0.000 A 
ATOM     27  C   UNL     1       2.227   6.589  19.619  0.00  0.00    +0.000 A 
BRANCH  24  28
ATOM     28  C   UNL     1       5.168   6.372  16.458  0.00  0.00    +0.000 C 
ATOM     29  F   UNL     1       5.433   5.104  16.038  0.00  0.00    +0.000 F 
ATOM     30  F   UNL     1       4.787   7.059  15.345  0.00  0.00    +0.000 F 
ATOM     31  F   UNL     1       6.365   6.902  16.834  0.00  0.00    +0.000 F 
ENDBRANCH  24  28
BRANCH  26  32
ATOM     32  C   UNL     1       2.679   4.184  20.283  0.00  0.00    +0.000 C 
ATOM     33  F   UNL     1       3.696   3.280  20.298  0.00  0.00    +0.000 F 
ATOM     34  F   UNL     1       2.444   4.505  21.585  0.00  0.00    +0.000 F 
ATOM     35  F   UNL     1       1.578   3.502  19.862  0.00  0.00    +0.000 F 
ENDBRANCH  26  32
ENDBRANCH   3  22
TORSDOF 6
ENDMDL
MODEL 5
REMARK VINA RESULT:      -9.2      1.308      1.397
REMARK  Name = 
REMARK  10 active torsions:
REMARK  status: ('A' for Active; 'I' for Inactive)
REMARK    1  A    between atoms: C_1  and  C_2
REMARK    2  A    between atoms: C_6  and  C_7
REMARK    3  A    between atoms: C_8  and  N_9
REMARK    4  A    between atoms: C_11  and  C_12
REMARK    5  A    between atoms: C_11  and  N_29
REMARK    6  A    between atoms: N_14  and  C_15
REMARK    7  A    between atoms: C_17  and  C_18
REMARK    8  A    between atoms: C_23  and  C_24
REMARK    9  A    between atoms: N_29  and  C_30
REMARK   10  A    between atoms: N_29  and  C_31
REMARK                            x       y       z     vdW  Elec       q    Type
REMARK                         _______ _______ _______ _____ _____    ______ ____
ROOT
ATOM      1  C   UNL     1       1.115   9.322  20.113  0.00  0.00    +0.000 C 
ATOM      2  O   UNL     1       1.479   8.811  21.175  0.00  0.00    +0.000 OA
ATOM      3  N   UNL     1       1.491   8.816  18.866  0.00  0.00    +0.000 N 
ATOM      4  H   UNL     1       1.551   9.483  18.108  0.00  0.00    +0.000 HD
ENDROOT
BRANCH   1   7
ATOM      5  N   UNL     1      -1.623  11.546  19.041  0.00  0.00    +0.000 N 
ATOM      6  C   UNL     1      -1.139  10.299  19.586  0.00  0.00    +0.000 C 
ATOM      7  C   UNL     1       0.295  10.641  20.110  0.00  0.00    +0.000 C 
ATOM      8  C   UNL     1       0.723  11.601  18.984  0.00  0.00    +0.000 C 
ATOM      9  C   UNL     1      -0.556  12.304  18.586  0.00  0.00    +0.000 C 
ATOM     10  O   UNL     1      -0.575  13.351  17.952  0.00  0.00    +0.000 OA
BRANCH   5  18
ATOM     11  C   UNL     1      -3.497  12.923  20.816  0.00  0.00    +0.000 C 
ATOM     12  C   UNL     1      -3.896  12.339  19.488  0.00  0.00    +0.000 A 
ATOM     13  C   UNL     1      -5.234  12.499  19.086  0.00  0.00    +0.000 A 
ATOM     14  C   UNL     1      -5.662  12.058  17.840  0.00  0.00    +0.000 A 
ATOM     15  C   UNL     1      -4.759  11.439  16.984  0.00  0.00    +0.000 A 
ATOM     16  C   UNL     1      -3.417  11.236  17.363  0.00  0.00    +0.000 A 
ATOM     17  C   UNL     1      -2.532  10.498  16.397  0.00  0.00    +0.000 C 
ATOM     18  C   UNL     1      -2.974  11.699  18.624  0.00  0.00    +0.000 A 
ENDBRANCH   5  18
BRANCH   7  19
ATOM     19  N   UNL     1       0.274  11.310  21.460  0.00  0.00    +0.000 NA
ATOM     20  C   UNL     1       0.452  12.765  21.421  0.00  0.00    +0.000 C 
ATOM     21  C   UNL     1      -0.850  10.988  22.336  0.00  0.00    +0.000 C 
ENDBRANCH   7  19
ENDBRANCH   1   7
BRANCH   3  22
ATOM     22  C   UNL     1       2.346   7.690  18.788  0.00  0.00    +0.000 A 
ATOM     23  C   UNL     1       3.340   7.633  17.806  0.00  0.00    +0.000 A 
ATOM     24  C   UNL     1       4.125   6.483  17.643  0.00  0.00    +0.000 A 
ATOM     25  C   UNL     1       3.887   5.378  18.472  0.00  0.00    +0.000 A 
ATOM     26  C   UNL     1       2.904   5.426  19.481  0.00  0.00    +0.000 A 
ATOM     27  C   UNL     1       2.168   6.613  19.659  0.00  0.00    +0.000 A 
BRANCH  24  28
ATOM     28  C   UNL     1       5.185   6.418  16.569  0.00  0.00    +0.000 C 
ATOM     29  F   UNL     1       4.811   6.996  15.394  0.00  0.00    +0.000 F 
ATOM     30  F   UNL     1       6.336   7.044  16.941  0.00  0.00    +0.000 F 
ATOM     31  F   UNL     1       5.537   5.138  16.264  0.00  0.00    +0.000 F 
ENDBRANCH  24  28
BRANCH  26  32
ATOM     32  C   UNL     1       2.604   4.205  20.319  0.00  0.00    +0.000 C 
ATOM     33  F   UNL     1       1.442   3.582  19.983  0.00  0.00    +0.000 F 
ATOM     34  F   UNL     1       3.578   3.259  20.225  0.00  0.00    +0.000 F 
ATOM     35  F   UNL     1       2.499   4.502  21.644  0.00  0.00    +0.000 F 
ENDBRANCH  26  32
ENDBRANCH   3  22
TORSDOF 6
ENDMDL
MODEL 6
REMARK VINA RESULT:      -9.2      1.086      1.445
REMARK  Name = 
REMARK  10 active torsions:
REMARK  status: ('A' for Active; 'I' for Inactive)
REMARK    1  A    between atoms: C_1  and  C_2
REMARK    2  A    between atoms: C_6  and  C_7
REMARK    3  A    between atoms: C_8  and  N_9
REMARK    4  A    between atoms: C_11  and  C_12
REMARK    5  A    between atoms: C_11  and  N_29
REMARK    6  A    between atoms: N_14  and  C_15
REMARK    7  A    between atoms: C_17  and  C_18
REMARK    8  A    between atoms: C_23  and  C_24
REMARK    9  A    between atoms: N_29  and  C_30
REMARK   10  A    between atoms: N_29  and  C_31
REMARK                            x       y       z     vdW  Elec       q    Type
REMARK                         _______ _______ _______ _____ _____    ______ ____
ROOT
ATOM      1  C   UNL     1       1.367   9.095  19.025  0.00  0.00    +0.000 C 
ATOM      2  O   UNL     1       1.645   8.874  17.844  0.00  0.00    +0.000 OA
ATOM      3  N   UNL     1       1.644   8.184  20.047  0.00  0.00    +0.000 N 
ATOM      4  H   UNL     1       1.029   8.207  20.850  0.00  0.00    +0.000 HD
ENDROOT
BRANCH   1   7
ATOM      5  N   UNL     1      -1.432  11.489  18.851  0.00  0.00    +0.000 N 
ATOM      6  C   UNL     1      -0.912  10.153  19.032  0.00  0.00    +0.000 C 
ATOM      7  C   UNL     1       0.585  10.376  19.428  0.00  0.00    +0.000 C 
ATOM      8  C   UNL     1       0.888  11.569  18.502  0.00  0.00    +0.000 C 
ATOM      9  C   UNL     1      -0.414  12.337  18.444  0.00  0.00    +0.000 C 
ATOM     10  O   UNL     1      -0.490  13.500  18.072  0.00  0.00    +0.000 OA
BRANCH   5  18
ATOM     11  C   UNL     1      -2.953  12.761  21.002  0.00  0.00    +0.000 C 
ATOM     12  C   UNL     1      -3.573  12.314  19.706  0.00  0.00    +0.000 A 
ATOM     13  C   UNL     1      -4.947  12.555  19.526  0.00  0.00    +0.000 A 
ATOM     14  C   UNL     1      -5.576  12.244  18.328  0.00  0.00    +0.000 A 
ATOM     15  C   UNL     1      -4.840  11.675  17.295  0.00  0.00    +0.000 A 
ATOM     16  C   UNL     1      -3.468  11.394  17.446  0.00  0.00    +0.000 A 
ATOM     17  C   UNL     1      -2.773  10.717  16.297  0.00  0.00    +0.000 C 
ATOM     18  C   UNL     1      -2.821  11.724  18.660  0.00  0.00    +0.000 A 
ENDBRANCH   5  18
BRANCH   7  19
ATOM     19  N   UNL     1       0.754  10.720  20.885  0.00  0.00    +0.000 NA
ATOM     20  C   UNL     1       1.152  12.108  21.140  0.00  0.00    +0.000 C 
ATOM     21  C   UNL     1      -0.348  10.366  21.776  0.00  0.00    +0.000 C 
ENDBRANCH   7  19
ENDBRANCH   1   7
BRANCH   3  22
ATOM     22  C   UNL     1       2.240   6.937  19.740  0.00  0.00    +0.000 A 
ATOM     23  C   UNL     1       3.137   6.836  18.670  0.00  0.00    +0.000 A 
ATOM     24  C   UNL     1       3.654   5.592  18.282  0.00  0.00    +0.000 A 
ATOM     25  C   UNL     1       3.245   4.443  18.973  0.00  0.00    +0.000 A 
ATOM     26  C   UNL     1       2.360   4.530  20.067  0.00  0.00    +0.000 A 
ATOM     27  C   UNL     1       1.899   5.798  20.471  0.00  0.00    +0.000 A 
BRANCH  24  28
ATOM     28  C   UNL     1       4.606   5.483  17.115  0.00  0.00    +0.000 C 
ATOM     29  F   UNL     1       5.912   5.369  17.482  0.00  0.00    +0.000 F 
ATOM     30  F   UNL     1       4.344   4.397  16.335  0.00  0.00    +0.000 F 
ATOM     31  F   UNL     1       4.540   6.562  16.288  0.00  0.00    +0.000 F 
ENDBRANCH  24  28
BRANCH  26  32
ATOM     32  C   UNL     1       1.869   3.279  20.757  0.00  0.00    +0.000 C 
ATOM     33  F   UNL     1       0.577   2.964  20.466  0.00  0.00    +0.000 F 
ATOM     34  F   UNL     1       2.605   2.182  20.430  0.00  0.00    +0.000 F 
ATOM     35  F   UNL     1       1.931   3.381  22.114  0.00  0.00    +0.000 F 
ENDBRANCH  26  32
ENDBRANCH   3  22
TORSDOF 6
ENDMDL
MODEL 7
REMARK VINA RESULT:      -9.2      0.966      3.112
REMARK  Name = 
REMARK  10 active torsions:
REMARK  status: ('A' for Active; 'I' for Inactive)
REMARK    1  A    between atoms: C_1  and  C_2
REMARK    2  A    between atoms: C_6  and  C_7
REMARK    3  A    between atoms: C_8  and  N_9
REMARK    4  A    between atoms: C_11  and  C_12
REMARK    5  A    between atoms: C_11  and  N_29
REMARK    6  A    between atoms: N_14  and  C_15
REMARK    7  A    between atoms: C_17  and  C_18
REMARK    8  A    between atoms: C_23  and  C_24
REMARK    9  A    between atoms: N_29  and  C_30
REMARK   10  A    between atoms: N_29  and  C_31
REMARK                            x       y       z     vdW  Elec       q    Type
REMARK                         _______ _______ _______ _____ _____    ______ ____
ROOT
ATOM      1  C   UNL     1       1.404   8.888  19.520  0.00  0.00    +0.000 C 
ATOM      2  O   UNL     1       1.784   8.224  20.487  0.00  0.00    +0.000 OA
ATOM      3  N   UNL     1       1.731   8.555  18.203  0.00  0.00    +0.000 N 
ATOM      4  H   UNL     1       1.786   9.321  17.545  0.00  0.00    +0.000 HD
ENDROOT
BRANCH   1   7
ATOM      5  N   UNL     1      -1.331  11.279  18.894  0.00  0.00    +0.000 N 
ATOM      6  C   UNL     1      -0.850   9.965  19.251  0.00  0.00    +0.000 C 
ATOM      7  C   UNL     1       0.619  10.212  19.728  0.00  0.00    +0.000 C 
ATOM      8  C   UNL     1       1.009  11.298  18.707  0.00  0.00    +0.000 C 
ATOM      9  C   UNL     1      -0.272  12.069  18.475  0.00  0.00    +0.000 C 
ATOM     10  O   UNL     1      -0.300  13.187  17.978  0.00  0.00    +0.000 OA
BRANCH   5  18
ATOM     11  C   UNL     1      -3.003  12.701  20.828  0.00  0.00    +0.000 C 
ATOM     12  C   UNL     1      -3.524  12.170  19.520  0.00  0.00    +0.000 A 
ATOM     13  C   UNL     1      -4.877  12.405  19.218  0.00  0.00    +0.000 A 
ATOM     14  C   UNL     1      -5.414  12.018  17.997  0.00  0.00    +0.000 A 
ATOM     15  C   UNL     1      -4.606  11.377  17.066  0.00  0.00    +0.000 A 
ATOM     16  C   UNL     1      -3.252  11.100  17.342  0.00  0.00    +0.000 A 
ATOM     17  C   UNL     1      -2.477  10.344  16.299  0.00  0.00    +0.000 C 
ATOM     18  C   UNL     1      -2.699  11.508  18.578  0.00  0.00    +0.000 A 
ENDBRANCH   5  18
BRANCH   7  19
ATOM     19  N   UNL     1       0.690  10.707  21.150  0.00  0.00    +0.000 NA
ATOM     20  C   UNL     1       1.002  12.133  21.282  0.00  0.00    +0.000 C 
ATOM     21  C   UNL     1      -0.439  10.381  22.017  0.00  0.00    +0.000 C 
ENDBRANCH   7  19
ENDBRANCH   1   7
BRANCH   3  22
ATOM     22  C   UNL     1       2.553   7.433  17.941  0.00  0.00    +0.000 A 
ATOM     23  C   UNL     1       2.023   6.141  18.035  0.00  0.00    +0.000 A 
ATOM     24  C   UNL     1       2.845   5.015  17.886  0.00  0.00    +0.000 A 
ATOM     25  C   UNL     1       4.215   5.202  17.657  0.00  0.00    +0.000 A 
ATOM     26  C   UNL     1       4.761   6.496  17.538  0.00  0.00    +0.000 A 
ATOM     27  C   UNL     1       3.904   7.609  17.637  0.00  0.00    +0.000 A 
BRANCH  24  28
ATOM     28  C   UNL     1       2.274   3.622  18.007  0.00  0.00    +0.000 C 
ATOM     29  F   UNL     1       2.739   2.930  19.083  0.00  0.00    +0.000 F 
ATOM     30  F   UNL     1       0.917   3.629  18.128  0.00  0.00    +0.000 F 
ATOM     31  F   UNL     1       2.547   2.852  16.917  0.00  0.00    +0.000 F 
ENDBRANCH  24  28
BRANCH  26  32
ATOM     32  C   UNL     1       6.250   6.687  17.367  0.00  0.00    +0.000 C 
ATOM     33  F   UNL     1       6.749   6.116  16.237  0.00  0.00    +0.000 F 
ATOM     34  F   UNL     1       6.602   8.001  17.310  0.00  0.00    +0.000 F 
ATOM     35  F   UNL     1       6.960   6.154  18.399  0.00  0.00    +0.000 F 
ENDBRANCH  26  32
ENDBRANCH   3  22
TORSDOF 6
ENDMDL
MODEL 8
REMARK VINA RESULT:      -9.1      1.305      3.651
REMARK  Name = 
REMARK  10 active torsions:
REMARK  status: ('A' for Active; 'I' for Inactive)
REMARK    1  A    between atoms: C_1  and  C_2
REMARK    2  A    between atoms: C_6  and  C_7
REMARK    3  A    between atoms: C_8  and  N_9
REMARK    4  A    between atoms: C_11  and  C_12
REMARK    5  A    between atoms: C_11  and  N_29
REMARK    6  A    between atoms: N_14  and  C_15
REMARK    7  A    between atoms: C_17  and  C_18
REMARK    8  A    between atoms: C_23  and  C_24
REMARK    9  A    between atoms: N_29  and  C_30
REMARK   10  A    between atoms: N_29  and  C_31
REMARK                            x       y       z     vdW  Elec       q    Type
REMARK                         _______ _______ _______ _____ _____    ______ ____
ROOT
ATOM      1  C   UNL     1       1.396   8.916  19.131  0.00  0.00    +0.000 C 
ATOM      2  O   UNL     1       1.667   8.657  17.955  0.00  0.00    +0.000 OA
ATOM      3  N   UNL     1       1.665   8.030  20.178  0.00  0.00    +0.000 N 
ATOM      4  H   UNL     1       1.054   8.085  20.982  0.00  0.00    +0.000 HD
ENDROOT
BRANCH   1   7
ATOM      5  N   UNL     1      -1.345  11.366  18.862  0.00  0.00    +0.000 N 
ATOM      6  C   UNL     1      -0.859  10.022  19.072  0.00  0.00    +0.000 C 
ATOM      7  C   UNL     1       0.633  10.218  19.499  0.00  0.00    +0.000 C 
ATOM      8  C   UNL     1       0.983  11.392  18.565  0.00  0.00    +0.000 C 
ATOM      9  C   UNL     1      -0.301  12.187  18.468  0.00  0.00    +0.000 C 
ATOM     10  O   UNL     1      -0.343  13.346  18.079  0.00  0.00    +0.000 OA
BRANCH   5  18
ATOM     11  C   UNL     1      -2.540  10.527  16.327  0.00  0.00    +0.000 C 
ATOM     12  C   UNL     1      -3.306  11.252  17.401  0.00  0.00    +0.000 A 
ATOM     13  C   UNL     1      -4.670  11.503  17.167  0.00  0.00    +0.000 A 
ATOM     14  C   UNL     1      -5.465  12.096  18.140  0.00  0.00    +0.000 A 
ATOM     15  C   UNL     1      -4.901  12.457  19.357  0.00  0.00    +0.000 A 
ATOM     16  C   UNL     1      -3.532  12.247  19.620  0.00  0.00    +0.000 A 
ATOM     17  C   UNL     1      -3.000  12.731  20.940  0.00  0.00    +0.000 C 
ATOM     18  C   UNL     1      -2.725  11.628  18.636  0.00  0.00    +0.000 A 
ENDBRANCH   5  18
BRANCH   7  19
ATOM     19  N   UNL     1       0.776  10.577  20.955  0.00  0.00    +0.000 NA
ATOM     20  C   UNL     1       1.242  11.946  21.201  0.00  0.00    +0.000 C 
ATOM     21  C   UNL     1      -0.370  10.300  21.817  0.00  0.00    +0.000 C 
ENDBRANCH   7  19
ENDBRANCH   1   7
BRANCH   3  22
ATOM     22  C   UNL     1       2.243   6.768  19.905  0.00  0.00    +0.000 A 
ATOM     23  C   UNL     1       1.562   5.596  20.255  0.00  0.00    +0.000 A 
ATOM     24  C   UNL     1       2.162   4.340  20.093  0.00  0.00    +0.000 A 
ATOM     25  C   UNL     1       3.468   4.274  19.588  0.00  0.00    +0.000 A 
ATOM     26  C   UNL     1       4.161   5.442  19.209  0.00  0.00    +0.000 A 
ATOM     27  C   UNL     1       3.513   6.687  19.331  0.00  0.00    +0.000 A 
BRANCH  24  28
ATOM     28  C   UNL     1       1.432   3.079  20.489  0.00  0.00    +0.000 C 
ATOM     29  F   UNL     1       1.143   3.008  21.818  0.00  0.00    +0.000 F 
ATOM     30  F   UNL     1       0.240   2.948  19.843  0.00  0.00    +0.000 F 
ATOM     31  F   UNL     1       2.141   1.954  20.197  0.00  0.00    +0.000 F 
ENDBRANCH  24  28
BRANCH  26  32
ATOM     32  C   UNL     1       5.593   5.365  18.737  0.00  0.00    +0.000 C 
ATOM     33  F   UNL     1       5.904   6.282  17.780  0.00  0.00    +0.000 F 
ATOM     34  F   UNL     1       6.485   5.560  19.747  0.00  0.00    +0.000 F 
ATOM     35  F   UNL     1       5.895   4.150  18.201  0.00  0.00    +0.000 F 
ENDBRANCH  26  32
ENDBRANCH   3  22
TORSDOF 6
ENDMDL
MODEL 9
REMARK VINA RESULT:      -9.1      0.983      3.429
REMARK  Name = 
REMARK  10 active torsions:
REMARK  status: ('A' for Active; 'I' for Inactive)
REMARK    1  A    between atoms: C_1  and  C_2
REMARK    2  A    between atoms: C_6  and  C_7
REMARK    3  A    between atoms: C_8  and  N_9
REMARK    4  A    between atoms: C_11  and  C_12
REMARK    5  A    between atoms: C_11  and  N_29
REMARK    6  A    between atoms: N_14  and  C_15
REMARK    7  A    between atoms: C_17  and  C_18
REMARK    8  A    between atoms: C_23  and  C_24
REMARK    9  A    between atoms: N_29  and  C_30
REMARK   10  A    between atoms: N_29  and  C_31
REMARK                            x       y       z     vdW  Elec       q    Type
REMARK                         _______ _______ _______ _____ _____    ______ ____
ROOT
ATOM      1  C   UNL     1       1.429   8.867  19.514  0.00  0.00    +0.000 C 
ATOM      2  O   UNL     1       1.777   8.182  20.480  0.00  0.00    +0.000 OA
ATOM      3  N   UNL     1       1.780   8.548  18.200  0.00  0.00    +0.000 N 
ATOM      4  H   UNL     1       1.862   9.324  17.556  0.00  0.00    +0.000 HD
ENDROOT
BRANCH   1   7
ATOM      5  N   UNL     1      -1.299  11.276  18.924  0.00  0.00    +0.000 N 
ATOM      6  C   UNL     1      -0.821   9.961  19.284  0.00  0.00    +0.000 C 
ATOM      7  C   UNL     1       0.660  10.200  19.726  0.00  0.00    +0.000 C 
ATOM      8  C   UNL     1       1.037  11.271  18.686  0.00  0.00    +0.000 C 
ATOM      9  C   UNL     1      -0.242  12.052  18.474  0.00  0.00    +0.000 C 
ATOM     10  O   UNL     1      -0.271  13.165  17.966  0.00  0.00    +0.000 OA
BRANCH   5  18
ATOM     11  C   UNL     1      -2.417  10.228  16.433  0.00  0.00    +0.000 C 
ATOM     12  C   UNL     1      -3.216  11.035  17.420  0.00  0.00    +0.000 A 
ATOM     13  C   UNL     1      -4.572  11.261  17.127  0.00  0.00    +0.000 A 
ATOM     14  C   UNL     1      -5.396  11.928  18.025  0.00  0.00    +0.000 A 
ATOM     15  C   UNL     1      -4.869  12.391  19.224  0.00  0.00    +0.000 A 
ATOM     16  C   UNL     1      -3.508  12.208  19.543  0.00  0.00    +0.000 A 
ATOM     17  C   UNL     1      -3.016  12.801  20.834  0.00  0.00    +0.000 C 
ATOM     18  C   UNL     1      -2.671  11.514  18.637  0.00  0.00    +0.000 A 
ENDBRANCH   5  18
BRANCH   7  19
ATOM     19  N   UNL     1       0.767  10.708  21.141  0.00  0.00    +0.000 NA
ATOM     20  C   UNL     1       1.151  12.119  21.253  0.00  0.00    +0.000 C 
ATOM     21  C   UNL     1      -0.370  10.449  22.021  0.00  0.00    +0.000 C 
ENDBRANCH   7  19
ENDBRANCH   1   7
BRANCH   3  22
ATOM     22  C   UNL     1       2.589   7.418  17.938  0.00  0.00    +0.000 A 
ATOM     23  C   UNL     1       2.041   6.132  18.012  0.00  0.00    +0.000 A 
ATOM     24  C   UNL     1       2.848   4.996  17.864  0.00  0.00    +0.000 A 
ATOM     25  C   UNL     1       4.224   5.166  17.656  0.00  0.00    +0.000 A 
ATOM     26  C   UNL     1       4.790   6.454  17.557  0.00  0.00    +0.000 A 
ATOM     27  C   UNL     1       3.947   7.577  17.655  0.00  0.00    +0.000 A 
BRANCH  24  28
ATOM     28  C   UNL     1       2.256   3.610  17.963  0.00  0.00    +0.000 C 
ATOM     29  F   UNL     1       0.920   3.603  18.223  0.00  0.00    +0.000 F 
ATOM     30  F   UNL     1       2.415   2.898  16.813  0.00  0.00    +0.000 F 
ATOM     31  F   UNL     1       2.836   2.868  18.946  0.00  0.00    +0.000 F 
ENDBRANCH  24  28
BRANCH  26  32
ATOM     32  C   UNL     1       6.283   6.626  17.408  0.00  0.00    +0.000 C 
ATOM     33  F   UNL     1       6.808   5.962  16.342  0.00  0.00    +0.000 F 
ATOM     34  F   UNL     1       6.643   7.929  17.252  0.00  0.00    +0.000 F 
ATOM     35  F   UNL     1       6.965   6.177  18.498  0.00  0.00    +0.000 F 
ENDBRANCH  26  32
ENDBRANCH   3  22
TORSDOF 6
ENDMDL
