MODEL 1
REMARK VINA RESULT:      -8.1      0.000      0.000
REMARK  Name = 
REMARK  7 active torsions:
REMARK  status: ('A' for Active; 'I' for Inactive)
REMARK    1  A    between atoms: C_1  and  O_2
REMARK    2  A    between atoms: O_2  and  C_3
REMARK    3  A    between atoms: C_8  and  C_9
REMARK    4  A    between atoms: N_10  and  N_11
REMARK    5  A    between atoms: C_12  and  C_14
REMARK    6  A    between atoms: C_14  and  C_15
REMARK    7  A    between atoms: C_15  and  N_16
REMARK                            x       y       z     vdW  Elec       q    Type
REMARK                         _______ _______ _______ _____ _____    ______ ____
ROOT
ATOM      1  N   UNL     1       7.538   8.435  17.244  0.00  0.00    +0.000 N 
ATOM      2  C   UNL     1       7.318   7.130  17.678  0.00  0.00    +0.000 C 
ATOM      3  O   UNL     1       7.994   6.607  18.564  0.00  0.00    +0.000 OA
ATOM      4  H   UNL     1       7.066   8.862  16.454  0.00  0.00    +0.000 HD
ENDROOT
BRANCH   1   6
ATOM      5  C   UNL     1       8.433  10.252  18.358  0.00  0.00    +0.000 C 
ATOM      6  N   UNL     1       8.590   9.086  17.819  0.00  0.00    +0.000 NA
BRANCH   5  12
ATOM      7  C   UNL     1       9.750  11.323  20.287  0.00  0.00    +0.000 A 
ATOM      8  C   UNL     1      10.913  11.999  20.696  0.00  0.00    +0.000 A 
ATOM      9  C   UNL     1      11.939  12.301  19.795  0.00  0.00    +0.000 A 
ATOM     10  C   UNL     1      11.805  11.939  18.463  0.00  0.00    +0.000 A 
ATOM     11  C   UNL     1      10.664  11.256  18.049  0.00  0.00    +0.000 A 
ATOM     12  C   UNL     1       9.620  10.936  18.946  0.00  0.00    +0.000 A 
BRANCH   7  14
ATOM     13  C   UNL     1       8.765  12.306  22.231  0.00  0.00    +0.000 C 
ATOM     14  O   UNL     1       8.814  11.251  21.283  0.00  0.00    +0.000 OA
ENDBRANCH   7  14
ENDBRANCH   5  12
ENDBRANCH   1   6
BRANCH   2  15
ATOM     15  C   UNL     1       6.247   6.307  17.021  0.00  0.00    +0.000 C 
BRANCH  15  16
ATOM     16  C   UNL     1       4.873   6.156  17.631  0.00  0.00    +0.000 C 
BRANCH  16  17
ATOM     17  N   UNL     1       4.449   4.966  18.334  0.00  0.00    +0.000 N 
ATOM     18  C   UNL     1       5.374   4.251  19.064  0.00  0.00    +0.000 A 
ATOM     19  N   UNL     1       4.916   3.089  19.442  0.00  0.00    +0.000 NA
ATOM     20  C   UNL     1       3.606   3.089  19.058  0.00  0.00    +0.000 A 
ATOM     21  C   UNL     1       2.646   2.091  19.284  0.00  0.00    +0.000 A 
ATOM     22  C   UNL     1       1.315   2.355  18.966  0.00  0.00    +0.000 A 
ATOM     23  C   UNL     1       0.963   3.564  18.369  0.00  0.00    +0.000 A 
ATOM     24  C   UNL     1       1.928   4.534  18.034  0.00  0.00    +0.000 A 
ATOM     25  C   UNL     1       3.256   4.284  18.411  0.00  0.00    +0.000 A 
ENDBRANCH  16  17
ENDBRANCH  15  16
ENDBRANCH   2  15
TORSDOF 6
ENDMDL
MODEL 2
REMARK VINA RESULT:      -7.9      1.617      2.301
REMARK  Name = 
REMARK  7 active torsions:
REMARK  status: ('A' for Active; 'I' for Inactive)
REMARK    1  A    between atoms: C_1  and  O_2
REMARK    2  A    between atoms: O_2  and  C_3
REMARK    3  A    between atoms: C_8  and  C_9
REMARK    4  A    between atoms: N_10  and  N_11
REMARK    5  A    between atoms: C_12  and  C_14
REMARK    6  A    between atoms: C_14  and  C_15
REMARK    7  A    between atoms: C_15  and  N_16
REMARK                            x       y       z     vdW  Elec       q    Type
REMARK                         _______ _______ _______ _____ _____    ______ ____
ROOT
ATOM      1  N   UNL     1       7.563   8.274  17.387  0.00  0.00    +0.000 N 
ATOM      2  C   UNL     1       7.475   6.942  17.785  0.00  0.00    +0.000 C 
ATOM      3  O   UNL     1       8.019   6.523  18.807  0.00  0.00    +0.000 OA
ATOM      4  H   UNL     1       7.211   8.631  16.505  0.00  0.00    +0.000 HD
ENDROOT
BRANCH   1   6
ATOM      5  C   UNL     1       8.590  10.300  17.813  0.00  0.00    +0.000 C 
ATOM      6  N   UNL     1       8.338   9.081  18.166  0.00  0.00    +0.000 NA
BRANCH   5  12
ATOM      7  C   UNL     1      10.420  12.056  18.229  0.00  0.00    +0.000 A 
ATOM      8  C   UNL     1      11.211  12.744  19.166  0.00  0.00    +0.000 A 
ATOM      9  C   UNL     1      11.077  12.522  20.540  0.00  0.00    +0.000 A 
ATOM     10  C   UNL     1      10.152  11.594  20.994  0.00  0.00    +0.000 A 
ATOM     11  C   UNL     1       9.353  10.916  20.076  0.00  0.00    +0.000 A 
ATOM     12  C   UNL     1       9.469  11.132  18.684  0.00  0.00    +0.000 A 
BRANCH   7  14
ATOM     13  C   UNL     1      11.463  13.537  16.669  0.00  0.00    +0.000 C 
ATOM     14  O   UNL     1      10.803  12.311  16.940  0.00  0.00    +0.000 OA
ENDBRANCH   7  14
ENDBRANCH   5  12
ENDBRANCH   1   6
BRANCH   2  15
ATOM     15  C   UNL     1       6.728   5.964  16.924  0.00  0.00    +0.000 C 
BRANCH  15  16
ATOM     16  C   UNL     1       5.219   5.969  16.840  0.00  0.00    +0.000 C 
BRANCH  16  17
ATOM     17  N   UNL     1       4.390   4.986  17.500  0.00  0.00    +0.000 N 
ATOM     18  C   UNL     1       4.442   3.673  17.083  0.00  0.00    +0.000 A 
ATOM     19  N   UNL     1       3.483   2.952  17.595  0.00  0.00    +0.000 NA
ATOM     20  C   UNL     1       2.853   3.784  18.476  0.00  0.00    +0.000 A 
ATOM     21  C   UNL     1       1.787   3.476  19.334  0.00  0.00    +0.000 A 
ATOM     22  C   UNL     1       1.397   4.416  20.286  0.00  0.00    +0.000 A 
ATOM     23  C   UNL     1       2.014   5.665  20.331  0.00  0.00    +0.000 A 
ATOM     24  C   UNL     1       3.012   6.033  19.408  0.00  0.00    +0.000 A 
ATOM     25  C   UNL     1       3.438   5.059  18.491  0.00  0.00    +0.000 A 
ENDBRANCH  16  17
ENDBRANCH  15  16
ENDBRANCH   2  15
TORSDOF 6
ENDMDL
MODEL 3
REMARK VINA RESULT:      -7.7      1.417      2.020
REMARK  Name = 
REMARK  7 active torsions:
REMARK  status: ('A' for Active; 'I' for Inactive)
REMARK    1  A    between atoms: C_1  and  O_2
REMARK    2  A    between atoms: O_2  and  C_3
REMARK    3  A    between atoms: C_8  and  C_9
REMARK    4  A    between atoms: N_10  and  N_11
REMARK    5  A    between atoms: C_12  and  C_14
REMARK    6  A    between atoms: C_14  and  C_15
REMARK    7  A    between atoms: C_15  and  N_16
REMARK                            x       y       z     vdW  Elec       q    Type
REMARK                         _______ _______ _______ _____ _____    ______ ____
ROOT
ATOM      1  N   UNL     1       8.549   7.951  18.890  0.00  0.00    +0.000 N 
ATOM      2  C   UNL     1       7.790   7.248  17.957  0.00  0.00    +0.000 C 
ATOM      3  O   UNL     1       7.386   7.763  16.914  0.00  0.00    +0.000 OA
ATOM      4  H   UNL     1       8.814   7.589  19.799  0.00  0.00    +0.000 HD
ENDROOT
BRANCH   1   6
ATOM      5  C   UNL     1       9.359  10.037  19.467  0.00  0.00    +0.000 C 
ATOM      6  N   UNL     1       8.771   9.267  18.609  0.00  0.00    +0.000 NA
BRANCH   5  12
ATOM      7  C   UNL     1       9.240  12.555  19.964  0.00  0.00    +0.000 A 
ATOM      8  C   UNL     1       9.436  13.866  19.494  0.00  0.00    +0.000 A 
ATOM      9  C   UNL     1       9.927  14.117  18.208  0.00  0.00    +0.000 A 
ATOM     10  C   UNL     1      10.217  13.052  17.369  0.00  0.00    +0.000 A 
ATOM     11  C   UNL     1      10.040  11.749  17.828  0.00  0.00    +0.000 A 
ATOM     12  C   UNL     1       9.552  11.476  19.126  0.00  0.00    +0.000 A 
BRANCH   7  14
ATOM     13  C   UNL     1       7.994  13.716  21.642  0.00  0.00    +0.000 C 
ATOM     14  O   UNL     1       8.622  12.528  21.185  0.00  0.00    +0.000 OA
ENDBRANCH   7  14
ENDBRANCH   5  12
ENDBRANCH   1   6
BRANCH   2  15
ATOM     15  C   UNL     1       7.410   5.823  18.240  0.00  0.00    +0.000 C 
BRANCH  15  16
ATOM     16  C   UNL     1       6.222   5.473  19.107  0.00  0.00    +0.000 C 
BRANCH  16  17
ATOM     17  N   UNL     1       4.890   5.281  18.579  0.00  0.00    +0.000 N 
ATOM     18  C   UNL     1       4.228   6.353  18.020  0.00  0.00    +0.000 A 
ATOM     19  N   UNL     1       2.966   6.099  17.806  0.00  0.00    +0.000 NA
ATOM     20  C   UNL     1       2.819   4.777  18.116  0.00  0.00    +0.000 A 
ATOM     21  C   UNL     1       1.662   3.993  17.999  0.00  0.00    +0.000 A 
ATOM     22  C   UNL     1       1.760   2.618  18.202  0.00  0.00    +0.000 A 
ATOM     23  C   UNL     1       2.975   2.050  18.582  0.00  0.00    +0.000 A 
ATOM     24  C   UNL     1       4.121   2.834  18.810  0.00  0.00    +0.000 A 
ATOM     25  C   UNL     1       4.028   4.210  18.547  0.00  0.00    +0.000 A 
ENDBRANCH  16  17
ENDBRANCH  15  16
ENDBRANCH   2  15
TORSDOF 6
ENDMDL
MODEL 4
REMARK VINA RESULT:      -7.7      0.957      1.503
REMARK  Name = 
REMARK  7 active torsions:
REMARK  status: ('A' for Active; 'I' for Inactive)
REMARK    1  A    between atoms: C_1  and  O_2
REMARK    2  A    between atoms: O_2  and  C_3
REMARK    3  A    between atoms: C_8  and  C_9
REMARK    4  A    between atoms: N_10  and  N_11
REMARK    5  A    between atoms: C_12  and  C_14
REMARK    6  A    between atoms: C_14  and  C_15
REMARK    7  A    between atoms: C_15  and  N_16
REMARK                            x       y       z     vdW  Elec       q    Type
REMARK                         _______ _______ _______ _____ _____    ______ ____
ROOT
ATOM      1  N   UNL     1       7.553   8.699  17.476  0.00  0.00    +0.000 N 
ATOM      2  C   UNL     1       7.497   7.329  17.724  0.00  0.00    +0.000 C 
ATOM      3  O   UNL     1       8.167   6.791  18.607  0.00  0.00    +0.000 OA
ATOM      4  H   UNL     1       7.092   9.157  16.698  0.00  0.00    +0.000 HD
ENDROOT
BRANCH   1   6
ATOM      5  C   UNL     1       8.985  10.488  17.773  0.00  0.00    +0.000 C 
ATOM      6  N   UNL     1       8.442   9.406  18.230  0.00  0.00    +0.000 NA
BRANCH   5  12
ATOM      7  C   UNL     1       9.775  11.575  19.964  0.00  0.00    +0.000 A 
ATOM      8  C   UNL     1      10.782  12.291  20.635  0.00  0.00    +0.000 A 
ATOM      9  C   UNL     1      11.972  12.653  19.997  0.00  0.00    +0.000 A 
ATOM     10  C   UNL     1      12.164  12.312  18.667  0.00  0.00    +0.000 A 
ATOM     11  C   UNL     1      11.180  11.590  17.995  0.00  0.00    +0.000 A 
ATOM     12  C   UNL     1       9.974  11.209  18.625  0.00  0.00    +0.000 A 
BRANCH   7  14
ATOM     13  C   UNL     1       8.725  11.719  22.107  0.00  0.00    +0.000 C 
ATOM     14  O   UNL     1       8.640  11.445  20.717  0.00  0.00    +0.000 OA
ENDBRANCH   7  14
ENDBRANCH   5  12
ENDBRANCH   1   6
BRANCH   2  15
ATOM     15  C   UNL     1       6.623   6.460  16.866  0.00  0.00    +0.000 C 
BRANCH  15  16
ATOM     16  C   UNL     1       5.959   5.216  17.409  0.00  0.00    +0.000 C 
BRANCH  16  17
ATOM     17  N   UNL     1       4.533   5.110  17.618  0.00  0.00    +0.000 N 
ATOM     18  C   UNL     1       3.776   6.260  17.680  0.00  0.00    +0.000 A 
ATOM     19  N   UNL     1       2.564   6.033  18.106  0.00  0.00    +0.000 NA
ATOM     20  C   UNL     1       2.478   4.674  18.207  0.00  0.00    +0.000 A 
ATOM     21  C   UNL     1       1.359   3.909  18.566  0.00  0.00    +0.000 A 
ATOM     22  C   UNL     1       1.424   2.523  18.442  0.00  0.00    +0.000 A 
ATOM     23  C   UNL     1       2.608   1.911  18.035  0.00  0.00    +0.000 A 
ATOM     24  C   UNL     1       3.776   2.654  17.775  0.00  0.00    +0.000 A 
ATOM     25  C   UNL     1       3.684   4.052  17.846  0.00  0.00    +0.000 A 
ENDBRANCH  16  17
ENDBRANCH  15  16
ENDBRANCH   2  15
TORSDOF 6
ENDMDL
MODEL 5
REMARK VINA RESULT:      -7.6      1.629      2.187
REMARK  Name = 
REMARK  7 active torsions:
REMARK  status: ('A' for Active; 'I' for Inactive)
REMARK    1  A    between atoms: C_1  and  O_2
REMARK    2  A    between atoms: O_2  and  C_3
REMARK    3  A    between atoms: C_8  and  C_9
REMARK    4  A    between atoms: N_10  and  N_11
REMARK    5  A    between atoms: C_12  and  C_14
REMARK    6  A    between atoms: C_14  and  C_15
REMARK    7  A    between atoms: C_15  and  N_16
REMARK                            x       y       z     vdW  Elec       q    Type
REMARK                         _______ _______ _______ _____ _____    ______ ____
ROOT
ATOM      1  N   UNL     1       7.732   8.435  17.393  0.00  0.00    +0.000 N 
ATOM      2  C   UNL     1       7.721   7.132  17.884  0.00  0.00    +0.000 C 
ATOM      3  O   UNL     1       8.326   6.807  18.906  0.00  0.00    +0.000 OA
ATOM      4  H   UNL     1       7.327   8.715  16.506  0.00  0.00    +0.000 HD
ENDROOT
BRANCH   1   6
ATOM      5  C   UNL     1       8.311  10.599  17.961  0.00  0.00    +0.000 C 
ATOM      6  N   UNL     1       8.505   9.325  18.079  0.00  0.00    +0.000 NA
BRANCH   5  12
ATOM      7  C   UNL     1       9.236  12.924  18.546  0.00  0.00    +0.000 A 
ATOM      8  C   UNL     1      10.160  13.678  19.291  0.00  0.00    +0.000 A 
ATOM      9  C   UNL     1      11.050  13.072  20.184  0.00  0.00    +0.000 A 
ATOM     10  C   UNL     1      11.033  11.694  20.333  0.00  0.00    +0.000 A 
ATOM     11  C   UNL     1      10.113  10.937  19.611  0.00  0.00    +0.000 A 
ATOM     12  C   UNL     1       9.202  11.532  18.709  0.00  0.00    +0.000 A 
BRANCH   7  14
ATOM     13  C   UNL     1       7.663  14.672  18.118  0.00  0.00    +0.000 C 
ATOM     14  O   UNL     1       8.561  13.686  17.632  0.00  0.00    +0.000 OA
ENDBRANCH   7  14
ENDBRANCH   5  12
ENDBRANCH   1   6
BRANCH   2  15
ATOM     15  C   UNL     1       6.980   6.066  17.127  0.00  0.00    +0.000 C 
BRANCH  15  16
ATOM     16  C   UNL     1       6.181   4.996  17.835  0.00  0.00    +0.000 C 
BRANCH  16  17
ATOM     17  N   UNL     1       4.736   4.973  17.852  0.00  0.00    +0.000 N 
ATOM     18  C   UNL     1       4.044   6.160  17.745  0.00  0.00    +0.000 A 
ATOM     19  N   UNL     1       2.775   6.020  18.012  0.00  0.00    +0.000 NA
ATOM     20  C   UNL     1       2.600   4.676  18.177  0.00  0.00    +0.000 A 
ATOM     21  C   UNL     1       1.401   3.990  18.420  0.00  0.00    +0.000 A 
ATOM     22  C   UNL     1       1.403   2.597  18.384  0.00  0.00    +0.000 A 
ATOM     23  C   UNL     1       2.595   1.904  18.179  0.00  0.00    +0.000 A 
ATOM     24  C   UNL     1       3.827   2.571  18.040  0.00  0.00    +0.000 A 
ATOM     25  C   UNL     1       3.805   3.975  18.020  0.00  0.00    +0.000 A 
ENDBRANCH  16  17
ENDBRANCH  15  16
ENDBRANCH   2  15
TORSDOF 6
ENDMDL
MODEL 6
REMARK VINA RESULT:      -7.5      6.220      9.940
REMARK  Name = 
REMARK  7 active torsions:
REMARK  status: ('A' for Active; 'I' for Inactive)
REMARK    1  A    between atoms: C_1  and  O_2
REMARK    2  A    between atoms: O_2  and  C_3
REMARK    3  A    between atoms: C_8  and  C_9
REMARK    4  A    between atoms: N_10  and  N_11
REMARK    5  A    between atoms: C_12  and  C_14
REMARK    6  A    between atoms: C_14  and  C_15
REMARK    7  A    between atoms: C_15  and  N_16
REMARK                            x       y       z     vdW  Elec       q    Type
REMARK                         _______ _______ _______ _____ _____    ______ ____
ROOT
ATOM      1  N   UNL     1       1.749   8.054  21.243  0.00  0.00    +0.000 N 
ATOM      2  C   UNL     1       0.579   8.750  21.540  0.00  0.00    +0.000 C 
ATOM      3  O   UNL     1      -0.534   8.227  21.471  0.00  0.00    +0.000 OA
ATOM      4  H   UNL     1       2.669   8.478  21.196  0.00  0.00    +0.000 HD
ENDROOT
BRANCH   1   6
ATOM      5  C   UNL     1       2.294   6.306  19.833  0.00  0.00    +0.000 C 
ATOM      6  N   UNL     1       1.587   6.770  20.813  0.00  0.00    +0.000 NA
BRANCH   5  12
ATOM      7  C   UNL     1       2.613   4.322  18.232  0.00  0.00    +0.000 A 
ATOM      8  C   UNL     1       2.270   2.999  17.902  0.00  0.00    +0.000 A 
ATOM      9  C   UNL     1       1.383   2.255  18.688  0.00  0.00    +0.000 A 
ATOM     10  C   UNL     1       0.816   2.836  19.812  0.00  0.00    +0.000 A 
ATOM     11  C   UNL     1       1.159   4.141  20.157  0.00  0.00    +0.000 A 
ATOM     12  C   UNL     1       2.058   4.905  19.380  0.00  0.00    +0.000 A 
BRANCH   7  14
ATOM     13  C   UNL     1       4.787   4.893  17.420  0.00  0.00    +0.000 C 
ATOM     14  O   UNL     1       3.377   4.916  17.265  0.00  0.00    +0.000 OA
ENDBRANCH   7  14
ENDBRANCH   5  12
ENDBRANCH   1   6
BRANCH   2  15
ATOM     15  C   UNL     1       0.661  10.201  21.919  0.00  0.00    +0.000 C 
BRANCH  15  16
ATOM     16  C   UNL     1       0.603  11.299  20.882  0.00  0.00    +0.000 C 
BRANCH  16  17
ATOM     17  N   UNL     1      -0.602  11.636  20.158  0.00  0.00    +0.000 N 
ATOM     18  C   UNL     1      -1.387  12.676  20.607  0.00  0.00    +0.000 A 
ATOM     19  N   UNL     1      -2.547  12.715  20.011  0.00  0.00    +0.000 NA
ATOM     20  C   UNL     1      -2.477  11.749  19.049  0.00  0.00    +0.000 A 
ATOM     21  C   UNL     1      -3.445  11.424  18.088  0.00  0.00    +0.000 A 
ATOM     22  C   UNL     1      -3.114  10.521  17.079  0.00  0.00    +0.000 A 
ATOM     23  C   UNL     1      -1.865   9.904  17.073  0.00  0.00    +0.000 A 
ATOM     24  C   UNL     1      -0.919  10.135  18.090  0.00  0.00    +0.000 A 
ATOM     25  C   UNL     1      -1.239  11.089  19.069  0.00  0.00    +0.000 A 
ENDBRANCH  16  17
ENDBRANCH  15  16
ENDBRANCH   2  15
TORSDOF 6
ENDMDL
MODEL 7
REMARK VINA RESULT:      -7.4      1.646      2.151
REMARK  Name = 
REMARK  7 active torsions:
REMARK  status: ('A' for Active; 'I' for Inactive)
REMARK    1  A    between atoms: C_1  and  O_2
REMARK    2  A    between atoms: O_2  and  C_3
REMARK    3  A    between atoms: C_8  and  C_9
REMARK    4  A    between atoms: N_10  and  N_11
REMARK    5  A    between atoms: C_12  and  C_14
REMARK    6  A    between atoms: C_14  and  C_15
REMARK    7  A    between atoms: C_15  and  N_16
REMARK                            x       y       z     vdW  Elec       q    Type
REMARK                         _______ _______ _______ _____ _____    ______ ____
ROOT
ATOM      1  N   UNL     1       8.448   7.767  18.705  0.00  0.00    +0.000 N 
ATOM      2  C   UNL     1       7.610   7.134  17.789  0.00  0.00    +0.000 C 
ATOM      3  O   UNL     1       7.088   7.734  16.849  0.00  0.00    +0.000 OA
ATOM      4  H   UNL     1       8.814   7.327  19.542  0.00  0.00    +0.000 HD
ENDROOT
BRANCH   1   6
ATOM      5  C   UNL     1       9.241   9.817  19.417  0.00  0.00    +0.000 C 
ATOM      6  N   UNL     1       8.612   9.110  18.534  0.00  0.00    +0.000 NA
BRANCH   5  12
ATOM      7  C   UNL     1       9.517  12.245  20.213  0.00  0.00    +0.000 A 
ATOM      8  C   UNL     1       9.584  13.605  19.864  0.00  0.00    +0.000 A 
ATOM      9  C   UNL     1       9.496  14.025  18.533  0.00  0.00    +0.000 A 
ATOM     10  C   UNL     1       9.328  13.082  17.530  0.00  0.00    +0.000 A 
ATOM     11  C   UNL     1       9.275  11.730  17.862  0.00  0.00    +0.000 A 
ATOM     12  C   UNL     1       9.368  11.287  19.200  0.00  0.00    +0.000 A 
BRANCH   7  14
ATOM     13  C   UNL     1       8.515  12.782  22.315  0.00  0.00    +0.000 C 
ATOM     14  O   UNL     1       9.479  12.057  21.568  0.00  0.00    +0.000 OA
ENDBRANCH   7  14
ENDBRANCH   5  12
ENDBRANCH   1   6
BRANCH   2  15
ATOM     15  C   UNL     1       7.291   5.677  17.968  0.00  0.00    +0.000 C 
BRANCH  15  16
ATOM     16  C   UNL     1       5.987   5.083  17.487  0.00  0.00    +0.000 C 
BRANCH  16  17
ATOM     17  N   UNL     1       4.743   5.222  18.210  0.00  0.00    +0.000 N 
ATOM     18  C   UNL     1       4.001   6.373  18.053  0.00  0.00    +0.000 A 
ATOM     19  N   UNL     1       3.041   6.467  18.932  0.00  0.00    +0.000 NA
ATOM     20  C   UNL     1       3.071   5.282  19.610  0.00  0.00    +0.000 A 
ATOM     21  C   UNL     1       2.202   4.850  20.623  0.00  0.00    +0.000 A 
ATOM     22  C   UNL     1       2.292   3.533  21.069  0.00  0.00    +0.000 A 
ATOM     23  C   UNL     1       3.277   2.687  20.562  0.00  0.00    +0.000 A 
ATOM     24  C   UNL     1       4.228   3.133  19.624  0.00  0.00    +0.000 A 
ATOM     25  C   UNL     1       4.093   4.443  19.138  0.00  0.00    +0.000 A 
ENDBRANCH  16  17
ENDBRANCH  15  16
ENDBRANCH   2  15
TORSDOF 6
ENDMDL
MODEL 8
REMARK VINA RESULT:      -7.4      1.819      2.071
REMARK  Name = 
REMARK  7 active torsions:
REMARK  status: ('A' for Active; 'I' for Inactive)
REMARK    1  A    between atoms: C_1  and  O_2
REMARK    2  A    between atoms: O_2  and  C_3
REMARK    3  A    between atoms: C_8  and  C_9
REMARK    4  A    between atoms: N_10  and  N_11
REMARK    5  A    between atoms: C_12  and  C_14
REMARK    6  A    between atoms: C_14  and  C_15
REMARK    7  A    between atoms: C_15  and  N_16
REMARK                            x       y       z     vdW  Elec       q    Type
REMARK                         _______ _______ _______ _____ _____    ______ ____
ROOT
ATOM      1  N   UNL     1       7.530   8.400  17.403  0.00  0.00    +0.000 N 
ATOM      2  C   UNL     1       7.584   7.078  17.840  0.00  0.00    +0.000 C 
ATOM      3  O   UNL     1       8.162   6.750  18.877  0.00  0.00    +0.000 OA
ATOM      4  H   UNL     1       7.149   8.690  16.509  0.00  0.00    +0.000 HD
ENDROOT
BRANCH   1   6
ATOM      5  C   UNL     1       8.438  10.502  17.718  0.00  0.00    +0.000 C 
ATOM      6  N   UNL     1       8.209   9.307  18.161  0.00  0.00    +0.000 NA
BRANCH   5  12
ATOM      7  C   UNL     1       9.015  12.835  18.627  0.00  0.00    +0.000 A 
ATOM      8  C   UNL     1       9.849  13.612  19.450  0.00  0.00    +0.000 A 
ATOM      9  C   UNL     1      10.873  13.036  20.209  0.00  0.00    +0.000 A 
ATOM     10  C   UNL     1      11.083  11.667  20.142  0.00  0.00    +0.000 A 
ATOM     11  C   UNL     1      10.255  10.884  19.341  0.00  0.00    +0.000 A 
ATOM     12  C   UNL     1       9.211  11.448  18.572  0.00  0.00    +0.000 A 
BRANCH   7  14
ATOM     13  C   UNL     1       7.589  14.746  18.464  0.00  0.00    +0.000 C 
ATOM     14  O   UNL     1       8.177  13.602  17.865  0.00  0.00    +0.000 OA
ENDBRANCH   7  14
ENDBRANCH   5  12
ENDBRANCH   1   6
BRANCH   2  15
ATOM     15  C   UNL     1       6.952   6.001  17.006  0.00  0.00    +0.000 C 
BRANCH  15  16
ATOM     16  C   UNL     1       5.469   5.986  16.715  0.00  0.00    +0.000 C 
BRANCH  16  17
ATOM     17  N   UNL     1       4.553   5.055  17.334  0.00  0.00    +0.000 N 
ATOM     18  C   UNL     1       4.483   3.763  16.858  0.00  0.00    +0.000 A 
ATOM     19  N   UNL     1       3.463   3.111  17.341  0.00  0.00    +0.000 NA
ATOM     20  C   UNL     1       2.913   3.956  18.263  0.00  0.00    +0.000 A 
ATOM     21  C   UNL     1       1.824   3.710  19.111  0.00  0.00    +0.000 A 
ATOM     22  C   UNL     1       1.523   4.638  20.106  0.00  0.00    +0.000 A 
ATOM     23  C   UNL     1       2.253   5.821  20.204  0.00  0.00    +0.000 A 
ATOM     24  C   UNL     1       3.280   6.137  19.294  0.00  0.00    +0.000 A 
ATOM     25  C   UNL     1       3.614   5.170  18.332  0.00  0.00    +0.000 A 
ENDBRANCH  16  17
ENDBRANCH  15  16
ENDBRANCH   2  15
TORSDOF 6
ENDMDL
MODEL 9
REMARK VINA RESULT:      -7.3      2.284     10.019
REMARK  Name = 
REMARK  7 active torsions:
REMARK  status: ('A' for Active; 'I' for Inactive)
REMARK    1  A    between atoms: C_1  and  O_2
REMARK    2  A    between atoms: O_2  and  C_3
REMARK    3  A    between atoms: C_8  and  C_9
REMARK    4  A    between atoms: N_10  and  N_11
REMARK    5  A    between atoms: C_12  and  C_14
REMARK    6  A    between atoms: C_14  and  C_15
REMARK    7  A    between atoms: C_15  and  N_16
REMARK                            x       y       z     vdW  Elec       q    Type
REMARK                         _______ _______ _______ _____ _____    ______ ____
ROOT
ATOM      1  N   UNL     1       6.821   8.083  17.240  0.00  0.00    +0.000 N 
ATOM      2  C   UNL     1       7.959   8.242  18.027  0.00  0.00    +0.000 C 
ATOM      3  O   UNL     1       8.372   7.355  18.776  0.00  0.00    +0.000 OA
ATOM      4  H   UNL     1       6.401   8.823  16.689  0.00  0.00    +0.000 HD
ENDROOT
BRANCH   1   6
ATOM      5  C   UNL     1       4.932   6.778  16.975  0.00  0.00    +0.000 C 
ATOM      6  N   UNL     1       6.151   6.905  17.391  0.00  0.00    +0.000 NA
BRANCH   5  12
ATOM      7  C   UNL     1       4.730   4.221  16.829  0.00  0.00    +0.000 A 
ATOM      8  C   UNL     1       3.941   3.080  17.056  0.00  0.00    +0.000 A 
ATOM      9  C   UNL     1       2.667   3.173  17.627  0.00  0.00    +0.000 A 
ATOM     10  C   UNL     1       2.162   4.418  17.967  0.00  0.00    +0.000 A 
ATOM     11  C   UNL     1       2.940   5.555  17.760  0.00  0.00    +0.000 A 
ATOM     12  C   UNL     1       4.231   5.480  17.191  0.00  0.00    +0.000 A 
BRANCH   7  14
ATOM     13  C   UNL     1       5.867   4.108  14.729  0.00  0.00    +0.000 C 
ATOM     14  O   UNL     1       5.875   3.931  16.137  0.00  0.00    +0.000 OA
ENDBRANCH   7  14
ENDBRANCH   5  12
ENDBRANCH   1   6
BRANCH   2  15
ATOM     15  C   UNL     1       8.696   9.550  18.000  0.00  0.00    +0.000 C 
BRANCH  15  16
ATOM     16  C   UNL     1       9.302  10.149  19.249  0.00  0.00    +0.000 C 
BRANCH  16  17
ATOM     17  N   UNL     1       9.625  11.552  19.374  0.00  0.00    +0.000 N 
ATOM     18  C   UNL     1       9.269  12.224  20.523  0.00  0.00    +0.000 A 
ATOM     19  N   UNL     1       9.404  13.516  20.404  0.00  0.00    +0.000 NA
ATOM     20  C   UNL     1       9.987  13.695  19.182  0.00  0.00    +0.000 A 
ATOM     21  C   UNL     1      10.402  14.900  18.597  0.00  0.00    +0.000 A 
ATOM     22  C   UNL     1      11.136  14.855  17.414  0.00  0.00    +0.000 A 
ATOM     23  C   UNL     1      11.390  13.634  16.792  0.00  0.00    +0.000 A 
ATOM     24  C   UNL     1      10.889  12.422  17.306  0.00  0.00    +0.000 A 
ATOM     25  C   UNL     1      10.201  12.471  18.528  0.00  0.00    +0.000 A 
ENDBRANCH  16  17
ENDBRANCH  15  16
ENDBRANCH   2  15
TORSDOF 6
ENDMDL
