MODEL 1
REMARK VINA RESULT:      -7.6      0.000      0.000
REMARK  Name = 
REMARK  8 active torsions:
REMARK  status: ('A' for Active; 'I' for Inactive)
REMARK    1  A    between atoms: C_1  and  O_2
REMARK    2  A    between atoms: O_2  and  C_3
REMARK    3  A    between atoms: C_5  and  O_6
REMARK    4  A    between atoms: O_6  and  C_7
REMARK    5  A    between atoms: C_10  and  N_11
REMARK    6  A    between atoms: N_22  and  C_23
REMARK    7  A    between atoms: C_23  and  C_24
REMARK    8  A    between atoms: C_24  and  O_25
REMARK                            x       y       z     vdW  Elec       q    Type
REMARK                         _______ _______ _______ _____ _____    ______ ____
ROOT
ATOM      1  N   UNL     1       3.792   6.462  17.606  0.00  0.00    +0.000 N 
ATOM      2  C   UNL     1       3.259   7.730  17.166  0.00  0.00    +0.000 C 
ATOM      3  C   UNL     1       2.423   8.380  18.228  0.00  0.00    +0.000 A 
ATOM      4  C   UNL     1       2.075   9.723  18.114  0.00  0.00    +0.000 A 
ATOM      5  N   UNL     1       1.328  10.422  18.990  0.00  0.00    +0.000 NA
ATOM      6  C   UNL     1       0.932   9.688  20.044  0.00  0.00    +0.000 A 
ATOM      7  N   UNL     1       0.166  10.191  21.059  0.00  0.00    +0.000 N 
ATOM      8  C   UNL     1      -0.078   9.218  21.986  0.00  0.00    +0.000 A 
ATOM      9  C   UNL     1       0.542   8.068  21.547  0.00  0.00    +0.000 A 
ATOM     10  C   UNL     1       1.191   8.341  20.301  0.00  0.00    +0.000 A 
ATOM     11  C   UNL     1       1.964   7.641  19.337  0.00  0.00    +0.000 A 
ATOM     12  N   UNL     1       2.282   6.254  19.392  0.00  0.00    +0.000 N 
ATOM     13  C   UNL     1       3.046   5.625  18.418  0.00  0.00    +0.000 C 
ATOM     14  O   UNL     1       3.151   4.395  18.360  0.00  0.00    +0.000 OA
ATOM     15  H   UNL     1      -0.160  11.145  21.091  0.00  0.00    +0.000 HD
ENDROOT
BRANCH   1  21
ATOM     16  C   UNL     1       7.214   5.007  17.831  0.00  0.00    +0.000 A 
ATOM     17  C   UNL     1       7.540   4.860  16.487  0.00  0.00    +0.000 A 
ATOM     18  C   UNL     1       6.657   5.293  15.482  0.00  0.00    +0.000 A 
ATOM     19  C   UNL     1       5.436   5.888  15.834  0.00  0.00    +0.000 A 
ATOM     20  F   UNL     1       4.575   6.306  14.893  0.00  0.00    +0.000 F 
ATOM     21  C   UNL     1       5.065   5.987  17.177  0.00  0.00    +0.000 A 
ATOM     22  C   UNL     1       5.982   5.568  18.159  0.00  0.00    +0.000 A 
ATOM     23  F   UNL     1       5.691   5.760  19.460  0.00  0.00    +0.000 F 
BRANCH  16  25
ATOM     24  C   UNL     1       8.333   5.681  19.823  0.00  0.00    +0.000 C 
ATOM     25  O   UNL     1       8.000   4.661  18.895  0.00  0.00    +0.000 OA
ENDBRANCH  16  25
BRANCH  18  26
ATOM     26  O   UNL     1       7.131   5.053  14.219  0.00  0.00    +0.000 OA
ATOM     27  C   UNL     1       6.502   4.023  13.469  0.00  0.00    +0.000 C 
ENDBRANCH  18  26
ENDBRANCH   1  21
BRANCH  12  28
ATOM     28  C   UNL     1       2.051   5.457  20.587  0.00  0.00    +0.000 C 
BRANCH  28  29
ATOM     29  C   UNL     1       0.908   4.454  20.483  0.00  0.00    +0.000 C 
BRANCH  29  30
ATOM     30  O   UNL     1       1.435   3.127  20.423  0.00  0.00    +0.000 OA
ATOM     31  H   UNL     1       0.718   2.526  20.694  0.00  0.00    +0.000 HD
ENDBRANCH  29  30
ENDBRANCH  28  29
ENDBRANCH  12  28
TORSDOF 6
ENDMDL
MODEL 2
REMARK VINA RESULT:      -7.3      0.294      2.684
REMARK  Name = 
REMARK  8 active torsions:
REMARK  status: ('A' for Active; 'I' for Inactive)
REMARK    1  A    between atoms: C_1  and  O_2
REMARK    2  A    between atoms: O_2  and  C_3
REMARK    3  A    between atoms: C_5  and  O_6
REMARK    4  A    between atoms: O_6  and  C_7
REMARK    5  A    between atoms: C_10  and  N_11
REMARK    6  A    between atoms: N_22  and  C_23
REMARK    7  A    between atoms: C_23  and  C_24
REMARK    8  A    between atoms: C_24  and  O_25
REMARK                            x       y       z     vdW  Elec       q    Type
REMARK                         _______ _______ _______ _____ _____    ______ ____
ROOT
ATOM      1  N   UNL     1       3.798   6.353  17.785  0.00  0.00    +0.000 N 
ATOM      2  C   UNL     1       3.354   7.618  17.248  0.00  0.00    +0.000 C 
ATOM      3  C   UNL     1       2.478   8.356  18.217  0.00  0.00    +0.000 A 
ATOM      4  C   UNL     1       2.200   9.705  18.014  0.00  0.00    +0.000 A 
ATOM      5  N   UNL     1       1.428  10.479  18.801  0.00  0.00    +0.000 NA
ATOM      6  C   UNL     1       0.929   9.817  19.860  0.00  0.00    +0.000 A 
ATOM      7  N   UNL     1       0.121  10.403  20.794  0.00  0.00    +0.000 N 
ATOM      8  C   UNL     1      -0.229   9.491  21.747  0.00  0.00    +0.000 A 
ATOM      9  C   UNL     1       0.366   8.295  21.409  0.00  0.00    +0.000 A 
ATOM     10  C   UNL     1       1.110   8.476  20.199  0.00  0.00    +0.000 A 
ATOM     11  C   UNL     1       1.913   7.696  19.326  0.00  0.00    +0.000 A 
ATOM     12  N   UNL     1       2.164   6.301  19.471  0.00  0.00    +0.000 N 
ATOM     13  C   UNL     1       2.962   5.591  18.583  0.00  0.00    +0.000 C 
ATOM     14  O   UNL     1       3.015   4.356  18.593  0.00  0.00    +0.000 OA
ATOM     15  H   UNL     1      -0.164  11.371  20.757  0.00  0.00    +0.000 HD
ENDROOT
BRANCH   1  21
ATOM     16  C   UNL     1       6.695   5.261  15.713  0.00  0.00    +0.000 A 
ATOM     17  C   UNL     1       7.619   4.913  16.693  0.00  0.00    +0.000 A 
ATOM     18  C   UNL     1       7.280   4.980  18.056  0.00  0.00    +0.000 A 
ATOM     19  C   UNL     1       5.994   5.393  18.436  0.00  0.00    +0.000 A 
ATOM     20  F   UNL     1       5.648   5.467  19.731  0.00  0.00    +0.000 F 
ATOM     21  C   UNL     1       5.074   5.804  17.469  0.00  0.00    +0.000 A 
ATOM     22  C   UNL     1       5.436   5.702  16.113  0.00  0.00    +0.000 A 
ATOM     23  F   UNL     1       4.524   5.985  15.162  0.00  0.00    +0.000 F 
BRANCH  16  25
ATOM     24  C   UNL     1       6.466   4.031  13.686  0.00  0.00    +0.000 C 
ATOM     25  O   UNL     1       6.892   5.204  14.361  0.00  0.00    +0.000 OA
ENDBRANCH  16  25
BRANCH  18  26
ATOM     26  O   UNL     1       8.315   4.620  18.878  0.00  0.00    +0.000 OA
ATOM     27  C   UNL     1       8.519   5.397  20.051  0.00  0.00    +0.000 C 
ENDBRANCH  18  26
ENDBRANCH   1  21
BRANCH  12  28
ATOM     28  C   UNL     1       1.818   5.577  20.684  0.00  0.00    +0.000 C 
BRANCH  28  29
ATOM     29  C   UNL     1       0.851   4.414  20.488  0.00  0.00    +0.000 C 
BRANCH  29  30
ATOM     30  O   UNL     1       1.404   3.227  21.059  0.00  0.00    +0.000 OA
ATOM     31  H   UNL     1       2.365   3.258  20.899  0.00  0.00    +0.000 HD
ENDBRANCH  29  30
ENDBRANCH  28  29
ENDBRANCH  12  28
TORSDOF 6
ENDMDL
MODEL 3
REMARK VINA RESULT:      -6.9      6.649     10.777
REMARK  Name = 
REMARK  8 active torsions:
REMARK  status: ('A' for Active; 'I' for Inactive)
REMARK    1  A    between atoms: C_1  and  O_2
REMARK    2  A    between atoms: O_2  and  C_3
REMARK    3  A    between atoms: C_5  and  O_6
REMARK    4  A    between atoms: O_6  and  C_7
REMARK    5  A    between atoms: C_10  and  N_11
REMARK    6  A    between atoms: N_22  and  C_23
REMARK    7  A    between atoms: C_23  and  C_24
REMARK    8  A    between atoms: C_24  and  O_25
REMARK                            x       y       z     vdW  Elec       q    Type
REMARK                         _______ _______ _______ _____ _____    ______ ____
ROOT
ATOM      1  N   UNL     1      -1.423  12.192  22.077  0.00  0.00    +0.000 N 
ATOM      2  C   UNL     1      -0.928  10.971  22.669  0.00  0.00    +0.000 C 
ATOM      3  C   UNL     1      -0.107  10.176  21.697  0.00  0.00    +0.000 A 
ATOM      4  C   UNL     1       0.697   9.136  22.156  0.00  0.00    +0.000 A 
ATOM      5  N   UNL     1       1.475   8.344  21.391  0.00  0.00    +0.000 NA
ATOM      6  C   UNL     1       1.421   8.659  20.086  0.00  0.00    +0.000 A 
ATOM      7  N   UNL     1       2.131   7.992  19.127  0.00  0.00    +0.000 N 
ATOM      8  C   UNL     1       1.878   8.531  17.898  0.00  0.00    +0.000 A 
ATOM      9  C   UNL     1       0.982   9.562  18.079  0.00  0.00    +0.000 A 
ATOM     10  C   UNL     1       0.669   9.661  19.473  0.00  0.00    +0.000 A 
ATOM     11  C   UNL     1      -0.153  10.454  20.317  0.00  0.00    +0.000 A 
ATOM     12  N   UNL     1      -1.034  11.482  19.873  0.00  0.00    +0.000 N 
ATOM     13  C   UNL     1      -1.813  12.227  20.749  0.00  0.00    +0.000 C 
ATOM     14  O   UNL     1      -2.716  12.971  20.352  0.00  0.00    +0.000 OA
ATOM     15  H   UNL     1       2.741   7.213  19.326  0.00  0.00    +0.000 HD
ENDROOT
BRANCH   1  21
ATOM     16  C   UNL     1      -0.704  15.591  23.421  0.00  0.00    +0.000 A 
ATOM     17  C   UNL     1      -1.870  15.859  24.131  0.00  0.00    +0.000 A 
ATOM     18  C   UNL     1      -2.890  14.897  24.225  0.00  0.00    +0.000 A 
ATOM     19  C   UNL     1      -2.733  13.648  23.605  0.00  0.00    +0.000 A 
ATOM     20  F   UNL     1      -3.695  12.715  23.678  0.00  0.00    +0.000 F 
ATOM     21  C   UNL     1      -1.596  13.384  22.837  0.00  0.00    +0.000 A 
ATOM     22  C   UNL     1      -0.582  14.358  22.784  0.00  0.00    +0.000 A 
ATOM     23  F   UNL     1       0.570  14.079  22.143  0.00  0.00    +0.000 F 
BRANCH  16  25
ATOM     24  C   UNL     1       0.286  17.451  22.310  0.00  0.00    +0.000 C 
ATOM     25  O   UNL     1       0.371  16.426  23.288  0.00  0.00    +0.000 OA
ENDBRANCH  16  25
BRANCH  18  26
ATOM     26  O   UNL     1      -3.970  15.337  24.944  0.00  0.00    +0.000 OA
ATOM     27  C   UNL     1      -4.217  16.736  24.963  0.00  0.00    +0.000 C 
ENDBRANCH  18  26
ENDBRANCH   1  21
BRANCH  12  28
ATOM     28  C   UNL     1      -0.995  11.996  18.513  0.00  0.00    +0.000 C 
BRANCH  28  29
ATOM     29  C   UNL     1      -1.964  11.328  17.542  0.00  0.00    +0.000 C 
BRANCH  29  30
ATOM     30  O   UNL     1      -3.197  12.049  17.520  0.00  0.00    +0.000 OA
ATOM     31  H   UNL     1      -3.797  11.565  16.924  0.00  0.00    +0.000 HD
ENDBRANCH  29  30
ENDBRANCH  28  29
ENDBRANCH  12  28
TORSDOF 6
ENDMDL
MODEL 4
REMARK VINA RESULT:      -6.9      2.790      6.897
REMARK  Name = 
REMARK  8 active torsions:
REMARK  status: ('A' for Active; 'I' for Inactive)
REMARK    1  A    between atoms: C_1  and  O_2
REMARK    2  A    between atoms: O_2  and  C_3
REMARK    3  A    between atoms: C_5  and  O_6
REMARK    4  A    between atoms: O_6  and  C_7
REMARK    5  A    between atoms: C_10  and  N_11
REMARK    6  A    between atoms: N_22  and  C_23
REMARK    7  A    between atoms: C_23  and  C_24
REMARK    8  A    between atoms: C_24  and  O_25
REMARK                            x       y       z     vdW  Elec       q    Type
REMARK                         _______ _______ _______ _____ _____    ______ ____
ROOT
ATOM      1  N   UNL     1       3.105   6.830  18.851  0.00  0.00    +0.000 N 
ATOM      2  C   UNL     1       4.500   7.199  18.807  0.00  0.00    +0.000 C 
ATOM      3  C   UNL     1       5.228   6.491  17.702  0.00  0.00    +0.000 A 
ATOM      4  C   UNL     1       6.488   6.930  17.308  0.00  0.00    +0.000 A 
ATOM      5  N   UNL     1       7.247   6.383  16.339  0.00  0.00    +0.000 NA
ATOM      6  C   UNL     1       6.658   5.332  15.742  0.00  0.00    +0.000 A 
ATOM      7  N   UNL     1       7.243   4.623  14.730  0.00  0.00    +0.000 N 
ATOM      8  C   UNL     1       6.414   3.617  14.324  0.00  0.00    +0.000 A 
ATOM      9  C   UNL     1       5.277   3.684  15.100  0.00  0.00    +0.000 A 
ATOM     10  C   UNL     1       5.412   4.771  16.022  0.00  0.00    +0.000 A 
ATOM     11  C   UNL     1       4.659   5.369  17.067  0.00  0.00    +0.000 A 
ATOM     12  N   UNL     1       3.397   4.905  17.537  0.00  0.00    +0.000 N 
ATOM     13  C   UNL     1       2.706   5.535  18.565  0.00  0.00    +0.000 C 
ATOM     14  O   UNL     1       1.719   5.021  19.102  0.00  0.00    +0.000 OA
ATOM     15  H   UNL     1       8.158   4.832  14.359  0.00  0.00    +0.000 HD
ENDROOT
BRANCH   1  21
ATOM     16  C   UNL     1       0.703   8.600  21.082  0.00  0.00    +0.000 A 
ATOM     17  C   UNL     1       0.232   9.603  20.240  0.00  0.00    +0.000 A 
ATOM     18  C   UNL     1       0.658   9.675  18.902  0.00  0.00    +0.000 A 
ATOM     19  C   UNL     1       1.562   8.724  18.404  0.00  0.00    +0.000 A 
ATOM     20  F   UNL     1       1.985   8.775  17.131  0.00  0.00    +0.000 F 
ATOM     21  C   UNL     1       2.092   7.748  19.251  0.00  0.00    +0.000 A 
ATOM     22  C   UNL     1       1.626   7.687  20.578  0.00  0.00    +0.000 A 
ATOM     23  F   UNL     1       2.038   6.684  21.377  0.00  0.00    +0.000 F 
BRANCH  16  25
ATOM     24  C   UNL     1      -0.033   9.545  23.141  0.00  0.00    +0.000 C 
ATOM     25  O   UNL     1       0.338   8.403  22.385  0.00  0.00    +0.000 OA
ENDBRANCH  16  25
BRANCH  18  26
ATOM     26  O   UNL     1       0.110  10.734  18.227  0.00  0.00    +0.000 OA
ATOM     27  C   UNL     1      -0.921  11.463  18.880  0.00  0.00    +0.000 C 
ENDBRANCH  18  26
ENDBRANCH   1  21
BRANCH  12  28
ATOM     28  C   UNL     1       2.626   3.904  16.816  0.00  0.00    +0.000 C 
BRANCH  28  29
ATOM     29  C   UNL     1       2.706   2.493  17.388  0.00  0.00    +0.000 C 
BRANCH  29  30
ATOM     30  O   UNL     1       1.474   2.163  18.031  0.00  0.00    +0.000 OA
ATOM     31  H   UNL     1       1.449   2.662  18.868  0.00  0.00    +0.000 HD
ENDBRANCH  29  30
ENDBRANCH  28  29
ENDBRANCH  12  28
TORSDOF 6
ENDMDL
MODEL 5
REMARK VINA RESULT:      -6.8      2.729      4.746
REMARK  Name = 
REMARK  8 active torsions:
REMARK  status: ('A' for Active; 'I' for Inactive)
REMARK    1  A    between atoms: C_1  and  O_2
REMARK    2  A    between atoms: O_2  and  C_3
REMARK    3  A    between atoms: C_5  and  O_6
REMARK    4  A    between atoms: O_6  and  C_7
REMARK    5  A    between atoms: C_10  and  N_11
REMARK    6  A    between atoms: N_22  and  C_23
REMARK    7  A    between atoms: C_23  and  C_24
REMARK    8  A    between atoms: C_24  and  O_25
REMARK                            x       y       z     vdW  Elec       q    Type
REMARK                         _______ _______ _______ _____ _____    ______ ____
ROOT
ATOM      1  N   UNL     1       2.011   7.925  19.675  0.00  0.00    +0.000 N 
ATOM      2  C   UNL     1       2.058   8.193  21.093  0.00  0.00    +0.000 C 
ATOM      3  C   UNL     1       1.014   9.187  21.507  0.00  0.00    +0.000 A 
ATOM      4  C   UNL     1       0.702   9.347  22.854  0.00  0.00    +0.000 A 
ATOM      5  N   UNL     1      -0.207  10.205  23.356  0.00  0.00    +0.000 NA
ATOM      6  C   UNL     1      -0.830  10.925  22.407  0.00  0.00    +0.000 A 
ATOM      7  N   UNL     1      -1.792  11.855  22.686  0.00  0.00    +0.000 N 
ATOM      8  C   UNL     1      -2.242  12.423  21.529  0.00  0.00    +0.000 A 
ATOM      9  C   UNL     1      -1.546  11.845  20.490  0.00  0.00    +0.000 A 
ATOM     10  C   UNL     1      -0.630  10.885  21.027  0.00  0.00    +0.000 A 
ATOM     11  C   UNL     1       0.354   9.981  20.547  0.00  0.00    +0.000 A 
ATOM     12  N   UNL     1       0.742   9.839  19.184  0.00  0.00    +0.000 N 
ATOM     13  C   UNL     1       1.713   8.934  18.775  0.00  0.00    +0.000 C 
ATOM     14  O   UNL     1       2.187   8.953  17.634  0.00  0.00    +0.000 OA
ATOM     15  H   UNL     1      -2.102  12.074  23.621  0.00  0.00    +0.000 HD
ENDROOT
BRANCH   1  21
ATOM     16  C   UNL     1       1.740   4.271  19.005  0.00  0.00    +0.000 A 
ATOM     17  C   UNL     1       2.717   4.096  18.030  0.00  0.00    +0.000 A 
ATOM     18  C   UNL     1       3.521   5.174  17.618  0.00  0.00    +0.000 A 
ATOM     19  C   UNL     1       3.346   6.438  18.200  0.00  0.00    +0.000 A 
ATOM     20  F   UNL     1       4.100   7.483  17.821  0.00  0.00    +0.000 F 
ATOM     21  C   UNL     1       2.330   6.646  19.136  0.00  0.00    +0.000 A 
ATOM     22  C   UNL     1       1.559   5.542  19.545  0.00  0.00    +0.000 A 
ATOM     23  F   UNL     1       0.652   5.697  20.529  0.00  0.00    +0.000 F 
BRANCH  16  25
ATOM     24  C   UNL     1       1.424   2.521  20.590  0.00  0.00    +0.000 C 
ATOM     25  O   UNL     1       0.924   3.298  19.513  0.00  0.00    +0.000 OA
ENDBRANCH  16  25
BRANCH  18  26
ATOM     26  O   UNL     1       4.414   4.825  16.638  0.00  0.00    +0.000 OA
ATOM     27  C   UNL     1       5.765   4.623  17.027  0.00  0.00    +0.000 C 
ENDBRANCH  18  26
ENDBRANCH   1  21
BRANCH  12  28
ATOM     28  C   UNL     1      -0.018  10.441  18.100  0.00  0.00    +0.000 C 
BRANCH  28  29
ATOM     29  C   UNL     1      -1.210   9.622  17.615  0.00  0.00    +0.000 C 
BRANCH  29  30
ATOM     30  O   UNL     1      -1.873  10.316  16.557  0.00  0.00    +0.000 OA
ATOM     31  H   UNL     1      -1.282  10.282  15.783  0.00  0.00    +0.000 HD
ENDBRANCH  29  30
ENDBRANCH  28  29
ENDBRANCH  12  28
TORSDOF 6
ENDMDL
MODEL 6
REMARK VINA RESULT:      -6.8      6.577     10.751
REMARK  Name = 
REMARK  8 active torsions:
REMARK  status: ('A' for Active; 'I' for Inactive)
REMARK    1  A    between atoms: C_1  and  O_2
REMARK    2  A    between atoms: O_2  and  C_3
REMARK    3  A    between atoms: C_5  and  O_6
REMARK    4  A    between atoms: O_6  and  C_7
REMARK    5  A    between atoms: C_10  and  N_11
REMARK    6  A    between atoms: N_22  and  C_23
REMARK    7  A    between atoms: C_23  and  C_24
REMARK    8  A    between atoms: C_24  and  O_25
REMARK                            x       y       z     vdW  Elec       q    Type
REMARK                         _______ _______ _______ _____ _____    ______ ____
ROOT
ATOM      1  N   UNL     1      -1.410  12.101  21.937  0.00  0.00    +0.000 N 
ATOM      2  C   UNL     1      -0.924  10.888  22.550  0.00  0.00    +0.000 C 
ATOM      3  C   UNL     1      -0.080  10.086  21.604  0.00  0.00    +0.000 A 
ATOM      4  C   UNL     1       0.717   9.053  22.090  0.00  0.00    +0.000 A 
ATOM      5  N   UNL     1       1.513   8.256  21.350  0.00  0.00    +0.000 NA
ATOM      6  C   UNL     1       1.486   8.559  20.040  0.00  0.00    +0.000 A 
ATOM      7  N   UNL     1       2.217   7.884  19.103  0.00  0.00    +0.000 N 
ATOM      8  C   UNL     1       1.989   8.410  17.864  0.00  0.00    +0.000 A 
ATOM      9  C   UNL     1       1.087   9.441  18.016  0.00  0.00    +0.000 A 
ATOM     10  C   UNL     1       0.744   9.552  19.402  0.00  0.00    +0.000 A 
ATOM     11  C   UNL     1      -0.097  10.351  20.220  0.00  0.00    +0.000 A 
ATOM     12  N   UNL     1      -0.972  11.372  19.748  0.00  0.00    +0.000 N 
ATOM     13  C   UNL     1      -1.771  12.123  20.600  0.00  0.00    +0.000 C 
ATOM     14  O   UNL     1      -2.668  12.860  20.178  0.00  0.00    +0.000 OA
ATOM     15  H   UNL     1       2.826   7.109  19.322  0.00  0.00    +0.000 HD
ENDROOT
BRANCH   1  21
ATOM     16  C   UNL     1      -3.113  14.620  24.090  0.00  0.00    +0.000 A 
ATOM     17  C   UNL     1      -2.082  15.524  24.325  0.00  0.00    +0.000 A 
ATOM     18  C   UNL     1      -0.822  15.347  23.727  0.00  0.00    +0.000 A 
ATOM     19  C   UNL     1      -0.598  14.252  22.879  0.00  0.00    +0.000 A 
ATOM     20  F   UNL     1       0.597  14.060  22.300  0.00  0.00    +0.000 F 
ATOM     21  C   UNL     1      -1.602  13.301  22.681  0.00  0.00    +0.000 A 
ATOM     22  C   UNL     1      -2.861  13.521  23.272  0.00  0.00    +0.000 A 
ATOM     23  F   UNL     1      -3.875  12.676  23.001  0.00  0.00    +0.000 F 
BRANCH  16  25
ATOM     24  C   UNL     1      -5.238  15.695  24.029  0.00  0.00    +0.000 C 
ATOM     25  O   UNL     1      -4.387  14.702  24.580  0.00  0.00    +0.000 OA
ENDBRANCH  16  25
BRANCH  18  26
ATOM     26  O   UNL     1       0.076  16.319  24.084  0.00  0.00    +0.000 OA
ATOM     27  C   UNL     1      -0.139  17.627  23.571  0.00  0.00    +0.000 C 
ENDBRANCH  18  26
ENDBRANCH   1  21
BRANCH  12  28
ATOM     28  C   UNL     1      -0.906  11.872  18.384  0.00  0.00    +0.000 C 
BRANCH  28  29
ATOM     29  C   UNL     1      -1.905  11.245  17.417  0.00  0.00    +0.000 C 
BRANCH  29  30
ATOM     30  O   UNL     1      -3.104  12.020  17.393  0.00  0.00    +0.000 OA
ATOM     31  H   UNL     1      -3.822  11.421  17.118  0.00  0.00    +0.000 HD
ENDBRANCH  29  30
ENDBRANCH  28  29
ENDBRANCH  12  28
TORSDOF 6
ENDMDL
MODEL 7
REMARK VINA RESULT:      -6.8      2.789      7.227
REMARK  Name = 
REMARK  8 active torsions:
REMARK  status: ('A' for Active; 'I' for Inactive)
REMARK    1  A    between atoms: C_1  and  O_2
REMARK    2  A    between atoms: O_2  and  C_3
REMARK    3  A    between atoms: C_5  and  O_6
REMARK    4  A    between atoms: O_6  and  C_7
REMARK    5  A    between atoms: C_10  and  N_11
REMARK    6  A    between atoms: N_22  and  C_23
REMARK    7  A    between atoms: C_23  and  C_24
REMARK    8  A    between atoms: C_24  and  O_25
REMARK                            x       y       z     vdW  Elec       q    Type
REMARK                         _______ _______ _______ _____ _____    ______ ____
ROOT
ATOM      1  N   UNL     1       3.184   6.682  19.011  0.00  0.00    +0.000 N 
ATOM      2  C   UNL     1       4.583   7.034  18.948  0.00  0.00    +0.000 C 
ATOM      3  C   UNL     1       5.270   6.378  17.787  0.00  0.00    +0.000 A 
ATOM      4  C   UNL     1       6.525   6.822  17.382  0.00  0.00    +0.000 A 
ATOM      5  N   UNL     1       7.250   6.318  16.364  0.00  0.00    +0.000 NA
ATOM      6  C   UNL     1       6.629   5.309  15.728  0.00  0.00    +0.000 A 
ATOM      7  N   UNL     1       7.176   4.650  14.662  0.00  0.00    +0.000 N 
ATOM      8  C   UNL     1       6.321   3.679  14.226  0.00  0.00    +0.000 A 
ATOM      9  C   UNL     1       5.207   3.718  15.036  0.00  0.00    +0.000 A 
ATOM     10  C   UNL     1       5.383   4.751  16.011  0.00  0.00    +0.000 A 
ATOM     11  C   UNL     1       4.667   5.300  17.108  0.00  0.00    +0.000 A 
ATOM     12  N   UNL     1       3.411   4.829  17.587  0.00  0.00    +0.000 N 
ATOM     13  C   UNL     1       2.758   5.411  18.666  0.00  0.00    +0.000 C 
ATOM     14  O   UNL     1       1.779   4.881  19.202  0.00  0.00    +0.000 OA
ATOM     15  H   UNL     1       8.083   4.866  14.278  0.00  0.00    +0.000 HD
ENDROOT
BRANCH   1  21
ATOM     16  C   UNL     1       0.759   9.510  18.979  0.00  0.00    +0.000 A 
ATOM     17  C   UNL     1       0.133   9.350  20.212  0.00  0.00    +0.000 A 
ATOM     18  C   UNL     1       0.543   8.339  21.099  0.00  0.00    +0.000 A 
ATOM     19  C   UNL     1       1.598   7.485  20.746  0.00  0.00    +0.000 A 
ATOM     20  F   UNL     1       2.004   6.510  21.575  0.00  0.00    +0.000 F 
ATOM     21  C   UNL     1       2.196   7.591  19.488  0.00  0.00    +0.000 A 
ATOM     22  C   UNL     1       1.781   8.629  18.633  0.00  0.00    +0.000 A 
ATOM     23  F   UNL     1       2.422   8.819  17.464  0.00  0.00    +0.000 F 
BRANCH  16  25
ATOM     24  C   UNL     1       0.047  11.738  18.527  0.00  0.00    +0.000 C 
ATOM     25  O   UNL     1       0.478  10.473  18.050  0.00  0.00    +0.000 OA
ENDBRANCH  16  25
BRANCH  18  26
ATOM     26  O   UNL     1      -0.194   8.317  22.254  0.00  0.00    +0.000 OA
ATOM     27  C   UNL     1      -0.203   9.495  23.048  0.00  0.00    +0.000 C 
ENDBRANCH  18  26
ENDBRANCH   1  21
BRANCH  12  28
ATOM     28  C   UNL     1       2.607   3.879  16.834  0.00  0.00    +0.000 C 
BRANCH  28  29
ATOM     29  C   UNL     1       2.668   2.440  17.336  0.00  0.00    +0.000 C 
BRANCH  29  30
ATOM     30  O   UNL     1       1.456   2.118  18.020  0.00  0.00    +0.000 OA
ATOM     31  H   UNL     1       0.737   2.587  17.559  0.00  0.00    +0.000 HD
ENDBRANCH  29  30
ENDBRANCH  28  29
ENDBRANCH  12  28
TORSDOF 6
ENDMDL
MODEL 8
REMARK VINA RESULT:      -6.7      3.446      7.475
REMARK  Name = 
REMARK  8 active torsions:
REMARK  status: ('A' for Active; 'I' for Inactive)
REMARK    1  A    between atoms: C_1  and  O_2
REMARK    2  A    between atoms: O_2  and  C_3
REMARK    3  A    between atoms: C_5  and  O_6
REMARK    4  A    between atoms: O_6  and  C_7
REMARK    5  A    between atoms: C_10  and  N_11
REMARK    6  A    between atoms: N_22  and  C_23
REMARK    7  A    between atoms: C_23  and  C_24
REMARK    8  A    between atoms: C_24  and  O_25
REMARK                            x       y       z     vdW  Elec       q    Type
REMARK                         _______ _______ _______ _____ _____    ______ ____
ROOT
ATOM      1  N   UNL     1       1.885   8.464  19.195  0.00  0.00    +0.000 N 
ATOM      2  C   UNL     1       3.040   8.512  18.330  0.00  0.00    +0.000 C 
ATOM      3  C   UNL     1       3.482   7.139  17.915  0.00  0.00    +0.000 A 
ATOM      4  C   UNL     1       4.374   6.986  16.858  0.00  0.00    +0.000 A 
ATOM      5  N   UNL     1       4.853   5.816  16.393  0.00  0.00    +0.000 NA
ATOM      6  C   UNL     1       4.367   4.751  17.054  0.00  0.00    +0.000 A 
ATOM      7  N   UNL     1       4.713   3.463  16.751  0.00  0.00    +0.000 N 
ATOM      8  C   UNL     1       4.067   2.597  17.586  0.00  0.00    +0.000 A 
ATOM      9  C   UNL     1       3.297   3.352  18.444  0.00  0.00    +0.000 A 
ATOM     10  C   UNL     1       3.477   4.737  18.127  0.00  0.00    +0.000 A 
ATOM     11  C   UNL     1       3.018   5.996  18.597  0.00  0.00    +0.000 A 
ATOM     12  N   UNL     1       2.157   6.190  19.715  0.00  0.00    +0.000 N 
ATOM     13  C   UNL     1       1.740   7.450  20.126  0.00  0.00    +0.000 C 
ATOM     14  O   UNL     1       1.163   7.630  21.204  0.00  0.00    +0.000 OA
ATOM     15  H   UNL     1       5.358   3.217  16.015  0.00  0.00    +0.000 HD
ENDROOT
BRANCH   1  21
ATOM     16  C   UNL     1      -1.096  10.389  18.061  0.00  0.00    +0.000 A 
ATOM     17  C   UNL     1      -1.247  11.301  19.100  0.00  0.00    +0.000 A 
ATOM     18  C   UNL     1      -0.330  11.333  20.166  0.00  0.00    +0.000 A 
ATOM     19  C   UNL     1       0.754  10.443  20.182  0.00  0.00    +0.000 A 
ATOM     20  F   UNL     1       1.640  10.452  21.191  0.00  0.00    +0.000 F 
ATOM     21  C   UNL     1       0.886   9.479  19.179  0.00  0.00    +0.000 A 
ATOM     22  C   UNL     1      -0.033   9.490  18.114  0.00  0.00    +0.000 A 
ATOM     23  F   UNL     1       0.143   8.645  17.080  0.00  0.00    +0.000 F 
BRANCH  16  25
ATOM     24  C   UNL     1      -3.249   9.911  17.161  0.00  0.00    +0.000 C 
ATOM     25  O   UNL     1      -1.896  10.284  16.957  0.00  0.00    +0.000 OA
ENDBRANCH  16  25
BRANCH  18  26
ATOM     26  O   UNL     1      -0.643  12.279  21.107  0.00  0.00    +0.000 OA
ATOM     27  C   UNL     1      -1.125  11.819  22.362  0.00  0.00    +0.000 C 
ENDBRANCH  18  26
ENDBRANCH   1  21
BRANCH  12  28
ATOM     28  C   UNL     1       1.452   5.085  20.345  0.00  0.00    +0.000 C 
BRANCH  28  29
ATOM     29  C   UNL     1       2.236   4.352  21.429  0.00  0.00    +0.000 C 
BRANCH  29  30
ATOM     30  O   UNL     1       1.640   3.077  21.675  0.00  0.00    +0.000 OA
ATOM     31  H   UNL     1       1.457   3.031  22.631  0.00  0.00    +0.000 HD
ENDBRANCH  29  30
ENDBRANCH  28  29
ENDBRANCH  12  28
TORSDOF 6
ENDMDL
MODEL 9
REMARK VINA RESULT:      -6.7      6.028      9.220
REMARK  Name = 
REMARK  8 active torsions:
REMARK  status: ('A' for Active; 'I' for Inactive)
REMARK    1  A    between atoms: C_1  and  O_2
REMARK    2  A    between atoms: O_2  and  C_3
REMARK    3  A    between atoms: C_5  and  O_6
REMARK    4  A    between atoms: O_6  and  C_7
REMARK    5  A    between atoms: C_10  and  N_11
REMARK    6  A    between atoms: N_22  and  C_23
REMARK    7  A    between atoms: C_23  and  C_24
REMARK    8  A    between atoms: C_24  and  O_25
REMARK                            x       y       z     vdW  Elec       q    Type
REMARK                         _______ _______ _______ _____ _____    ______ ____
ROOT
ATOM      1  N   UNL     1      -0.688  11.869  21.692  0.00  0.00    +0.000 N 
ATOM      2  C   UNL     1      -1.646  11.458  22.691  0.00  0.00    +0.000 C 
ATOM      3  C   UNL     1      -2.379  12.630  23.275  0.00  0.00    +0.000 A 
ATOM      4  C   UNL     1      -3.536  12.424  24.021  0.00  0.00    +0.000 A 
ATOM      5  N   UNL     1      -4.281  13.385  24.602  0.00  0.00    +0.000 NA
ATOM      6  C   UNL     1      -3.803  14.623  24.385  0.00  0.00    +0.000 A 
ATOM      7  N   UNL     1      -4.399  15.750  24.877  0.00  0.00    +0.000 N 
ATOM      8  C   UNL     1      -3.693  16.855  24.497  0.00  0.00    +0.000 A 
ATOM      9  C   UNL     1      -2.620  16.420  23.750  0.00  0.00    +0.000 A 
ATOM     10  C   UNL     1      -2.664  14.992  23.669  0.00  0.00    +0.000 A 
ATOM     11  C   UNL     1      -1.899  13.943  23.094  0.00  0.00    +0.000 A 
ATOM     12  N   UNL     1      -0.678  14.114  22.381  0.00  0.00    +0.000 N 
ATOM     13  C   UNL     1       0.026  13.046  21.838  0.00  0.00    +0.000 C 
ATOM     14  O   UNL     1       1.174  13.173  21.400  0.00  0.00    +0.000 OA
ATOM     15  H   UNL     1      -5.235  15.738  25.441  0.00  0.00    +0.000 HD
ENDROOT
BRANCH   1  21
ATOM     16  C   UNL     1      -0.879  10.559  18.209  0.00  0.00    +0.000 A 
ATOM     17  C   UNL     1       0.200   9.681  18.185  0.00  0.00    +0.000 A 
ATOM     18  C   UNL     1       0.974   9.464  19.339  0.00  0.00    +0.000 A 
ATOM     19  C   UNL     1       0.655  10.131  20.531  0.00  0.00    +0.000 A 
ATOM     20  F   UNL     1       1.381   9.943  21.644  0.00  0.00    +0.000 F 
ATOM     21  C   UNL     1      -0.386  11.063  20.557  0.00  0.00    +0.000 A 
ATOM     22  C   UNL     1      -1.158  11.238  19.393  0.00  0.00    +0.000 A 
ATOM     23  F   UNL     1      -2.236  12.046  19.430  0.00  0.00    +0.000 F 
BRANCH  16  25
ATOM     24  C   UNL     1      -2.766   9.895  16.916  0.00  0.00    +0.000 C 
ATOM     25  O   UNL     1      -1.726  10.826  17.169  0.00  0.00    +0.000 OA
ENDBRANCH  16  25
BRANCH  18  26
ATOM     26  O   UNL     1       2.004   8.585  19.128  0.00  0.00    +0.000 OA
ATOM     27  C   UNL     1       2.376   8.324  17.782  0.00  0.00    +0.000 C 
ENDBRANCH  18  26
ENDBRANCH   1  21
BRANCH  12  28
ATOM     28  C   UNL     1      -0.214  15.423  21.950  0.00  0.00    +0.000 C 
BRANCH  28  29
ATOM     29  C   UNL     1       0.733  16.124  22.919  0.00  0.00    +0.000 C 
BRANCH  29  30
ATOM     30  O   UNL     1       2.066  15.655  22.713  0.00  0.00    +0.000 OA
ATOM     31  H   UNL     1       2.658  16.267  23.186  0.00  0.00    +0.000 HD
ENDBRANCH  29  30
ENDBRANCH  28  29
ENDBRANCH  12  28
TORSDOF 6
ENDMDL
