MODEL 1
REMARK VINA RESULT:      -7.3      0.000      0.000
REMARK  Name = 
REMARK  12 active torsions:
REMARK  status: ('A' for Active; 'I' for Inactive)
REMARK    1  A    between atoms: C_1  and  C_2
REMARK    2  A    between atoms: C_4  and  C_5
REMARK    3  A    between atoms: C_6  and  C_7
REMARK    4  A    between atoms: C_8  and  C_9
REMARK    5  A    between atoms: C_9  and  O_10
REMARK    6  A    between atoms: C_9  and  C_11
REMARK    7  A    between atoms: C_11  and  C_12
REMARK    8  A    between atoms: C_12  and  O_13
REMARK    9  A    between atoms: C_12  and  C_14
REMARK   10  A    between atoms: C_14  and  C_15
REMARK   11  A    between atoms: C_18  and  C_19
REMARK   12  A    between atoms: C_24  and  C_25
REMARK                            x       y       z     vdW  Elec       q    Type
REMARK                         _______ _______ _______ _____ _____    ______ ____
ROOT
ATOM      1  C   UNL     1      -0.122   8.703  22.064  0.00  0.00    +0.000 C 
ATOM      2  C   UNL     1       0.698   8.308  20.867  0.00  0.00    +0.000 A 
ATOM      3  C   UNL     1       1.021   9.224  19.871  0.00  0.00    +0.000 A 
ATOM      4  C   UNL     1       1.824   8.847  18.783  0.00  0.00    +0.000 A 
ATOM      5  C   UNL     1       2.197   9.903  17.765  0.00  0.00    +0.000 C 
ATOM      6  C   UNL     1       2.305   7.513  18.686  0.00  0.00    +0.000 A 
ATOM      7  C   UNL     1       1.998   6.555  19.698  0.00  0.00    +0.000 A 
ATOM      8  C   UNL     1       1.189   7.001  20.773  0.00  0.00    +0.000 A 
ENDROOT
BRANCH   7   9
ATOM      9  C   UNL     1       2.495   5.141  19.742  0.00  0.00    +0.000 A 
ATOM     10  C   UNL     1       3.823   4.845  20.124  0.00  0.00    +0.000 A 
ATOM     11  C   UNL     1       4.332   3.541  20.076  0.00  0.00    +0.000 A 
ATOM     12  C   UNL     1       3.513   2.494  19.684  0.00  0.00    +0.000 A 
ATOM     13  F   UNL     1       4.021   1.255  19.641  0.00  0.00    +0.000 F 
ATOM     14  C   UNL     1       2.189   2.725  19.330  0.00  0.00    +0.000 A 
ATOM     15  C   UNL     1       1.273   1.604  18.942  0.00  0.00    +0.000 C 
ATOM     16  C   UNL     1       1.706   4.046  19.339  0.00  0.00    +0.000 A 
ENDBRANCH   7   9
BRANCH   6  17
ATOM     17  C   UNL     1       3.138   7.180  17.521  0.00  0.00    +0.000 C 
ATOM     18  C   UNL     1       4.435   6.837  17.569  0.00  0.00    +0.000 C 
BRANCH  18  19
ATOM     19  C   UNL     1       5.279   6.704  16.330  0.00  0.00    +0.000 C 
BRANCH  19  20
ATOM     20  O   UNL     1       6.512   7.337  16.694  0.00  0.00    +0.000 OA
ATOM     21  H   UNL     1       6.596   8.140  16.153  0.00  0.00    +0.000 HD
ENDBRANCH  19  20
BRANCH  19  22
ATOM     22  C   UNL     1       5.566   5.264  15.895  0.00  0.00    +0.000 C 
BRANCH  22  23
ATOM     23  C   UNL     1       6.348   5.147  14.582  0.00  0.00    +0.000 C 
BRANCH  23  24
ATOM     24  O   UNL     1       7.736   5.362  14.879  0.00  0.00    +0.000 OA
ATOM     25  H   UNL     1       7.895   5.028  15.779  0.00  0.00    +0.000 HD
ENDBRANCH  23  24
BRANCH  23  26
ATOM     26  C   UNL     1       6.164   3.783  13.927  0.00  0.00    +0.000 C 
BRANCH  26  27
ATOM     27  C   UNL     1       6.625   3.794  12.470  0.00  0.00    +0.000 C 
ATOM     28  O   UNL     1       7.425   4.721  12.152  0.00  0.00    +0.000 OA
ATOM     29  O   UNL     1       6.139   2.877  11.762  0.00  0.00    +0.000 OA
ENDBRANCH  26  27
ENDBRANCH  23  26
ENDBRANCH  22  23
ENDBRANCH  19  22
ENDBRANCH  18  19
ENDBRANCH   6  17
TORSDOF 9
ENDMDL
MODEL 2
REMARK VINA RESULT:      -7.1      0.969      1.281
REMARK  Name = 
REMARK  12 active torsions:
REMARK  status: ('A' for Active; 'I' for Inactive)
REMARK    1  A    between atoms: C_1  and  C_2
REMARK    2  A    between atoms: C_4  and  C_5
REMARK    3  A    between atoms: C_6  and  C_7
REMARK    4  A    between atoms: C_8  and  C_9
REMARK    5  A    between atoms: C_9  and  O_10
REMARK    6  A    between atoms: C_9  and  C_11
REMARK    7  A    between atoms: C_11  and  C_12
REMARK    8  A    between atoms: C_12  and  O_13
REMARK    9  A    between atoms: C_12  and  C_14
REMARK   10  A    between atoms: C_14  and  C_15
REMARK   11  A    between atoms: C_18  and  C_19
REMARK   12  A    between atoms: C_24  and  C_25
REMARK                            x       y       z     vdW  Elec       q    Type
REMARK                         _______ _______ _______ _____ _____    ______ ____
ROOT
ATOM      1  C   UNL     1      -0.095   9.356  22.006  0.00  0.00    +0.000 C 
ATOM      2  C   UNL     1       0.684   8.877  20.813  0.00  0.00    +0.000 A 
ATOM      3  C   UNL     1       1.226   9.767  19.892  0.00  0.00    +0.000 A 
ATOM      4  C   UNL     1       1.987   9.303  18.807  0.00  0.00    +0.000 A 
ATOM      5  C   UNL     1       2.606  10.321  17.874  0.00  0.00    +0.000 C 
ATOM      6  C   UNL     1       2.201   7.908  18.637  0.00  0.00    +0.000 A 
ATOM      7  C   UNL     1       1.667   6.973  19.573  0.00  0.00    +0.000 A 
ATOM      8  C   UNL     1       0.914   7.506  20.648  0.00  0.00    +0.000 A 
ENDROOT
BRANCH   7   9
ATOM      9  C   UNL     1       1.874   5.488  19.539  0.00  0.00    +0.000 A 
ATOM     10  C   UNL     1       1.922   4.785  18.314  0.00  0.00    +0.000 A 
ATOM     11  C   UNL     1       2.016   3.389  18.266  0.00  0.00    +0.000 A 
ATOM     12  C   UNL     1       2.106   2.662  19.443  0.00  0.00    +0.000 A 
ATOM     13  F   UNL     1       2.190   1.327  19.376  0.00  0.00    +0.000 F 
ATOM     14  C   UNL     1       2.095   3.306  20.675  0.00  0.00    +0.000 A 
ATOM     15  C   UNL     1       2.232   2.545  21.959  0.00  0.00    +0.000 C 
ATOM     16  C   UNL     1       1.954   4.705  20.707  0.00  0.00    +0.000 A 
ENDBRANCH   7   9
BRANCH   6  17
ATOM     17  C   UNL     1       3.005   7.485  17.480  0.00  0.00    +0.000 C 
ATOM     18  C   UNL     1       4.270   7.042  17.538  0.00  0.00    +0.000 C 
BRANCH  18  19
ATOM     19  C   UNL     1       5.101   6.815  16.303  0.00  0.00    +0.000 C 
BRANCH  19  20
ATOM     20  O   UNL     1       6.383   7.348  16.658  0.00  0.00    +0.000 OA
ATOM     21  H   UNL     1       6.243   7.976  17.387  0.00  0.00    +0.000 HD
ENDBRANCH  19  20
BRANCH  19  22
ATOM     22  C   UNL     1       5.265   5.349  15.894  0.00  0.00    +0.000 C 
BRANCH  22  23
ATOM     23  C   UNL     1       6.140   5.136  14.654  0.00  0.00    +0.000 C 
BRANCH  23  24
ATOM     24  O   UNL     1       7.487   5.490  15.003  0.00  0.00    +0.000 OA
ATOM     25  H   UNL     1       7.796   6.138  14.346  0.00  0.00    +0.000 HD
ENDBRANCH  23  24
BRANCH  23  26
ATOM     26  C   UNL     1       6.096   3.693  14.164  0.00  0.00    +0.000 C 
BRANCH  26  27
ATOM     27  C   UNL     1       5.944   3.621  12.645  0.00  0.00    +0.000 C 
ATOM     28  O   UNL     1       7.017   3.712  11.980  0.00  0.00    +0.000 OA
ATOM     29  O   UNL     1       4.762   3.486  12.244  0.00  0.00    +0.000 OA
ENDBRANCH  26  27
ENDBRANCH  23  26
ENDBRANCH  22  23
ENDBRANCH  19  22
ENDBRANCH  18  19
ENDBRANCH   6  17
TORSDOF 9
ENDMDL
MODEL 3
REMARK VINA RESULT:      -7.0      2.253      4.702
REMARK  Name = 
REMARK  12 active torsions:
REMARK  status: ('A' for Active; 'I' for Inactive)
REMARK    1  A    between atoms: C_1  and  C_2
REMARK    2  A    between atoms: C_4  and  C_5
REMARK    3  A    between atoms: C_6  and  C_7
REMARK    4  A    between atoms: C_8  and  C_9
REMARK    5  A    between atoms: C_9  and  O_10
REMARK    6  A    between atoms: C_9  and  C_11
REMARK    7  A    between atoms: C_11  and  C_12
REMARK    8  A    between atoms: C_12  and  O_13
REMARK    9  A    between atoms: C_12  and  C_14
REMARK   10  A    between atoms: C_14  and  C_15
REMARK   11  A    between atoms: C_18  and  C_19
REMARK   12  A    between atoms: C_24  and  C_25
REMARK                            x       y       z     vdW  Elec       q    Type
REMARK                         _______ _______ _______ _____ _____    ______ ____
ROOT
ATOM      1  C   UNL     1       1.349   2.516  22.108  0.00  0.00    +0.000 C 
ATOM      2  C   UNL     1       2.012   2.990  20.845  0.00  0.00    +0.000 A 
ATOM      3  C   UNL     1       2.666   2.108  19.990  0.00  0.00    +0.000 A 
ATOM      4  C   UNL     1       3.243   2.563  18.794  0.00  0.00    +0.000 A 
ATOM      5  C   UNL     1       3.884   1.548  17.872  0.00  0.00    +0.000 C 
ATOM      6  C   UNL     1       3.172   3.941  18.452  0.00  0.00    +0.000 A 
ATOM      7  C   UNL     1       2.498   4.866  19.304  0.00  0.00    +0.000 A 
ATOM      8  C   UNL     1       1.932   4.343  20.492  0.00  0.00    +0.000 A 
ENDROOT
BRANCH   7   9
ATOM      9  C   UNL     1       2.300   6.327  19.026  0.00  0.00    +0.000 A 
ATOM     10  C   UNL     1       2.743   6.906  17.815  0.00  0.00    +0.000 A 
ATOM     11  C   UNL     1       2.656   8.283  17.579  0.00  0.00    +0.000 A 
ATOM     12  C   UNL     1       2.086   9.112  18.533  0.00  0.00    +0.000 A 
ATOM     13  F   UNL     1       2.016  10.427  18.290  0.00  0.00    +0.000 F 
ATOM     14  C   UNL     1       1.605   8.590  19.728  0.00  0.00    +0.000 A 
ATOM     15  C   UNL     1       0.948   9.460  20.756  0.00  0.00    +0.000 C 
ATOM     16  C   UNL     1       1.741   7.211  19.969  0.00  0.00    +0.000 A 
ENDBRANCH   7   9
BRANCH   6  17
ATOM     17  C   UNL     1       3.797   4.355  17.187  0.00  0.00    +0.000 C 
ATOM     18  C   UNL     1       5.116   4.495  16.985  0.00  0.00    +0.000 C 
BRANCH  18  19
ATOM     19  C   UNL     1       5.678   5.113  15.732  0.00  0.00    +0.000 C 
BRANCH  19  20
ATOM     20  O   UNL     1       6.725   5.963  16.218  0.00  0.00    +0.000 OA
ATOM     21  H   UNL     1       6.692   5.936  17.189  0.00  0.00    +0.000 HD
ENDBRANCH  19  20
BRANCH  19  22
ATOM     22  C   UNL     1       6.268   4.118  14.729  0.00  0.00    +0.000 C 
BRANCH  22  23
ATOM     23  C   UNL     1       6.654   4.737  13.381  0.00  0.00    +0.000 C 
BRANCH  23  24
ATOM     24  O   UNL     1       7.854   5.500  13.579  0.00  0.00    +0.000 OA
ATOM     25  H   UNL     1       7.671   6.410  13.286  0.00  0.00    +0.000 HD
ENDBRANCH  23  24
BRANCH  23  26
ATOM     26  C   UNL     1       6.885   3.677  12.311  0.00  0.00    +0.000 C 
BRANCH  26  27
ATOM     27  C   UNL     1       5.585   2.967  11.934  0.00  0.00    +0.000 C 
ATOM     28  O   UNL     1       4.532   3.664  12.023  0.00  0.00    +0.000 OA
ATOM     29  O   UNL     1       5.726   1.768  11.587  0.00  0.00    +0.000 OA
ENDBRANCH  26  27
ENDBRANCH  23  26
ENDBRANCH  22  23
ENDBRANCH  19  22
ENDBRANCH  18  19
ENDBRANCH   6  17
TORSDOF 9
ENDMDL
MODEL 4
REMARK VINA RESULT:      -6.9      2.326      4.679
REMARK  Name = 
REMARK  12 active torsions:
REMARK  status: ('A' for Active; 'I' for Inactive)
REMARK    1  A    between atoms: C_1  and  C_2
REMARK    2  A    between atoms: C_4  and  C_5
REMARK    3  A    between atoms: C_6  and  C_7
REMARK    4  A    between atoms: C_8  and  C_9
REMARK    5  A    between atoms: C_9  and  O_10
REMARK    6  A    between atoms: C_9  and  C_11
REMARK    7  A    between atoms: C_11  and  C_12
REMARK    8  A    between atoms: C_12  and  O_13
REMARK    9  A    between atoms: C_12  and  C_14
REMARK   10  A    between atoms: C_14  and  C_15
REMARK   11  A    between atoms: C_18  and  C_19
REMARK   12  A    between atoms: C_24  and  C_25
REMARK                            x       y       z     vdW  Elec       q    Type
REMARK                         _______ _______ _______ _____ _____    ______ ____
ROOT
ATOM      1  C   UNL     1       1.426   2.610  22.062  0.00  0.00    +0.000 C 
ATOM      2  C   UNL     1       2.035   3.189  20.815  0.00  0.00    +0.000 A 
ATOM      3  C   UNL     1       2.707   2.390  19.895  0.00  0.00    +0.000 A 
ATOM      4  C   UNL     1       3.232   2.941  18.715  0.00  0.00    +0.000 A 
ATOM      5  C   UNL     1       3.895   2.013  17.720  0.00  0.00    +0.000 C 
ATOM      6  C   UNL     1       3.088   4.331  18.458  0.00  0.00    +0.000 A 
ATOM      7  C   UNL     1       2.394   5.173  19.379  0.00  0.00    +0.000 A 
ATOM      8  C   UNL     1       1.883   4.554  20.546  0.00  0.00    +0.000 A 
ENDROOT
BRANCH   7   9
ATOM      9  C   UNL     1       2.122   6.636  19.192  0.00  0.00    +0.000 A 
ATOM     10  C   UNL     1       2.459   7.293  17.987  0.00  0.00    +0.000 A 
ATOM     11  C   UNL     1       2.303   8.676  17.832  0.00  0.00    +0.000 A 
ATOM     12  C   UNL     1       1.769   9.431  18.864  0.00  0.00    +0.000 A 
ATOM     13  F   UNL     1       1.633  10.753  18.696  0.00  0.00    +0.000 F 
ATOM     14  C   UNL     1       1.391   8.829  20.059  0.00  0.00    +0.000 A 
ATOM     15  C   UNL     1       0.773   9.618  21.172  0.00  0.00    +0.000 C 
ATOM     16  C   UNL     1       1.596   7.447  20.216  0.00  0.00    +0.000 A 
ENDBRANCH   7   9
BRANCH   6  17
ATOM     17  C   UNL     1       3.662   4.849  17.206  0.00  0.00    +0.000 C 
ATOM     18  C   UNL     1       4.956   5.144  17.012  0.00  0.00    +0.000 C 
BRANCH  18  19
ATOM     19  C   UNL     1       5.443   5.855  15.777  0.00  0.00    +0.000 C 
BRANCH  19  20
ATOM     20  O   UNL     1       5.765   7.168  16.252  0.00  0.00    +0.000 OA
ATOM     21  H   UNL     1       6.730   7.205  16.368  0.00  0.00    +0.000 HD
ENDBRANCH  19  20
BRANCH  19  22
ATOM     22  C   UNL     1       6.684   5.241  15.125  0.00  0.00    +0.000 C 
BRANCH  22  23
ATOM     23  C   UNL     1       6.431   3.901  14.425  0.00  0.00    +0.000 C 
BRANCH  23  24
ATOM     24  O   UNL     1       6.347   2.888  15.439  0.00  0.00    +0.000 OA
ATOM     25  H   UNL     1       5.999   3.311  16.244  0.00  0.00    +0.000 HD
ENDBRANCH  23  24
BRANCH  23  26
ATOM     26  C   UNL     1       5.147   3.919  13.604  0.00  0.00    +0.000 C 
BRANCH  26  27
ATOM     27  C   UNL     1       5.394   3.466  12.166  0.00  0.00    +0.000 C 
ATOM     28  O   UNL     1       6.559   3.038  11.916  0.00  0.00    +0.000 OA
ATOM     29  O   UNL     1       4.404   3.584  11.403  0.00  0.00    +0.000 OA
ENDBRANCH  26  27
ENDBRANCH  23  26
ENDBRANCH  22  23
ENDBRANCH  19  22
ENDBRANCH  18  19
ENDBRANCH   6  17
TORSDOF 9
ENDMDL
MODEL 5
REMARK VINA RESULT:      -6.8      3.649      6.698
REMARK  Name = 
REMARK  12 active torsions:
REMARK  status: ('A' for Active; 'I' for Inactive)
REMARK    1  A    between atoms: C_1  and  C_2
REMARK    2  A    between atoms: C_4  and  C_5
REMARK    3  A    between atoms: C_6  and  C_7
REMARK    4  A    between atoms: C_8  and  C_9
REMARK    5  A    between atoms: C_9  and  O_10
REMARK    6  A    between atoms: C_9  and  C_11
REMARK    7  A    between atoms: C_11  and  C_12
REMARK    8  A    between atoms: C_12  and  O_13
REMARK    9  A    between atoms: C_12  and  C_14
REMARK   10  A    between atoms: C_14  and  C_15
REMARK   11  A    between atoms: C_18  and  C_19
REMARK   12  A    between atoms: C_24  and  C_25
REMARK                            x       y       z     vdW  Elec       q    Type
REMARK                         _______ _______ _______ _____ _____    ______ ____
ROOT
ATOM      1  C   UNL     1       7.715   7.780  17.079  0.00  0.00    +0.000 C 
ATOM      2  C   UNL     1       6.440   6.988  17.167  0.00  0.00    +0.000 A 
ATOM      3  C   UNL     1       6.399   5.635  16.846  0.00  0.00    +0.000 A 
ATOM      4  C   UNL     1       5.209   4.902  16.975  0.00  0.00    +0.000 A 
ATOM      5  C   UNL     1       5.240   3.420  16.675  0.00  0.00    +0.000 C 
ATOM      6  C   UNL     1       4.026   5.547  17.428  0.00  0.00    +0.000 A 
ATOM      7  C   UNL     1       4.041   6.932  17.774  0.00  0.00    +0.000 A 
ATOM      8  C   UNL     1       5.274   7.612  17.627  0.00  0.00    +0.000 A 
ENDROOT
BRANCH   7   9
ATOM      9  C   UNL     1       2.880   7.708  18.320  0.00  0.00    +0.000 A 
ATOM     10  C   UNL     1       2.212   8.674  17.534  0.00  0.00    +0.000 A 
ATOM     11  C   UNL     1       1.191   9.476  18.058  0.00  0.00    +0.000 A 
ATOM     12  C   UNL     1       0.784   9.305  19.372  0.00  0.00    +0.000 A 
ATOM     13  F   UNL     1      -0.191  10.086  19.855  0.00  0.00    +0.000 F 
ATOM     14  C   UNL     1       1.385   8.347  20.180  0.00  0.00    +0.000 A 
ATOM     15  C   UNL     1       0.934   8.116  21.590  0.00  0.00    +0.000 C 
ATOM     16  C   UNL     1       2.440   7.580  19.652  0.00  0.00    +0.000 A 
ENDBRANCH   7   9
BRANCH   6  17
ATOM     17  C   UNL     1       2.811   4.726  17.540  0.00  0.00    +0.000 C 
ATOM     18  C   UNL     1       2.077   4.577  18.653  0.00  0.00    +0.000 C 
BRANCH  18  19
ATOM     19  C   UNL     1       0.964   3.569  18.755  0.00  0.00    +0.000 C 
BRANCH  19  20
ATOM     20  O   UNL     1       1.293   2.603  17.749  0.00  0.00    +0.000 OA
ATOM     21  H   UNL     1       0.490   2.447  17.223  0.00  0.00    +0.000 HD
ENDBRANCH  19  20
BRANCH  19  22
ATOM     22  C   UNL     1       0.853   2.862  20.108  0.00  0.00    +0.000 C 
BRANCH  22  23
ATOM     23  C   UNL     1       2.119   2.950  20.969  0.00  0.00    +0.000 C 
BRANCH  23  24
ATOM     24  O   UNL     1       1.707   3.099  22.337  0.00  0.00    +0.000 OA
ATOM     25  H   UNL     1       2.386   3.630  22.787  0.00  0.00    +0.000 HD
ENDBRANCH  23  24
BRANCH  23  26
ATOM     26  C   UNL     1       2.995   1.711  20.825  0.00  0.00    +0.000 C 
BRANCH  26  27
ATOM     27  C   UNL     1       4.041   1.888  19.725  0.00  0.00    +0.000 C 
ATOM     28  O   UNL     1       3.865   1.194  18.681  0.00  0.00    +0.000 OA
ATOM     29  O   UNL     1       4.956   2.703  20.001  0.00  0.00    +0.000 OA
ENDBRANCH  26  27
ENDBRANCH  23  26
ENDBRANCH  22  23
ENDBRANCH  19  22
ENDBRANCH  18  19
ENDBRANCH   6  17
TORSDOF 9
ENDMDL
MODEL 6
REMARK VINA RESULT:      -6.7      0.985      1.091
REMARK  Name = 
REMARK  12 active torsions:
REMARK  status: ('A' for Active; 'I' for Inactive)
REMARK    1  A    between atoms: C_1  and  C_2
REMARK    2  A    between atoms: C_4  and  C_5
REMARK    3  A    between atoms: C_6  and  C_7
REMARK    4  A    between atoms: C_8  and  C_9
REMARK    5  A    between atoms: C_9  and  O_10
REMARK    6  A    between atoms: C_9  and  C_11
REMARK    7  A    between atoms: C_11  and  C_12
REMARK    8  A    between atoms: C_12  and  O_13
REMARK    9  A    between atoms: C_12  and  C_14
REMARK   10  A    between atoms: C_14  and  C_15
REMARK   11  A    between atoms: C_18  and  C_19
REMARK   12  A    between atoms: C_24  and  C_25
REMARK                            x       y       z     vdW  Elec       q    Type
REMARK                         _______ _______ _______ _____ _____    ______ ____
ROOT
ATOM      1  C   UNL     1      -0.146   8.670  22.230  0.00  0.00    +0.000 C 
ATOM      2  C   UNL     1       0.658   8.284  21.020  0.00  0.00    +0.000 A 
ATOM      3  C   UNL     1       0.957   9.204  20.020  0.00  0.00    +0.000 A 
ATOM      4  C   UNL     1       1.745   8.837  18.918  0.00  0.00    +0.000 A 
ATOM      5  C   UNL     1       2.092   9.897  17.896  0.00  0.00    +0.000 C 
ATOM      6  C   UNL     1       2.237   7.507  18.812  0.00  0.00    +0.000 A 
ATOM      7  C   UNL     1       1.956   6.545  19.828  0.00  0.00    +0.000 A 
ATOM      8  C   UNL     1       1.160   6.982  20.915  0.00  0.00    +0.000 A 
ENDROOT
BRANCH   7   9
ATOM      9  C   UNL     1       2.466   5.136  19.862  0.00  0.00    +0.000 A 
ATOM     10  C   UNL     1       2.652   4.455  21.086  0.00  0.00    +0.000 A 
ATOM     11  C   UNL     1       3.219   3.176  21.143  0.00  0.00    +0.000 A 
ATOM     12  C   UNL     1       3.579   2.528  19.972  0.00  0.00    +0.000 A 
ATOM     13  F   UNL     1       4.124   1.308  20.048  0.00  0.00    +0.000 F 
ATOM     14  C   UNL     1       3.388   3.139  18.738  0.00  0.00    +0.000 A 
ATOM     15  C   UNL     1       3.731   2.442  17.456  0.00  0.00    +0.000 C 
ATOM     16  C   UNL     1       2.860   4.442  18.701  0.00  0.00    +0.000 A 
ENDBRANCH   7   9
BRANCH   6  17
ATOM     17  C   UNL     1       3.055   7.183  17.633  0.00  0.00    +0.000 C 
ATOM     18  C   UNL     1       4.394   7.096  17.620  0.00  0.00    +0.000 C 
BRANCH  18  19
ATOM     19  C   UNL     1       5.180   6.959  16.344  0.00  0.00    +0.000 C 
BRANCH  19  20
ATOM     20  O   UNL     1       6.535   7.172  16.759  0.00  0.00    +0.000 OA
ATOM     21  H   UNL     1       6.834   6.358  17.199  0.00  0.00    +0.000 HD
ENDBRANCH  19  20
BRANCH  19  22
ATOM     22  C   UNL     1       5.075   5.591  15.664  0.00  0.00    +0.000 C 
BRANCH  22  23
ATOM     23  C   UNL     1       6.359   4.756  15.729  0.00  0.00    +0.000 C 
BRANCH  23  24
ATOM     24  O   UNL     1       6.532   4.326  17.087  0.00  0.00    +0.000 OA
ATOM     25  H   UNL     1       5.645   4.189  17.463  0.00  0.00    +0.000 HD
ENDBRANCH  23  24
BRANCH  23  26
ATOM     26  C   UNL     1       6.300   3.544  14.806  0.00  0.00    +0.000 C 
BRANCH  26  27
ATOM     27  C   UNL     1       6.305   3.959  13.335  0.00  0.00    +0.000 C 
ATOM     28  O   UNL     1       7.300   4.645  12.960  0.00  0.00    +0.000 OA
ATOM     29  O   UNL     1       5.307   3.569  12.679  0.00  0.00    +0.000 OA
ENDBRANCH  26  27
ENDBRANCH  23  26
ENDBRANCH  22  23
ENDBRANCH  19  22
ENDBRANCH  18  19
ENDBRANCH   6  17
TORSDOF 9
ENDMDL
MODEL 7
REMARK VINA RESULT:      -6.7      2.325      4.742
REMARK  Name = 
REMARK  12 active torsions:
REMARK  status: ('A' for Active; 'I' for Inactive)
REMARK    1  A    between atoms: C_1  and  C_2
REMARK    2  A    between atoms: C_4  and  C_5
REMARK    3  A    between atoms: C_6  and  C_7
REMARK    4  A    between atoms: C_8  and  C_9
REMARK    5  A    between atoms: C_9  and  O_10
REMARK    6  A    between atoms: C_9  and  C_11
REMARK    7  A    between atoms: C_11  and  C_12
REMARK    8  A    between atoms: C_12  and  O_13
REMARK    9  A    between atoms: C_12  and  C_14
REMARK   10  A    between atoms: C_14  and  C_15
REMARK   11  A    between atoms: C_18  and  C_19
REMARK   12  A    between atoms: C_24  and  C_25
REMARK                            x       y       z     vdW  Elec       q    Type
REMARK                         _______ _______ _______ _____ _____    ______ ____
ROOT
ATOM      1  C   UNL     1       1.053   2.527  22.041  0.00  0.00    +0.000 C 
ATOM      2  C   UNL     1       1.941   3.371  21.169  0.00  0.00    +0.000 A 
ATOM      3  C   UNL     1       3.051   2.835  20.524  0.00  0.00    +0.000 A 
ATOM      4  C   UNL     1       3.843   3.628  19.679  0.00  0.00    +0.000 A 
ATOM      5  C   UNL     1       4.999   2.975  18.953  0.00  0.00    +0.000 C 
ATOM      6  C   UNL     1       3.519   4.998  19.486  0.00  0.00    +0.000 A 
ATOM      7  C   UNL     1       2.380   5.573  20.125  0.00  0.00    +0.000 A 
ATOM      8  C   UNL     1       1.619   4.717  20.959  0.00  0.00    +0.000 A 
ENDROOT
BRANCH   7   9
ATOM      9  C   UNL     1       1.899   6.983  19.953  0.00  0.00    +0.000 A 
ATOM     10  C   UNL     1       1.961   7.627  18.697  0.00  0.00    +0.000 A 
ATOM     11  C   UNL     1       1.609   8.973  18.538  0.00  0.00    +0.000 A 
ATOM     12  C   UNL     1       1.146   9.698  19.626  0.00  0.00    +0.000 A 
ATOM     13  F   UNL     1       0.819  10.985  19.454  0.00  0.00    +0.000 F 
ATOM     14  C   UNL     1       1.034   9.104  20.877  0.00  0.00    +0.000 A 
ATOM     15  C   UNL     1       0.498   9.855  22.057  0.00  0.00    +0.000 C 
ATOM     16  C   UNL     1       1.435   7.764  21.029  0.00  0.00    +0.000 A 
ENDBRANCH   7   9
BRANCH   6  17
ATOM     17  C   UNL     1       4.389   5.777  18.591  0.00  0.00    +0.000 C 
ATOM     18  C   UNL     1       4.200   5.934  17.272  0.00  0.00    +0.000 C 
BRANCH  18  19
ATOM     19  C   UNL     1       5.232   6.574  16.381  0.00  0.00    +0.000 C 
BRANCH  19  20
ATOM     20  O   UNL     1       6.428   6.532  17.170  0.00  0.00    +0.000 OA
ATOM     21  H   UNL     1       7.110   7.030  16.688  0.00  0.00    +0.000 HD
ENDBRANCH  19  20
BRANCH  19  22
ATOM     22  C   UNL     1       5.482   5.849  15.056  0.00  0.00    +0.000 C 
BRANCH  22  23
ATOM     23  C   UNL     1       6.608   4.810  15.110  0.00  0.00    +0.000 C 
BRANCH  23  24
ATOM     24  O   UNL     1       6.272   3.854  16.126  0.00  0.00    +0.000 OA
ATOM     25  H   UNL     1       5.974   3.045  15.676  0.00  0.00    +0.000 HD
ENDBRANCH  23  24
BRANCH  23  26
ATOM     26  C   UNL     1       6.794   4.100  13.773  0.00  0.00    +0.000 C 
BRANCH  26  27
ATOM     27  C   UNL     1       7.635   4.935  12.808  0.00  0.00    +0.000 C 
ATOM     28  O   UNL     1       7.536   4.628  11.584  0.00  0.00    +0.000 OA
ATOM     29  O   UNL     1       8.332   5.825  13.357  0.00  0.00    +0.000 OA
ENDBRANCH  26  27
ENDBRANCH  23  26
ENDBRANCH  22  23
ENDBRANCH  19  22
ENDBRANCH  18  19
ENDBRANCH   6  17
TORSDOF 9
ENDMDL
MODEL 8
REMARK VINA RESULT:      -6.7      2.342      4.716
REMARK  Name = 
REMARK  12 active torsions:
REMARK  status: ('A' for Active; 'I' for Inactive)
REMARK    1  A    between atoms: C_1  and  C_2
REMARK    2  A    between atoms: C_4  and  C_5
REMARK    3  A    between atoms: C_6  and  C_7
REMARK    4  A    between atoms: C_8  and  C_9
REMARK    5  A    between atoms: C_9  and  O_10
REMARK    6  A    between atoms: C_9  and  C_11
REMARK    7  A    between atoms: C_11  and  C_12
REMARK    8  A    between atoms: C_12  and  O_13
REMARK    9  A    between atoms: C_12  and  C_14
REMARK   10  A    between atoms: C_14  and  C_15
REMARK   11  A    between atoms: C_18  and  C_19
REMARK   12  A    between atoms: C_24  and  C_25
REMARK                            x       y       z     vdW  Elec       q    Type
REMARK                         _______ _______ _______ _____ _____    ______ ____
ROOT
ATOM      1  C   UNL     1       1.411   2.355  22.191  0.00  0.00    +0.000 C 
ATOM      2  C   UNL     1       1.986   3.087  21.011  0.00  0.00    +0.000 A 
ATOM      3  C   UNL     1       2.637   2.413  19.982  0.00  0.00    +0.000 A 
ATOM      4  C   UNL     1       3.129   3.110  18.867  0.00  0.00    +0.000 A 
ATOM      5  C   UNL     1       3.770   2.317  17.748  0.00  0.00    +0.000 C 
ATOM      6  C   UNL     1       2.975   4.520  18.788  0.00  0.00    +0.000 A 
ATOM      7  C   UNL     1       2.302   5.236  19.823  0.00  0.00    +0.000 A 
ATOM      8  C   UNL     1       1.823   4.474  20.917  0.00  0.00    +0.000 A 
ENDROOT
BRANCH   7   9
ATOM      9  C   UNL     1       2.021   6.709  19.827  0.00  0.00    +0.000 A 
ATOM     10  C   UNL     1       1.472   7.346  20.963  0.00  0.00    +0.000 A 
ATOM     11  C   UNL     1       1.113   8.699  20.951  0.00  0.00    +0.000 A 
ATOM     12  C   UNL     1       1.332   9.461  19.814  0.00  0.00    +0.000 A 
ATOM     13  F   UNL     1       0.977  10.752  19.822  0.00  0.00    +0.000 F 
ATOM     14  C   UNL     1       1.899   8.893  18.679  0.00  0.00    +0.000 A 
ATOM     15  C   UNL     1       2.183   9.706  17.453  0.00  0.00    +0.000 C 
ATOM     16  C   UNL     1       2.212   7.521  18.692  0.00  0.00    +0.000 A 
ENDBRANCH   7   9
BRANCH   6  17
ATOM     17  C   UNL     1       3.515   5.193  17.596  0.00  0.00    +0.000 C 
ATOM     18  C   UNL     1       4.810   5.471  17.384  0.00  0.00    +0.000 C 
BRANCH  18  19
ATOM     19  C   UNL     1       5.272   6.335  16.241  0.00  0.00    +0.000 C 
BRANCH  19  20
ATOM     20  O   UNL     1       6.590   6.736  16.635  0.00  0.00    +0.000 OA
ATOM     21  H   UNL     1       7.075   5.932  16.885  0.00  0.00    +0.000 HD
ENDBRANCH  19  20
BRANCH  19  22
ATOM     22  C   UNL     1       5.349   5.627  14.886  0.00  0.00    +0.000 C 
BRANCH  22  23
ATOM     23  C   UNL     1       6.612   4.781  14.689  0.00  0.00    +0.000 C 
BRANCH  23  24
ATOM     24  O   UNL     1       6.354   3.478  15.236  0.00  0.00    +0.000 OA
ATOM     25  H   UNL     1       7.216   3.067  15.425  0.00  0.00    +0.000 HD
ENDBRANCH  23  24
BRANCH  23  26
ATOM     26  C   UNL     1       6.995   4.658  13.219  0.00  0.00    +0.000 C 
BRANCH  26  27
ATOM     27  C   UNL     1       8.020   5.717  12.816  0.00  0.00    +0.000 C 
ATOM     28  O   UNL     1       8.919   5.966  13.671  0.00  0.00    +0.000 OA
ATOM     29  O   UNL     1       7.835   6.217  11.679  0.00  0.00    +0.000 OA
ENDBRANCH  26  27
ENDBRANCH  23  26
ENDBRANCH  22  23
ENDBRANCH  19  22
ENDBRANCH  18  19
ENDBRANCH   6  17
TORSDOF 9
ENDMDL
MODEL 9
REMARK VINA RESULT:      -6.6      0.993      1.204
REMARK  Name = 
REMARK  12 active torsions:
REMARK  status: ('A' for Active; 'I' for Inactive)
REMARK    1  A    between atoms: C_1  and  C_2
REMARK    2  A    between atoms: C_4  and  C_5
REMARK    3  A    between atoms: C_6  and  C_7
REMARK    4  A    between atoms: C_8  and  C_9
REMARK    5  A    between atoms: C_9  and  O_10
REMARK    6  A    between atoms: C_9  and  C_11
REMARK    7  A    between atoms: C_11  and  C_12
REMARK    8  A    between atoms: C_12  and  O_13
REMARK    9  A    between atoms: C_12  and  C_14
REMARK   10  A    between atoms: C_14  and  C_15
REMARK   11  A    between atoms: C_18  and  C_19
REMARK   12  A    between atoms: C_24  and  C_25
REMARK                            x       y       z     vdW  Elec       q    Type
REMARK                         _______ _______ _______ _____ _____    ______ ____
ROOT
ATOM      1  C   UNL     1      -0.192   8.859  21.892  0.00  0.00    +0.000 C 
ATOM      2  C   UNL     1       0.733   8.538  20.751  0.00  0.00    +0.000 A 
ATOM      3  C   UNL     1       1.074   9.494  19.800  0.00  0.00    +0.000 A 
ATOM      4  C   UNL     1       1.973   9.188  18.766  0.00  0.00    +0.000 A 
ATOM      5  C   UNL     1       2.359  10.286  17.799  0.00  0.00    +0.000 C 
ATOM      6  C   UNL     1       2.534   7.885  18.678  0.00  0.00    +0.000 A 
ATOM      7  C   UNL     1       2.210   6.888  19.646  0.00  0.00    +0.000 A 
ATOM      8  C   UNL     1       1.303   7.263  20.667  0.00  0.00    +0.000 A 
ENDROOT
BRANCH   7   9
ATOM      9  C   UNL     1       2.782   5.503  19.699  0.00  0.00    +0.000 A 
ATOM     10  C   UNL     1       4.175   5.291  19.810  0.00  0.00    +0.000 A 
ATOM     11  C   UNL     1       4.733   4.008  19.761  0.00  0.00    +0.000 A 
ATOM     12  C   UNL     1       3.909   2.900  19.641  0.00  0.00    +0.000 A 
ATOM     13  F   UNL     1       4.464   1.682  19.592  0.00  0.00    +0.000 F 
ATOM     14  C   UNL     1       2.529   3.050  19.560  0.00  0.00    +0.000 A 
ATOM     15  C   UNL     1       1.616   1.866  19.472  0.00  0.00    +0.000 C 
ATOM     16  C   UNL     1       1.987   4.348  19.565  0.00  0.00    +0.000 A 
ENDBRANCH   7   9
BRANCH   6  17
ATOM     17  C   UNL     1       3.468   7.626  17.571  0.00  0.00    +0.000 C 
ATOM     18  C   UNL     1       3.761   6.415  17.073  0.00  0.00    +0.000 C 
BRANCH  18  19
ATOM     19  C   UNL     1       4.870   6.201  16.078  0.00  0.00    +0.000 C 
BRANCH  19  20
ATOM     20  O   UNL     1       4.780   7.348  15.223  0.00  0.00    +0.000 OA
ATOM     21  H   UNL     1       4.345   8.054  15.731  0.00  0.00    +0.000 HD
ENDBRANCH  19  20
BRANCH  19  22
ATOM     22  C   UNL     1       6.276   6.136  16.680  0.00  0.00    +0.000 C 
BRANCH  22  23
ATOM     23  C   UNL     1       7.179   5.066  16.057  0.00  0.00    +0.000 C 
BRANCH  23  24
ATOM     24  O   UNL     1       7.818   4.356  17.128  0.00  0.00    +0.000 OA
ATOM     25  H   UNL     1       8.523   3.811  16.736  0.00  0.00    +0.000 HD
ENDBRANCH  23  24
BRANCH  23  26
ATOM     26  C   UNL     1       6.394   4.091  15.186  0.00  0.00    +0.000 C 
BRANCH  26  27
ATOM     27  C   UNL     1       6.646   4.340  13.699  0.00  0.00    +0.000 C 
ATOM     28  O   UNL     1       6.083   3.533  12.903  0.00  0.00    +0.000 OA
ATOM     29  O   UNL     1       7.395   5.317  13.453  0.00  0.00    +0.000 OA
ENDBRANCH  26  27
ENDBRANCH  23  26
ENDBRANCH  22  23
ENDBRANCH  19  22
ENDBRANCH  18  19
ENDBRANCH   6  17
TORSDOF 9
ENDMDL
