MODEL 1
REMARK VINA RESULT:      -5.9      0.000      0.000
REMARK  Name = 
REMARK  4 active torsions:
REMARK  status: ('A' for Active; 'I' for Inactive)
REMARK    1  A    between atoms: C_1  and  O_2
REMARK    2  A    between atoms: O_2  and  C_3
REMARK    3  A    between atoms: C_6  and  C_7
REMARK    4  A    between atoms: C_10  and  N_11
REMARK                            x       y       z     vdW  Elec       q    Type
REMARK                         _______ _______ _______ _____ _____    ______ ____
ROOT
ATOM      1  C   UNL     1       5.596   6.136  16.895  0.00  0.00    +0.000 A 
ATOM      2  C   UNL     1       4.498   6.756  17.483  0.00  0.00    +0.000 A 
ATOM      3  C   UNL     1       3.385   6.007  17.883  0.00  0.00    +0.000 A 
ATOM      4  C   UNL     1       3.327   4.618  17.688  0.00  0.00    +0.000 A 
ATOM      5  C   UNL     1       4.457   4.009  17.106  0.00  0.00    +0.000 A 
ATOM      6  C   UNL     1       5.577   4.757  16.712  0.00  0.00    +0.000 A 
ENDROOT
BRANCH   4   7
ATOM      7  C   UNL     1       2.073   3.836  17.974  0.00  0.00    +0.000 C 
ATOM      8  F   UNL     1       0.923   4.380  17.396  0.00  0.00    +0.000 F 
ATOM      9  C   UNL     1       2.073   2.336  18.078  0.00  0.00    +0.000 C 
ATOM     10  C   UNL     1       1.844   3.155  19.313  0.00  0.00    +0.000 C 
BRANCH  10  11
ATOM     11  N   UNL     1       0.503   3.148  19.930  0.00  0.00    +0.000 NA
ATOM     12  H   UNL     1       0.318   2.228  20.338  0.00  0.00    +0.000 HD
ATOM     13  H   UNL     1      -0.213   3.261  19.212  0.00  0.00    +0.000 HD
ENDBRANCH  10  11
ENDBRANCH   4   7
BRANCH   1  15
ATOM     14  C   UNL     1       7.473   7.457  17.478  0.00  0.00    +0.000 C 
ATOM     15  O   UNL     1       6.585   6.983  16.475  0.00  0.00    +0.000 OA
ENDBRANCH   1  15
TORSDOF 3
ENDMDL
MODEL 2
REMARK VINA RESULT:      -5.9      0.310      1.362
REMARK  Name = 
REMARK  4 active torsions:
REMARK  status: ('A' for Active; 'I' for Inactive)
REMARK    1  A    between atoms: C_1  and  O_2
REMARK    2  A    between atoms: O_2  and  C_3
REMARK    3  A    between atoms: C_6  and  C_7
REMARK    4  A    between atoms: C_10  and  N_11
REMARK                            x       y       z     vdW  Elec       q    Type
REMARK                         _______ _______ _______ _____ _____    ______ ____
ROOT
ATOM      1  C   UNL     1       5.836   5.959  16.857  0.00  0.00    +0.000 A 
ATOM      2  C   UNL     1       5.650   4.618  16.537  0.00  0.00    +0.000 A 
ATOM      3  C   UNL     1       4.436   3.978  16.815  0.00  0.00    +0.000 A 
ATOM      4  C   UNL     1       3.378   4.655  17.441  0.00  0.00    +0.000 A 
ATOM      5  C   UNL     1       3.581   6.017  17.741  0.00  0.00    +0.000 A 
ATOM      6  C   UNL     1       4.794   6.662  17.456  0.00  0.00    +0.000 A 
ENDROOT
BRANCH   4   7
ATOM      7  C   UNL     1       2.133   3.930  17.880  0.00  0.00    +0.000 C 
ATOM      8  F   UNL     1       0.953   4.461  17.353  0.00  0.00    +0.000 F 
ATOM      9  C   UNL     1       2.110   2.442  18.094  0.00  0.00    +0.000 C 
ATOM     10  C   UNL     1       1.997   3.353  19.279  0.00  0.00    +0.000 C 
BRANCH  10  11
ATOM     11  N   UNL     1       0.709   3.427  19.996  0.00  0.00    +0.000 NA
ATOM     12  H   UNL     1       0.163   2.581  19.808  0.00  0.00    +0.000 HD
ATOM     13  H   UNL     1       0.142   4.188  19.622  0.00  0.00    +0.000 HD
ENDBRANCH  10  11
ENDBRANCH   4   7
BRANCH   1  15
ATOM     14  C   UNL     1       7.553   7.459  17.493  0.00  0.00    +0.000 C 
ATOM     15  O   UNL     1       7.089   6.448  16.611  0.00  0.00    +0.000 OA
ENDBRANCH   1  15
TORSDOF 3
ENDMDL
MODEL 3
REMARK VINA RESULT:      -5.8      3.544      5.215
REMARK  Name = 
REMARK  4 active torsions:
REMARK  status: ('A' for Active; 'I' for Inactive)
REMARK    1  A    between atoms: C_1  and  O_2
REMARK    2  A    between atoms: O_2  and  C_3
REMARK    3  A    between atoms: C_6  and  C_7
REMARK    4  A    between atoms: C_10  and  N_11
REMARK                            x       y       z     vdW  Elec       q    Type
REMARK                         _______ _______ _______ _____ _____    ______ ____
ROOT
ATOM      1  C   UNL     1       1.837   3.104  19.031  0.00  0.00    +0.000 A 
ATOM      2  C   UNL     1       1.880   4.458  18.714  0.00  0.00    +0.000 A 
ATOM      3  C   UNL     1       2.839   4.952  17.822  0.00  0.00    +0.000 A 
ATOM      4  C   UNL     1       3.797   4.111  17.235  0.00  0.00    +0.000 A 
ATOM      5  C   UNL     1       3.725   2.741  17.557  0.00  0.00    +0.000 A 
ATOM      6  C   UNL     1       2.759   2.242  18.444  0.00  0.00    +0.000 A 
ENDROOT
BRANCH   4   7
ATOM      7  C   UNL     1       4.922   4.664  16.400  0.00  0.00    +0.000 C 
ATOM      8  F   UNL     1       4.989   4.127  15.113  0.00  0.00    +0.000 F 
ATOM      9  C   UNL     1       5.363   6.099  16.505  0.00  0.00    +0.000 C 
ATOM     10  C   UNL     1       6.269   5.016  17.008  0.00  0.00    +0.000 C 
BRANCH  10  11
ATOM     11  N   UNL     1       7.518   4.738  16.271  0.00  0.00    +0.000 NA
ATOM     12  H   UNL     1       7.878   5.606  15.867  0.00  0.00    +0.000 HD
ATOM     13  H   UNL     1       7.325   4.139  15.469  0.00  0.00    +0.000 HD
ENDBRANCH  10  11
ENDBRANCH   4   7
BRANCH   1  15
ATOM     14  C   UNL     1       1.334   2.826  21.327  0.00  0.00    +0.000 C 
ATOM     15  O   UNL     1       0.909   2.757  19.973  0.00  0.00    +0.000 OA
ENDBRANCH   1  15
TORSDOF 3
ENDMDL
MODEL 4
REMARK VINA RESULT:      -5.7      1.837      2.503
REMARK  Name = 
REMARK  4 active torsions:
REMARK  status: ('A' for Active; 'I' for Inactive)
REMARK    1  A    between atoms: C_1  and  O_2
REMARK    2  A    between atoms: O_2  and  C_3
REMARK    3  A    between atoms: C_6  and  C_7
REMARK    4  A    between atoms: C_10  and  N_11
REMARK                            x       y       z     vdW  Elec       q    Type
REMARK                         _______ _______ _______ _____ _____    ______ ____
ROOT
ATOM      1  C   UNL     1       5.151   5.565  16.148  0.00  0.00    +0.000 A 
ATOM      2  C   UNL     1       4.888   4.217  16.369  0.00  0.00    +0.000 A 
ATOM      3  C   UNL     1       4.094   3.811  17.449  0.00  0.00    +0.000 A 
ATOM      4  C   UNL     1       3.555   4.741  18.352  0.00  0.00    +0.000 A 
ATOM      5  C   UNL     1       3.820   6.102  18.100  0.00  0.00    +0.000 A 
ATOM      6  C   UNL     1       4.608   6.511  17.014  0.00  0.00    +0.000 A 
ENDROOT
BRANCH   4   7
ATOM      7  C   UNL     1       2.833   4.297  19.596  0.00  0.00    +0.000 C 
ATOM      8  F   UNL     1       3.505   3.309  20.319  0.00  0.00    +0.000 F 
ATOM      9  C   UNL     1       2.031   5.253  20.437  0.00  0.00    +0.000 C 
ATOM     10  C   UNL     1       1.318   4.197  19.648  0.00  0.00    +0.000 C 
BRANCH  10  11
ATOM     11  N   UNL     1       0.666   3.089  20.373  0.00  0.00    +0.000 NA
ATOM     12  H   UNL     1       0.133   3.463  21.163  0.00  0.00    +0.000 HD
ATOM     13  H   UNL     1       1.370   2.486  20.798  0.00  0.00    +0.000 HD
ENDBRANCH  10  11
ENDBRANCH   4   7
BRANCH   1  15
ATOM     14  C   UNL     1       6.560   4.699  14.454  0.00  0.00    +0.000 C 
ATOM     15  O   UNL     1       6.003   5.829  15.112  0.00  0.00    +0.000 OA
ENDBRANCH   1  15
TORSDOF 3
ENDMDL
MODEL 5
REMARK VINA RESULT:      -5.7      2.161      2.428
REMARK  Name = 
REMARK  4 active torsions:
REMARK  status: ('A' for Active; 'I' for Inactive)
REMARK    1  A    between atoms: C_1  and  O_2
REMARK    2  A    between atoms: O_2  and  C_3
REMARK    3  A    between atoms: C_6  and  C_7
REMARK    4  A    between atoms: C_10  and  N_11
REMARK                            x       y       z     vdW  Elec       q    Type
REMARK                         _______ _______ _______ _____ _____    ______ ____
ROOT
ATOM      1  C   UNL     1       6.315   4.520  16.820  0.00  0.00    +0.000 A 
ATOM      2  C   UNL     1       6.539   4.826  18.158  0.00  0.00    +0.000 A 
ATOM      3  C   UNL     1       5.542   4.609  19.117  0.00  0.00    +0.000 A 
ATOM      4  C   UNL     1       4.284   4.097  18.763  0.00  0.00    +0.000 A 
ATOM      5  C   UNL     1       4.085   3.778  17.405  0.00  0.00    +0.000 A 
ATOM      6  C   UNL     1       5.085   3.988  16.444  0.00  0.00    +0.000 A 
ENDROOT
BRANCH   4   7
ATOM      7  C   UNL     1       3.163   4.009  19.764  0.00  0.00    +0.000 C 
ATOM      8  F   UNL     1       2.940   5.193  20.470  0.00  0.00    +0.000 F 
ATOM      9  C   UNL     1       1.928   3.188  19.510  0.00  0.00    +0.000 C 
ATOM     10  C   UNL     1       2.901   2.741  20.559  0.00  0.00    +0.000 C 
BRANCH  10  11
ATOM     11  N   UNL     1       2.498   2.818  21.978  0.00  0.00    +0.000 NA
ATOM     12  H   UNL     1       1.498   3.031  22.039  0.00  0.00    +0.000 HD
ATOM     13  H   UNL     1       2.958   3.606  22.431  0.00  0.00    +0.000 HD
ENDBRANCH  10  11
ENDBRANCH   4   7
BRANCH   1  15
ATOM     14  C   UNL     1       7.034   4.802  14.581  0.00  0.00    +0.000 C 
ATOM     15  O   UNL     1       7.334   4.852  15.969  0.00  0.00    +0.000 OA
ENDBRANCH   1  15
TORSDOF 3
ENDMDL
MODEL 6
REMARK VINA RESULT:      -5.7      3.700      5.446
REMARK  Name = 
REMARK  4 active torsions:
REMARK  status: ('A' for Active; 'I' for Inactive)
REMARK    1  A    between atoms: C_1  and  O_2
REMARK    2  A    between atoms: O_2  and  C_3
REMARK    3  A    between atoms: C_6  and  C_7
REMARK    4  A    between atoms: C_10  and  N_11
REMARK                            x       y       z     vdW  Elec       q    Type
REMARK                         _______ _______ _______ _____ _____    ______ ____
ROOT
ATOM      1  C   UNL     1       2.909   2.783  19.025  0.00  0.00    +0.000 A 
ATOM      2  C   UNL     1       2.711   3.092  17.683  0.00  0.00    +0.000 A 
ATOM      3  C   UNL     1       3.665   3.830  16.972  0.00  0.00    +0.000 A 
ATOM      4  C   UNL     1       4.837   4.299  17.586  0.00  0.00    +0.000 A 
ATOM      5  C   UNL     1       5.025   3.960  18.941  0.00  0.00    +0.000 A 
ATOM      6  C   UNL     1       4.074   3.213  19.653  0.00  0.00    +0.000 A 
ENDROOT
BRANCH   4   7
ATOM      7  C   UNL     1       5.785   5.221  16.867  0.00  0.00    +0.000 C 
ATOM      8  F   UNL     1       5.151   6.243  16.157  0.00  0.00    +0.000 F 
ATOM      9  C   UNL     1       7.125   5.593  17.440  0.00  0.00    +0.000 C 
ATOM     10  C   UNL     1       7.066   4.711  16.230  0.00  0.00    +0.000 C 
BRANCH  10  11
ATOM     11  N   UNL     1       7.525   5.251  14.935  0.00  0.00    +0.000 NA
ATOM     12  H   UNL     1       7.754   4.480  14.304  0.00  0.00    +0.000 HD
ATOM     13  H   UNL     1       8.403   5.755  15.058  0.00  0.00    +0.000 HD
ENDBRANCH  10  11
ENDBRANCH   4   7
BRANCH   1  15
ATOM     14  C   UNL     1       1.393   2.696  20.841  0.00  0.00    +0.000 C 
ATOM     15  O   UNL     1       1.872   2.129  19.629  0.00  0.00    +0.000 OA
ENDBRANCH   1  15
TORSDOF 3
ENDMDL
MODEL 7
REMARK VINA RESULT:      -5.6      3.748      5.328
REMARK  Name = 
REMARK  4 active torsions:
REMARK  status: ('A' for Active; 'I' for Inactive)
REMARK    1  A    between atoms: C_1  and  O_2
REMARK    2  A    between atoms: O_2  and  C_3
REMARK    3  A    between atoms: C_6  and  C_7
REMARK    4  A    between atoms: C_10  and  N_11
REMARK                            x       y       z     vdW  Elec       q    Type
REMARK                         _______ _______ _______ _____ _____    ______ ____
ROOT
ATOM      1  C   UNL     1       2.498   4.066  19.328  0.00  0.00    +0.000 A 
ATOM      2  C   UNL     1       2.454   5.001  18.299  0.00  0.00    +0.000 A 
ATOM      3  C   UNL     1       3.621   5.369  17.618  0.00  0.00    +0.000 A 
ATOM      4  C   UNL     1       4.870   4.828  17.959  0.00  0.00    +0.000 A 
ATOM      5  C   UNL     1       4.889   3.871  18.993  0.00  0.00    +0.000 A 
ATOM      6  C   UNL     1       3.720   3.495  19.671  0.00  0.00    +0.000 A 
ENDROOT
BRANCH   4   7
ATOM      7  C   UNL     1       6.142   5.336  17.334  0.00  0.00    +0.000 C 
ATOM      8  F   UNL     1       6.184   6.724  17.184  0.00  0.00    +0.000 F 
ATOM      9  C   UNL     1       7.476   4.693  17.602  0.00  0.00    +0.000 C 
ATOM     10  C   UNL     1       6.860   4.561  16.242  0.00  0.00    +0.000 C 
BRANCH  10  11
ATOM     11  N   UNL     1       7.486   5.271  15.109  0.00  0.00    +0.000 NA
ATOM     12  H   UNL     1       6.798   5.888  14.669  0.00  0.00    +0.000 HD
ATOM     13  H   UNL     1       7.743   4.607  14.379  0.00  0.00    +0.000 HD
ENDBRANCH  10  11
ENDBRANCH   4   7
BRANCH   1  15
ATOM     14  C   UNL     1       1.356   3.010  21.113  0.00  0.00    +0.000 C 
ATOM     15  O   UNL     1       1.309   3.851  19.969  0.00  0.00    +0.000 OA
ENDBRANCH   1  15
TORSDOF 3
ENDMDL
MODEL 8
REMARK VINA RESULT:      -5.6      1.593      2.124
REMARK  Name = 
REMARK  4 active torsions:
REMARK  status: ('A' for Active; 'I' for Inactive)
REMARK    1  A    between atoms: C_1  and  O_2
REMARK    2  A    between atoms: O_2  and  C_3
REMARK    3  A    between atoms: C_6  and  C_7
REMARK    4  A    between atoms: C_10  and  N_11
REMARK                            x       y       z     vdW  Elec       q    Type
REMARK                         _______ _______ _______ _____ _____    ______ ____
ROOT
ATOM      1  C   UNL     1       6.641   6.476  17.094  0.00  0.00    +0.000 A 
ATOM      2  C   UNL     1       6.829   5.234  17.692  0.00  0.00    +0.000 A 
ATOM      3  C   UNL     1       5.733   4.435  18.038  0.00  0.00    +0.000 A 
ATOM      4  C   UNL     1       4.415   4.862  17.816  0.00  0.00    +0.000 A 
ATOM      5  C   UNL     1       4.248   6.116  17.195  0.00  0.00    +0.000 A 
ATOM      6  C   UNL     1       5.345   6.915  16.839  0.00  0.00    +0.000 A 
ENDROOT
BRANCH   4   7
ATOM      7  C   UNL     1       3.238   4.075  18.328  0.00  0.00    +0.000 C 
ATOM      8  F   UNL     1       3.299   3.789  19.694  0.00  0.00    +0.000 F 
ATOM      9  C   UNL     1       1.847   4.279  17.791  0.00  0.00    +0.000 C 
ATOM     10  C   UNL     1       2.570   3.001  17.487  0.00  0.00    +0.000 C 
BRANCH  10  11
ATOM     11  N   UNL     1       2.092   1.751  18.112  0.00  0.00    +0.000 NA
ATOM     12  H   UNL     1       1.964   1.898  19.117  0.00  0.00    +0.000 HD
ATOM     13  H   UNL     1       2.810   1.030  18.046  0.00  0.00    +0.000 HD
ENDBRANCH  10  11
ENDBRANCH   4   7
BRANCH   1  15
ATOM     14  C   UNL     1       7.933   8.382  17.644  0.00  0.00    +0.000 C 
ATOM     15  O   UNL     1       7.784   7.195  16.877  0.00  0.00    +0.000 OA
ENDBRANCH   1  15
TORSDOF 3
ENDMDL
MODEL 9
REMARK VINA RESULT:      -5.6      1.685      1.878
REMARK  Name = 
REMARK  4 active torsions:
REMARK  status: ('A' for Active; 'I' for Inactive)
REMARK    1  A    between atoms: C_1  and  O_2
REMARK    2  A    between atoms: O_2  and  C_3
REMARK    3  A    between atoms: C_6  and  C_7
REMARK    4  A    between atoms: C_10  and  N_11
REMARK                            x       y       z     vdW  Elec       q    Type
REMARK                         _______ _______ _______ _____ _____    ______ ____
ROOT
ATOM      1  C   UNL     1       6.569   6.580  17.477  0.00  0.00    +0.000 A 
ATOM      2  C   UNL     1       5.317   6.840  16.928  0.00  0.00    +0.000 A 
ATOM      3  C   UNL     1       4.202   6.080  17.300  0.00  0.00    +0.000 A 
ATOM      4  C   UNL     1       4.308   5.023  18.217  0.00  0.00    +0.000 A 
ATOM      5  C   UNL     1       5.582   4.788  18.773  0.00  0.00    +0.000 A 
ATOM      6  C   UNL     1       6.699   5.554  18.408  0.00  0.00    +0.000 A 
ENDROOT
BRANCH   4   7
ATOM      7  C   UNL     1       3.146   4.108  18.499  0.00  0.00    +0.000 C 
ATOM      8  F   UNL     1       3.010   3.765  19.846  0.00  0.00    +0.000 F 
ATOM      9  C   UNL     1       1.849   4.209  17.744  0.00  0.00    +0.000 C 
ATOM     10  C   UNL     1       2.733   3.018  17.525  0.00  0.00    +0.000 C 
BRANCH  10  11
ATOM     11  N   UNL     1       2.284   1.702  18.021  0.00  0.00    +0.000 NA
ATOM     12  H   UNL     1       3.064   1.227  18.484  0.00  0.00    +0.000 HD
ATOM     13  H   UNL     1       2.040   1.097  17.238  0.00  0.00    +0.000 HD
ENDBRANCH  10  11
ENDBRANCH   4   7
BRANCH   1  15
ATOM     14  C   UNL     1       7.939   8.496  17.718  0.00  0.00    +0.000 C 
ATOM     15  O   UNL     1       7.592   7.336  16.975  0.00  0.00    +0.000 OA
ENDBRANCH   1  15
TORSDOF 3
ENDMDL
