MODEL 1
REMARK VINA RESULT:      -5.9      0.000      0.000
REMARK  Name = 
REMARK  4 active torsions:
REMARK  status: ('A' for Active; 'I' for Inactive)
REMARK    1  A    between atoms: C_1  and  O_2
REMARK    2  A    between atoms: O_2  and  C_3
REMARK    3  A    between atoms: C_7  and  C_8
REMARK    4  A    between atoms: N_10  and  O_11
REMARK                            x       y       z     vdW  Elec       q    Type
REMARK                         _______ _______ _______ _____ _____    ______ ____
ROOT
ATOM      1  C   UNL     1       2.935   3.864  17.401  0.00  0.00    +0.000 A 
ATOM      2  C   UNL     1       2.457   5.045  17.976  0.00  0.00    +0.000 A 
ATOM      3  C   UNL     1       3.239   6.201  17.989  0.00  0.00    +0.000 A 
ATOM      4  C   UNL     1       4.508   6.184  17.415  0.00  0.00    +0.000 A 
ATOM      5  C   UNL     1       4.998   5.005  16.844  0.00  0.00    +0.000 A 
ATOM      6  C   UNL     1       4.214   3.842  16.842  0.00  0.00    +0.000 A 
ENDROOT
BRANCH   5   7
ATOM      7  C   UNL     1       6.352   4.990  16.213  0.00  0.00    +0.000 C 
ATOM      8  N   UNL     1       7.396   4.396  16.883  0.00  0.00    +0.000 N 
ATOM      9  N   UNL     1       6.504   5.545  15.045  0.00  0.00    +0.000 NA
ATOM     10  H   UNL     1       7.433   4.601  17.875  0.00  0.00    +0.000 HD
ATOM     11  H   UNL     1       8.269   4.638  16.416  0.00  0.00    +0.000 HD
BRANCH   9  12
ATOM     12  O   UNL     1       7.835   5.439  14.608  0.00  0.00    +0.000 OA
ATOM     13  H   UNL     1       8.169   4.705  15.156  0.00  0.00    +0.000 HD
ENDBRANCH   9  12
ENDBRANCH   5   7
BRANCH   1  15
ATOM     14  C   UNL     1       1.208   2.721  18.575  0.00  0.00    +0.000 C 
ATOM     15  O   UNL     1       2.055   2.817  17.435  0.00  0.00    +0.000 OA
ENDBRANCH   1  15
TORSDOF 3
ENDMDL
MODEL 2
REMARK VINA RESULT:      -5.9      1.390      1.594
REMARK  Name = 
REMARK  4 active torsions:
REMARK  status: ('A' for Active; 'I' for Inactive)
REMARK    1  A    between atoms: C_1  and  O_2
REMARK    2  A    between atoms: O_2  and  C_3
REMARK    3  A    between atoms: C_7  and  C_8
REMARK    4  A    between atoms: N_10  and  O_11
REMARK                            x       y       z     vdW  Elec       q    Type
REMARK                         _______ _______ _______ _____ _____    ______ ____
ROOT
ATOM      1  C   UNL     1       2.316   4.314  17.746  0.00  0.00    +0.000 A 
ATOM      2  C   UNL     1       2.091   5.647  18.102  0.00  0.00    +0.000 A 
ATOM      3  C   UNL     1       3.149   6.553  18.188  0.00  0.00    +0.000 A 
ATOM      4  C   UNL     1       4.447   6.128  17.908  0.00  0.00    +0.000 A 
ATOM      5  C   UNL     1       4.684   4.795  17.559  0.00  0.00    +0.000 A 
ATOM      6  C   UNL     1       3.619   3.886  17.483  0.00  0.00    +0.000 A 
ENDROOT
BRANCH   5   7
ATOM      7  C   UNL     1       6.071   4.344  17.243  0.00  0.00    +0.000 C 
ATOM      8  N   UNL     1       6.316   3.729  16.036  0.00  0.00    +0.000 N 
ATOM      9  N   UNL     1       7.011   4.543  18.121  0.00  0.00    +0.000 NA
ATOM     10  H   UNL     1       5.614   3.053  15.757  0.00  0.00    +0.000 HD
ATOM     11  H   UNL     1       7.248   3.319  16.057  0.00  0.00    +0.000 HD
BRANCH   9  12
ATOM     12  O   UNL     1       8.245   4.056  17.657  0.00  0.00    +0.000 OA
ATOM     13  H   UNL     1       8.784   4.868  17.630  0.00  0.00    +0.000 HD
ENDBRANCH   9  12
ENDBRANCH   5   7
BRANCH   1  15
ATOM     14  C   UNL     1       1.011   2.558  18.684  0.00  0.00    +0.000 C 
ATOM     15  O   UNL     1       1.187   3.546  17.674  0.00  0.00    +0.000 OA
ENDBRANCH   1  15
TORSDOF 3
ENDMDL
MODEL 3
REMARK VINA RESULT:      -5.8      2.312      2.565
REMARK  Name = 
REMARK  4 active torsions:
REMARK  status: ('A' for Active; 'I' for Inactive)
REMARK    1  A    between atoms: C_1  and  O_2
REMARK    2  A    between atoms: O_2  and  C_3
REMARK    3  A    between atoms: C_7  and  C_8
REMARK    4  A    between atoms: N_10  and  O_11
REMARK                            x       y       z     vdW  Elec       q    Type
REMARK                         _______ _______ _______ _____ _____    ______ ____
ROOT
ATOM      1  C   UNL     1       2.971   3.755  19.103  0.00  0.00    +0.000 A 
ATOM      2  C   UNL     1       2.329   4.801  18.433  0.00  0.00    +0.000 A 
ATOM      3  C   UNL     1       3.057   5.872  17.915  0.00  0.00    +0.000 A 
ATOM      4  C   UNL     1       4.443   5.900  18.059  0.00  0.00    +0.000 A 
ATOM      5  C   UNL     1       5.094   4.863  18.735  0.00  0.00    +0.000 A 
ATOM      6  C   UNL     1       4.357   3.792  19.262  0.00  0.00    +0.000 A 
ENDROOT
BRANCH   5   7
ATOM      7  C   UNL     1       6.580   4.883  18.875  0.00  0.00    +0.000 C 
ATOM      8  N   UNL     1       7.354   4.342  17.873  0.00  0.00    +0.000 N 
ATOM      9  N   UNL     1       7.102   5.411  19.944  0.00  0.00    +0.000 NA
ATOM     10  H   UNL     1       7.010   3.464  17.502  0.00  0.00    +0.000 HD
ATOM     11  H   UNL     1       8.314   4.262  18.204  0.00  0.00    +0.000 HD
BRANCH   9  12
ATOM     12  O   UNL     1       8.505   5.341  19.906  0.00  0.00    +0.000 OA
ATOM     13  H   UNL     1       8.699   4.785  20.683  0.00  0.00    +0.000 HD
ENDBRANCH   9  12
ENDBRANCH   5   7
BRANCH   1  15
ATOM     14  C   UNL     1       0.955   2.532  18.775  0.00  0.00    +0.000 C 
ATOM     15  O   UNL     1       2.138   2.759  19.533  0.00  0.00    +0.000 OA
ENDBRANCH   1  15
TORSDOF 3
ENDMDL
MODEL 4
REMARK VINA RESULT:      -5.8      2.500      3.517
REMARK  Name = 
REMARK  4 active torsions:
REMARK  status: ('A' for Active; 'I' for Inactive)
REMARK    1  A    between atoms: C_1  and  O_2
REMARK    2  A    between atoms: O_2  and  C_3
REMARK    3  A    between atoms: C_7  and  C_8
REMARK    4  A    between atoms: N_10  and  O_11
REMARK                            x       y       z     vdW  Elec       q    Type
REMARK                         _______ _______ _______ _____ _____    ______ ____
ROOT
ATOM      1  C   UNL     1       6.156   4.744  18.492  0.00  0.00    +0.000 A 
ATOM      2  C   UNL     1       4.879   4.191  18.617  0.00  0.00    +0.000 A 
ATOM      3  C   UNL     1       4.174   3.757  17.493  0.00  0.00    +0.000 A 
ATOM      4  C   UNL     1       4.751   3.870  16.229  0.00  0.00    +0.000 A 
ATOM      5  C   UNL     1       6.025   4.430  16.093  0.00  0.00    +0.000 A 
ATOM      6  C   UNL     1       6.726   4.873  17.224  0.00  0.00    +0.000 A 
ENDROOT
BRANCH   5   7
ATOM      7  C   UNL     1       6.651   4.534  14.742  0.00  0.00    +0.000 C 
ATOM      8  N   UNL     1       6.330   3.603  13.781  0.00  0.00    +0.000 N 
ATOM      9  N   UNL     1       7.488   5.505  14.512  0.00  0.00    +0.000 NA
ATOM     10  H   UNL     1       6.288   2.647  14.117  0.00  0.00    +0.000 HD
ATOM     11  H   UNL     1       6.975   3.700  12.998  0.00  0.00    +0.000 HD
BRANCH   9  12
ATOM     12  O   UNL     1       7.977   5.447  13.196  0.00  0.00    +0.000 OA
ATOM     13  H   UNL     1       7.156   5.507  12.674  0.00  0.00    +0.000 HD
ENDBRANCH   9  12
ENDBRANCH   5   7
BRANCH   1  15
ATOM     14  C   UNL     1       7.989   5.779  19.603  0.00  0.00    +0.000 C 
ATOM     15  O   UNL     1       6.740   5.101  19.676  0.00  0.00    +0.000 OA
ENDBRANCH   1  15
TORSDOF 3
ENDMDL
MODEL 5
REMARK VINA RESULT:      -5.7      2.495      2.953
REMARK  Name = 
REMARK  4 active torsions:
REMARK  status: ('A' for Active; 'I' for Inactive)
REMARK    1  A    between atoms: C_1  and  O_2
REMARK    2  A    between atoms: O_2  and  C_3
REMARK    3  A    between atoms: C_7  and  C_8
REMARK    4  A    between atoms: N_10  and  O_11
REMARK                            x       y       z     vdW  Elec       q    Type
REMARK                         _______ _______ _______ _____ _____    ______ ____
ROOT
ATOM      1  C   UNL     1       2.779   4.356  19.249  0.00  0.00    +0.000 A 
ATOM      2  C   UNL     1       2.383   3.875  17.998  0.00  0.00    +0.000 A 
ATOM      3  C   UNL     1       3.316   3.676  16.980  0.00  0.00    +0.000 A 
ATOM      4  C   UNL     1       4.662   3.951  17.212  0.00  0.00    +0.000 A 
ATOM      5  C   UNL     1       5.068   4.441  18.458  0.00  0.00    +0.000 A 
ATOM      6  C   UNL     1       4.125   4.648  19.476  0.00  0.00    +0.000 A 
ENDROOT
BRANCH   5   7
ATOM      7  C   UNL     1       6.512   4.719  18.713  0.00  0.00    +0.000 C 
ATOM      8  N   UNL     1       7.448   4.301  17.794  0.00  0.00    +0.000 N 
ATOM      9  N   UNL     1       6.845   5.350  19.803  0.00  0.00    +0.000 NA
ATOM     10  H   UNL     1       7.291   3.370  17.427  0.00  0.00    +0.000 HD
ATOM     11  H   UNL     1       8.376   4.395  18.203  0.00  0.00    +0.000 HD
BRANCH   9  12
ATOM     12  O   UNL     1       8.238   5.522  19.878  0.00  0.00    +0.000 OA
ATOM     13  H   UNL     1       8.535   5.128  19.037  0.00  0.00    +0.000 HD
ENDBRANCH   9  12
ENDBRANCH   5   7
BRANCH   1  15
ATOM     14  C   UNL     1       1.789   3.595  21.276  0.00  0.00    +0.000 C 
ATOM     15  O   UNL     1       1.766   4.478  20.159  0.00  0.00    +0.000 OA
ENDBRANCH   1  15
TORSDOF 3
ENDMDL
MODEL 6
REMARK VINA RESULT:      -5.6      2.330      4.547
REMARK  Name = 
REMARK  4 active torsions:
REMARK  status: ('A' for Active; 'I' for Inactive)
REMARK    1  A    between atoms: C_1  and  O_2
REMARK    2  A    between atoms: O_2  and  C_3
REMARK    3  A    between atoms: C_7  and  C_8
REMARK    4  A    between atoms: N_10  and  O_11
REMARK                            x       y       z     vdW  Elec       q    Type
REMARK                         _______ _______ _______ _____ _____    ______ ____
ROOT
ATOM      1  C   UNL     1       5.495   5.407  15.690  0.00  0.00    +0.000 A 
ATOM      2  C   UNL     1       5.135   6.644  16.234  0.00  0.00    +0.000 A 
ATOM      3  C   UNL     1       4.209   6.726  17.273  0.00  0.00    +0.000 A 
ATOM      4  C   UNL     1       3.638   5.561  17.785  0.00  0.00    +0.000 A 
ATOM      5  C   UNL     1       3.985   4.320  17.242  0.00  0.00    +0.000 A 
ATOM      6  C   UNL     1       4.910   4.243  16.191  0.00  0.00    +0.000 A 
ENDROOT
BRANCH   5   7
ATOM      7  C   UNL     1       3.387   3.071  17.801  0.00  0.00    +0.000 C 
ATOM      8  N   UNL     1       4.190   2.201  18.503  0.00  0.00    +0.000 N 
ATOM      9  N   UNL     1       2.121   2.840  17.605  0.00  0.00    +0.000 NA
ATOM     10  H   UNL     1       5.103   2.044  18.091  0.00  0.00    +0.000 HD
ATOM     11  H   UNL     1       3.686   1.327  18.644  0.00  0.00    +0.000 HD
BRANCH   9  12
ATOM     12  O   UNL     1       1.734   1.625  18.196  0.00  0.00    +0.000 OA
ATOM     13  H   UNL     1       1.270   1.931  18.998  0.00  0.00    +0.000 HD
ENDBRANCH   9  12
ENDBRANCH   5   7
BRANCH   1  15
ATOM     14  C   UNL     1       6.593   4.317  13.881  0.00  0.00    +0.000 C 
ATOM     15  O   UNL     1       6.432   5.473  14.696  0.00  0.00    +0.000 OA
ENDBRANCH   1  15
TORSDOF 3
ENDMDL
MODEL 7
REMARK VINA RESULT:      -5.6      1.132      1.314
REMARK  Name = 
REMARK  4 active torsions:
REMARK  status: ('A' for Active; 'I' for Inactive)
REMARK    1  A    between atoms: C_1  and  O_2
REMARK    2  A    between atoms: O_2  and  C_3
REMARK    3  A    between atoms: C_7  and  C_8
REMARK    4  A    between atoms: N_10  and  O_11
REMARK                            x       y       z     vdW  Elec       q    Type
REMARK                         _______ _______ _______ _____ _____    ______ ____
ROOT
ATOM      1  C   UNL     1       3.444   3.896  17.473  0.00  0.00    +0.000 A 
ATOM      2  C   UNL     1       3.118   5.128  18.045  0.00  0.00    +0.000 A 
ATOM      3  C   UNL     1       3.797   6.290  17.676  0.00  0.00    +0.000 A 
ATOM      4  C   UNL     1       4.807   6.226  16.718  0.00  0.00    +0.000 A 
ATOM      5  C   UNL     1       5.146   4.996  16.145  0.00  0.00    +0.000 A 
ATOM      6  C   UNL     1       4.468   3.829  16.526  0.00  0.00    +0.000 A 
ENDROOT
BRANCH   5   7
ATOM      7  C   UNL     1       6.216   4.929  15.106  0.00  0.00    +0.000 C 
ATOM      8  N   UNL     1       6.078   4.045  14.060  0.00  0.00    +0.000 N 
ATOM      9  N   UNL     1       7.253   5.708  15.223  0.00  0.00    +0.000 NA
ATOM     10  H   UNL     1       5.735   3.129  14.324  0.00  0.00    +0.000 HD
ATOM     11  H   UNL     1       6.963   3.987  13.559  0.00  0.00    +0.000 HD
BRANCH   9  12
ATOM     12  O   UNL     1       8.153   5.509  14.163  0.00  0.00    +0.000 OA
ATOM     13  H   UNL     1       8.750   6.274  14.260  0.00  0.00    +0.000 HD
ENDBRANCH   9  12
ENDBRANCH   5   7
BRANCH   1  15
ATOM     14  C   UNL     1       3.371   1.721  18.437  0.00  0.00    +0.000 C 
ATOM     15  O   UNL     1       2.681   2.847  17.907  0.00  0.00    +0.000 OA
ENDBRANCH   1  15
TORSDOF 3
ENDMDL
MODEL 8
REMARK VINA RESULT:      -5.6      2.535      2.805
REMARK  Name = 
REMARK  4 active torsions:
REMARK  status: ('A' for Active; 'I' for Inactive)
REMARK    1  A    between atoms: C_1  and  O_2
REMARK    2  A    between atoms: O_2  and  C_3
REMARK    3  A    between atoms: C_7  and  C_8
REMARK    4  A    between atoms: N_10  and  O_11
REMARK                            x       y       z     vdW  Elec       q    Type
REMARK                         _______ _______ _______ _____ _____    ______ ____
ROOT
ATOM      1  C   UNL     1       3.093   4.705  18.979  0.00  0.00    +0.000 A 
ATOM      2  C   UNL     1       2.727   5.734  18.107  0.00  0.00    +0.000 A 
ATOM      3  C   UNL     1       3.694   6.550  17.517  0.00  0.00    +0.000 A 
ATOM      4  C   UNL     1       5.043   6.333  17.793  0.00  0.00    +0.000 A 
ATOM      5  C   UNL     1       5.418   5.312  18.671  0.00  0.00    +0.000 A 
ATOM      6  C   UNL     1       4.443   4.500  19.269  0.00  0.00    +0.000 A 
ENDROOT
BRANCH   5   7
ATOM      7  C   UNL     1       6.864   5.068  18.954  0.00  0.00    +0.000 C 
ATOM      8  N   UNL     1       7.624   4.396  18.024  0.00  0.00    +0.000 N 
ATOM      9  N   UNL     1       7.364   5.497  20.077  0.00  0.00    +0.000 NA
ATOM     10  H   UNL     1       7.168   3.592  17.608  0.00  0.00    +0.000 HD
ATOM     11  H   UNL     1       8.518   4.148  18.445  0.00  0.00    +0.000 HD
BRANCH   9  12
ATOM     12  O   UNL     1       8.729   5.179  20.174  0.00  0.00    +0.000 OA
ATOM     13  H   UNL     1       8.703   4.209  20.271  0.00  0.00    +0.000 HD
ENDBRANCH   9  12
ENDBRANCH   5   7
BRANCH   1  15
ATOM     14  C   UNL     1       1.326   4.513  20.563  0.00  0.00    +0.000 C 
ATOM     15  O   UNL     1       2.046   3.970  19.462  0.00  0.00    +0.000 OA
ENDBRANCH   1  15
TORSDOF 3
ENDMDL
MODEL 9
REMARK VINA RESULT:      -5.6      1.679      2.623
REMARK  Name = 
REMARK  4 active torsions:
REMARK  status: ('A' for Active; 'I' for Inactive)
REMARK    1  A    between atoms: C_1  and  O_2
REMARK    2  A    between atoms: O_2  and  C_3
REMARK    3  A    between atoms: C_7  and  C_8
REMARK    4  A    between atoms: N_10  and  O_11
REMARK                            x       y       z     vdW  Elec       q    Type
REMARK                         _______ _______ _______ _____ _____    ______ ____
ROOT
ATOM      1  C   UNL     1       3.285   6.217  17.928  0.00  0.00    +0.000 A 
ATOM      2  C   UNL     1       2.743   4.929  17.920  0.00  0.00    +0.000 A 
ATOM      3  C   UNL     1       3.391   3.885  17.259  0.00  0.00    +0.000 A 
ATOM      4  C   UNL     1       4.598   4.124  16.605  0.00  0.00    +0.000 A 
ATOM      5  C   UNL     1       5.144   5.411  16.600  0.00  0.00    +0.000 A 
ATOM      6  C   UNL     1       4.485   6.460  17.257  0.00  0.00    +0.000 A 
ENDROOT
BRANCH   5   7
ATOM      7  C   UNL     1       6.446   5.665  15.914  0.00  0.00    +0.000 C 
ATOM      8  N   UNL     1       7.432   6.353  16.584  0.00  0.00    +0.000 N 
ATOM      9  N   UNL     1       6.609   5.229  14.698  0.00  0.00    +0.000 NA
ATOM     10  H   UNL     1       7.105   7.157  17.106  0.00  0.00    +0.000 HD
ATOM     11  H   UNL     1       8.166   6.605  15.923  0.00  0.00    +0.000 HD
BRANCH   9  12
ATOM     12  O   UNL     1       7.886   5.558  14.213  0.00  0.00    +0.000 OA
ATOM     13  H   UNL     1       8.401   4.764  14.450  0.00  0.00    +0.000 HD
ENDBRANCH   9  12
ENDBRANCH   5   7
BRANCH   1  15
ATOM     14  C   UNL     1       2.236   8.354  17.974  0.00  0.00    +0.000 C 
ATOM     15  O   UNL     1       2.559   7.136  18.635  0.00  0.00    +0.000 OA
ENDBRANCH   1  15
TORSDOF 3
ENDMDL
