MODEL 1
REMARK VINA RESULT:      -8.4      0.000      0.000
REMARK  Name = 
REMARK  4 active torsions:
REMARK  status: ('A' for Active; 'I' for Inactive)
REMARK    1  A    between atoms: C_2  and  C_3
REMARK    2  A    between atoms: C_3  and  N_4
REMARK    3  A    between atoms: C_5  and  C_7
REMARK    4  A    between atoms: C_7  and  N_8
REMARK                            x       y       z     vdW  Elec       q    Type
REMARK                         _______ _______ _______ _____ _____    ______ ____
ROOT
ATOM      1  N   UNL     1       5.854   5.044  17.510  0.00  0.00    +0.000 N 
ATOM      2  C   UNL     1       4.642   5.227  16.863  0.00  0.00    +0.000 C 
ATOM      3  O   UNL     1       4.303   4.836  15.762  0.00  0.00    +0.000 OA
ATOM      4  C   UNL     1       3.857   6.102  17.785  0.00  0.00    +0.000 C 
ATOM      5  C   UNL     1       2.335   6.172  17.742  0.00  0.00    +0.000 C 
ATOM      6  C   UNL     1       2.003   7.305  18.728  0.00  0.00    +0.000 A 
ATOM      7  C   UNL     1       1.142   8.363  18.451  0.00  0.00    +0.000 A 
ATOM      8  C   UNL     1       0.719   9.176  19.503  0.00  0.00    +0.000 A 
ATOM      9  C   UNL     1       1.143   8.919  20.814  0.00  0.00    +0.000 A 
ATOM     10  C   UNL     1       2.038   7.876  21.092  0.00  0.00    +0.000 A 
ATOM     11  C   UNL     1       2.503   7.083  20.046  0.00  0.00    +0.000 A 
ATOM     12  C   UNL     1       3.268   5.758  20.214  0.00  0.00    +0.000 C 
ATOM     13  C   UNL     1       2.212   4.697  19.746  0.00  0.00    +0.000 A 
ATOM     14  C   UNL     1       1.865   3.540  20.426  0.00  0.00    +0.000 A 
ATOM     15  C   UNL     1       1.102   2.586  19.748  0.00  0.00    +0.000 A 
ATOM     16  C   UNL     1       0.705   2.779  18.412  0.00  0.00    +0.000 A 
ATOM     17  C   UNL     1       1.047   3.939  17.720  0.00  0.00    +0.000 A 
ATOM     18  C   UNL     1       1.790   4.896  18.385  0.00  0.00    +0.000 A 
ATOM     19  C   UNL     1       4.324   5.488  19.117  0.00  0.00    +0.000 C 
ATOM     20  C   UNL     1       5.807   5.476  18.845  0.00  0.00    +0.000 C 
ATOM     21  O   UNL     1       6.726   5.669  19.614  0.00  0.00    +0.000 OA
ENDROOT
BRANCH   1  22
ATOM     22  C   UNL     1       6.928   4.277  16.912  0.00  0.00    +0.000 C 
BRANCH  22  24
ATOM     23  N   UNL     1       6.624   3.785  14.535  0.00  0.00    +0.000 N 
ATOM     24  C   UNL     1       7.161   4.682  15.445  0.00  0.00    +0.000 C 
ATOM     25  O   UNL     1       7.751   5.716  15.126  0.00  0.00    +0.000 OA
ATOM     26  H   UNL     1       6.073   3.001  14.860  0.00  0.00    +0.000 HD
BRANCH  23  27
ATOM     27  C   UNL     1       6.702   3.977  13.101  0.00  0.00    +0.000 C 
BRANCH  27  29
ATOM     28  C   UNL     1       4.668   3.402  11.728  0.00  0.00    +0.000 C 
ATOM     29  C   UNL     1       5.735   3.037  12.453  0.00  0.00    +0.000 C 
ENDBRANCH  27  29
ENDBRANCH  23  27
ENDBRANCH  22  24
ENDBRANCH   1  22
TORSDOF 4
ENDMDL
MODEL 2
REMARK VINA RESULT:      -8.3      3.366      6.761
REMARK  Name = 
REMARK  4 active torsions:
REMARK  status: ('A' for Active; 'I' for Inactive)
REMARK    1  A    between atoms: C_2  and  C_3
REMARK    2  A    between atoms: C_3  and  N_4
REMARK    3  A    between atoms: C_5  and  C_7
REMARK    4  A    between atoms: C_7  and  N_8
REMARK                            x       y       z     vdW  Elec       q    Type
REMARK                         _______ _______ _______ _____ _____    ______ ____
ROOT
ATOM      1  N   UNL     1       1.910   8.459  19.137  0.00  0.00    +0.000 N 
ATOM      2  C   UNL     1       2.278   7.923  17.913  0.00  0.00    +0.000 C 
ATOM      3  O   UNL     1       2.407   8.490  16.844  0.00  0.00    +0.000 OA
ATOM      4  C   UNL     1       2.395   6.456  18.170  0.00  0.00    +0.000 C 
ATOM      5  C   UNL     1       3.226   5.538  17.282  0.00  0.00    +0.000 C 
ATOM      6  C   UNL     1       2.907   4.134  17.823  0.00  0.00    +0.000 A 
ATOM      7  C   UNL     1       2.542   3.049  17.032  0.00  0.00    +0.000 A 
ATOM      8  C   UNL     1       2.534   1.776  17.603  0.00  0.00    +0.000 A 
ATOM      9  C   UNL     1       2.902   1.596  18.944  0.00  0.00    +0.000 A 
ATOM     10  C   UNL     1       3.236   2.691  19.753  0.00  0.00    +0.000 A 
ATOM     11  C   UNL     1       3.206   3.973  19.209  0.00  0.00    +0.000 A 
ATOM     12  C   UNL     1       3.790   5.230  19.878  0.00  0.00    +0.000 C 
ATOM     13  C   UNL     1       5.044   5.536  18.986  0.00  0.00    +0.000 A 
ATOM     14  C   UNL     1       6.325   5.796  19.446  0.00  0.00    +0.000 A 
ATOM     15  C   UNL     1       7.258   6.298  18.536  0.00  0.00    +0.000 A 
ATOM     16  C   UNL     1       6.913   6.548  17.194  0.00  0.00    +0.000 A 
ATOM     17  C   UNL     1       5.628   6.288  16.722  0.00  0.00    +0.000 A 
ATOM     18  C   UNL     1       4.700   5.778  17.610  0.00  0.00    +0.000 A 
ATOM     19  C   UNL     1       3.008   6.531  19.579  0.00  0.00    +0.000 C 
ATOM     20  C   UNL     1       2.055   7.532  20.181  0.00  0.00    +0.000 C 
ATOM     21  O   UNL     1       1.622   7.589  21.313  0.00  0.00    +0.000 OA
ENDROOT
BRANCH   1  22
ATOM     22  C   UNL     1       1.648   9.875  19.300  0.00  0.00    +0.000 C 
BRANCH  22  24
ATOM     23  N   UNL     1      -0.379  10.511  18.088  0.00  0.00    +0.000 N 
ATOM     24  C   UNL     1       0.138  10.169  19.328  0.00  0.00    +0.000 C 
ATOM     25  O   UNL     1      -0.538  10.086  20.356  0.00  0.00    +0.000 OA
ATOM     26  H   UNL     1       0.210  10.475  17.265  0.00  0.00    +0.000 HD
BRANCH  23  27
ATOM     27  C   UNL     1      -1.781  10.805  17.874  0.00  0.00    +0.000 C 
BRANCH  27  29
ATOM     28  C   UNL     1      -2.721  10.381  15.573  0.00  0.00    +0.000 C 
ATOM     29  C   UNL     1      -2.272   9.938  16.757  0.00  0.00    +0.000 C 
ENDBRANCH  27  29
ENDBRANCH  23  27
ENDBRANCH  22  24
ENDBRANCH   1  22
TORSDOF 4
ENDMDL
MODEL 3
REMARK VINA RESULT:      -8.3      3.388      6.858
REMARK  Name = 
REMARK  4 active torsions:
REMARK  status: ('A' for Active; 'I' for Inactive)
REMARK    1  A    between atoms: C_2  and  C_3
REMARK    2  A    between atoms: C_3  and  N_4
REMARK    3  A    between atoms: C_5  and  C_7
REMARK    4  A    between atoms: C_7  and  N_8
REMARK                            x       y       z     vdW  Elec       q    Type
REMARK                         _______ _______ _______ _____ _____    ______ ____
ROOT
ATOM      1  N   UNL     1       1.394   8.685  19.471  0.00  0.00    +0.000 N 
ATOM      2  C   UNL     1       1.970   7.785  20.354  0.00  0.00    +0.000 C 
ATOM      3  O   UNL     1       1.720   7.614  21.533  0.00  0.00    +0.000 OA
ATOM      4  C   UNL     1       3.046   7.121  19.560  0.00  0.00    +0.000 C 
ATOM      5  C   UNL     1       3.611   5.756  19.935  0.00  0.00    +0.000 C 
ATOM      6  C   UNL     1       4.783   5.574  18.955  0.00  0.00    +0.000 A 
ATOM      7  C   UNL     1       6.066   5.185  19.326  0.00  0.00    +0.000 A 
ATOM      8  C   UNL     1       6.964   4.802  18.329  0.00  0.00    +0.000 A 
ATOM      9  C   UNL     1       6.572   4.797  16.983  0.00  0.00    +0.000 A 
ATOM     10  C   UNL     1       5.292   5.222  16.603  0.00  0.00    +0.000 A 
ATOM     11  C   UNL     1       4.398   5.648  17.583  0.00  0.00    +0.000 A 
ATOM     12  C   UNL     1       2.894   5.890  17.362  0.00  0.00    +0.000 C 
ATOM     13  C   UNL     1       2.242   4.697  18.143  0.00  0.00    +0.000 A 
ATOM     14  C   UNL     1       1.257   3.851  17.659  0.00  0.00    +0.000 A 
ATOM     15  C   UNL     1       0.611   3.010  18.570  0.00  0.00    +0.000 A 
ATOM     16  C   UNL     1       0.934   3.026  19.940  0.00  0.00    +0.000 A 
ATOM     17  C   UNL     1       1.924   3.872  20.435  0.00  0.00    +0.000 A 
ATOM     18  C   UNL     1       2.579   4.699  19.542  0.00  0.00    +0.000 A 
ATOM     19  C   UNL     1       2.303   7.037  18.215  0.00  0.00    +0.000 C 
ATOM     20  C   UNL     1       1.807   8.460  18.148  0.00  0.00    +0.000 C 
ATOM     21  O   UNL     1       1.682   9.180  17.180  0.00  0.00    +0.000 OA
ENDROOT
BRANCH   1  22
ATOM     22  C   UNL     1       0.323   9.572  19.878  0.00  0.00    +0.000 C 
BRANCH  22  24
ATOM     23  N   UNL     1       0.891  11.769  18.965  0.00  0.00    +0.000 N 
ATOM     24  C   UNL     1       0.836  11.003  20.119  0.00  0.00    +0.000 C 
ATOM     25  O   UNL     1       1.146  11.419  21.237  0.00  0.00    +0.000 OA
ATOM     26  H   UNL     1       0.538  11.398  18.092  0.00  0.00    +0.000 HD
BRANCH  23  27
ATOM     27  C   UNL     1       1.321  13.153  18.960  0.00  0.00    +0.000 C 
BRANCH  27  29
ATOM     28  C   UNL     1       3.471  14.280  18.282  0.00  0.00    +0.000 C 
ATOM     29  C   UNL     1       2.642  13.227  18.261  0.00  0.00    +0.000 C 
ENDBRANCH  27  29
ENDBRANCH  23  27
ENDBRANCH  22  24
ENDBRANCH   1  22
TORSDOF 4
ENDMDL
MODEL 4
REMARK VINA RESULT:      -8.0      3.410      6.628
REMARK  Name = 
REMARK  4 active torsions:
REMARK  status: ('A' for Active; 'I' for Inactive)
REMARK    1  A    between atoms: C_2  and  C_3
REMARK    2  A    between atoms: C_3  and  N_4
REMARK    3  A    between atoms: C_5  and  C_7
REMARK    4  A    between atoms: C_7  and  N_8
REMARK                            x       y       z     vdW  Elec       q    Type
REMARK                         _______ _______ _______ _____ _____    ______ ____
ROOT
ATOM      1  N   UNL     1       1.305   8.652  19.533  0.00  0.00    +0.000 N 
ATOM      2  C   UNL     1       1.927   7.769  20.402  0.00  0.00    +0.000 C 
ATOM      3  O   UNL     1       1.718   7.601  21.589  0.00  0.00    +0.000 OA
ATOM      4  C   UNL     1       2.990   7.121  19.577  0.00  0.00    +0.000 C 
ATOM      5  C   UNL     1       3.594   5.771  19.943  0.00  0.00    +0.000 C 
ATOM      6  C   UNL     1       4.737   5.605  18.926  0.00  0.00    +0.000 A 
ATOM      7  C   UNL     1       6.039   5.244  19.258  0.00  0.00    +0.000 A 
ATOM      8  C   UNL     1       6.912   4.872  18.235  0.00  0.00    +0.000 A 
ATOM      9  C   UNL     1       6.477   4.850  16.902  0.00  0.00    +0.000 A 
ATOM     10  C   UNL     1       5.176   5.247  16.562  0.00  0.00    +0.000 A 
ATOM     11  C   UNL     1       4.306   5.662  17.567  0.00  0.00    +0.000 A 
ATOM     12  C   UNL     1       2.792   5.873  17.394  0.00  0.00    +0.000 C 
ATOM     13  C   UNL     1       2.189   4.672  18.203  0.00  0.00    +0.000 A 
ATOM     14  C   UNL     1       1.206   3.803  17.757  0.00  0.00    +0.000 A 
ATOM     15  C   UNL     1       0.607   2.956  18.693  0.00  0.00    +0.000 A 
ATOM     16  C   UNL     1       0.974   2.989  20.052  0.00  0.00    +0.000 A 
ATOM     17  C   UNL     1       1.962   3.858  20.509  0.00  0.00    +0.000 A 
ATOM     18  C   UNL     1       2.571   4.690  19.590  0.00  0.00    +0.000 A 
ATOM     19  C   UNL     1       2.205   7.013  18.258  0.00  0.00    +0.000 C 
ATOM     20  C   UNL     1       1.679   8.425  18.198  0.00  0.00    +0.000 C 
ATOM     21  O   UNL     1       1.509   9.137  17.230  0.00  0.00    +0.000 OA
ENDROOT
BRANCH   1  22
ATOM     22  C   UNL     1       0.230   9.520  19.968  0.00  0.00    +0.000 C 
BRANCH  22  24
ATOM     23  N   UNL     1      -1.303  10.103  18.153  0.00  0.00    +0.000 N 
ATOM     24  C   UNL     1      -0.182  10.507  18.861  0.00  0.00    +0.000 C 
ATOM     25  O   UNL     1       0.424  11.559  18.648  0.00  0.00    +0.000 OA
ATOM     26  H   UNL     1      -1.809   9.272  18.435  0.00  0.00    +0.000 HD
BRANCH  23  27
ATOM     27  C   UNL     1      -1.883  10.888  17.083  0.00  0.00    +0.000 C 
BRANCH  27  29
ATOM     28  C   UNL     1      -2.937  10.102  14.933  0.00  0.00    +0.000 C 
ATOM     29  C   UNL     1      -2.739   9.983  16.253  0.00  0.00    +0.000 C 
ENDBRANCH  27  29
ENDBRANCH  23  27
ENDBRANCH  22  24
ENDBRANCH   1  22
TORSDOF 4
ENDMDL
MODEL 5
REMARK VINA RESULT:      -7.9      3.309      7.298
REMARK  Name = 
REMARK  4 active torsions:
REMARK  status: ('A' for Active; 'I' for Inactive)
REMARK    1  A    between atoms: C_2  and  C_3
REMARK    2  A    between atoms: C_3  and  N_4
REMARK    3  A    between atoms: C_5  and  C_7
REMARK    4  A    between atoms: C_7  and  N_8
REMARK                            x       y       z     vdW  Elec       q    Type
REMARK                         _______ _______ _______ _____ _____    ______ ____
ROOT
ATOM      1  N   UNL     1       1.965   8.537  19.093  0.00  0.00    +0.000 N 
ATOM      2  C   UNL     1       2.322   7.972  17.879  0.00  0.00    +0.000 C 
ATOM      3  O   UNL     1       2.474   8.521  16.803  0.00  0.00    +0.000 OA
ATOM      4  C   UNL     1       2.393   6.506  18.157  0.00  0.00    +0.000 C 
ATOM      5  C   UNL     1       3.199   5.551  17.286  0.00  0.00    +0.000 C 
ATOM      6  C   UNL     1       2.834   4.165  17.845  0.00  0.00    +0.000 A 
ATOM      7  C   UNL     1       2.440   3.081  17.067  0.00  0.00    +0.000 A 
ATOM      8  C   UNL     1       2.390   1.817  17.655  0.00  0.00    +0.000 A 
ATOM      9  C   UNL     1       2.745   1.644  19.000  0.00  0.00    +0.000 A 
ATOM     10  C   UNL     1       3.109   2.740  19.796  0.00  0.00    +0.000 A 
ATOM     11  C   UNL     1       3.122   4.014  19.235  0.00  0.00    +0.000 A 
ATOM     12  C   UNL     1       3.740   5.262  19.889  0.00  0.00    +0.000 C 
ATOM     13  C   UNL     1       5.007   5.516  19.000  0.00  0.00    +0.000 A 
ATOM     14  C   UNL     1       6.294   5.744  19.463  0.00  0.00    +0.000 A 
ATOM     15  C   UNL     1       7.246   6.204  18.551  0.00  0.00    +0.000 A 
ATOM     16  C   UNL     1       6.915   6.445  17.204  0.00  0.00    +0.000 A 
ATOM     17  C   UNL     1       5.626   6.218  16.729  0.00  0.00    +0.000 A 
ATOM     18  C   UNL     1       4.678   5.750  17.619  0.00  0.00    +0.000 A 
ATOM     19  C   UNL     1       3.001   6.582  19.568  0.00  0.00    +0.000 C 
ATOM     20  C   UNL     1       2.076   7.620  20.151  0.00  0.00    +0.000 C 
ATOM     21  O   UNL     1       1.639   7.706  21.280  0.00  0.00    +0.000 OA
ENDROOT
BRANCH   1  22
ATOM     22  C   UNL     1       1.746   9.962  19.236  0.00  0.00    +0.000 C 
BRANCH  22  24
ATOM     23  N   UNL     1       0.329  10.776  21.056  0.00  0.00    +0.000 N 
ATOM     24  C   UNL     1       0.333  10.265  19.768  0.00  0.00    +0.000 C 
ATOM     25  O   UNL     1      -0.684  10.083  19.096  0.00  0.00    +0.000 OA
ATOM     26  H   UNL     1       1.203  10.986  21.522  0.00  0.00    +0.000 HD
BRANCH  23  27
ATOM     27  C   UNL     1      -0.886  11.156  21.747  0.00  0.00    +0.000 C 
BRANCH  27  29
ATOM     28  C   UNL     1      -0.026   9.521  23.462  0.00  0.00    +0.000 C 
ATOM     29  C   UNL     1      -0.926  10.427  23.053  0.00  0.00    +0.000 C 
ENDBRANCH  27  29
ENDBRANCH  23  27
ENDBRANCH  22  24
ENDBRANCH   1  22
TORSDOF 4
ENDMDL
MODEL 6
REMARK VINA RESULT:      -7.7      3.355      7.508
REMARK  Name = 
REMARK  4 active torsions:
REMARK  status: ('A' for Active; 'I' for Inactive)
REMARK    1  A    between atoms: C_2  and  C_3
REMARK    2  A    between atoms: C_3  and  N_4
REMARK    3  A    between atoms: C_5  and  C_7
REMARK    4  A    between atoms: C_7  and  N_8
REMARK                            x       y       z     vdW  Elec       q    Type
REMARK                         _______ _______ _______ _____ _____    ______ ____
ROOT
ATOM      1  N   UNL     1       1.336   8.723  19.269  0.00  0.00    +0.000 N 
ATOM      2  C   UNL     1       1.846   7.841  20.209  0.00  0.00    +0.000 C 
ATOM      3  O   UNL     1       1.504   7.687  21.367  0.00  0.00    +0.000 OA
ATOM      4  C   UNL     1       2.986   7.173  19.514  0.00  0.00    +0.000 C 
ATOM      5  C   UNL     1       3.529   5.820  19.956  0.00  0.00    +0.000 C 
ATOM      6  C   UNL     1       4.776   5.632  19.074  0.00  0.00    +0.000 A 
ATOM      7  C   UNL     1       6.029   5.259  19.552  0.00  0.00    +0.000 A 
ATOM      8  C   UNL     1       7.006   4.868  18.636  0.00  0.00    +0.000 A 
ATOM      9  C   UNL     1       6.722   4.837  17.263  0.00  0.00    +0.000 A 
ATOM     10  C   UNL     1       5.472   5.246  16.776  0.00  0.00    +0.000 A 
ATOM     11  C   UNL     1       4.501   5.680  17.675  0.00  0.00    +0.000 A 
ATOM     12  C   UNL     1       3.018   5.906  17.332  0.00  0.00    +0.000 C 
ATOM     13  C   UNL     1       2.314   4.720  18.079  0.00  0.00    +0.000 A 
ATOM     14  C   UNL     1       1.376   3.858  17.533  0.00  0.00    +0.000 A 
ATOM     15  C   UNL     1       0.666   3.027  18.404  0.00  0.00    +0.000 A 
ATOM     16  C   UNL     1       0.880   3.068  19.795  0.00  0.00    +0.000 A 
ATOM     17  C   UNL     1       1.821   3.931  20.352  0.00  0.00    +0.000 A 
ATOM     18  C   UNL     1       2.539   4.748  19.500  0.00  0.00    +0.000 A 
ATOM     19  C   UNL     1       2.352   7.061  18.116  0.00  0.00    +0.000 C 
ATOM     20  C   UNL     1       1.853   8.479  17.986  0.00  0.00    +0.000 C 
ATOM     21  O   UNL     1       1.801   9.183  16.999  0.00  0.00    +0.000 OA
ENDROOT
BRANCH   1  22
ATOM     22  C   UNL     1       0.229   9.607  19.574  0.00  0.00    +0.000 C 
BRANCH  22  24
ATOM     23  N   UNL     1      -0.609  10.000  21.838  0.00  0.00    +0.000 N 
ATOM     24  C   UNL     1       0.411  10.284  20.944  0.00  0.00    +0.000 C 
ATOM     25  O   UNL     1       1.384  10.992  21.213  0.00  0.00    +0.000 OA
ATOM     26  H   UNL     1      -1.335   9.340  21.587  0.00  0.00    +0.000 HD
BRANCH  23  27
ATOM     27  C   UNL     1      -0.632  10.510  23.194  0.00  0.00    +0.000 C 
BRANCH  27  29
ATOM     28  C   UNL     1      -2.654  12.009  23.048  0.00  0.00    +0.000 C 
ATOM     29  C   UNL     1      -1.332  11.834  23.181  0.00  0.00    +0.000 C 
ENDBRANCH  27  29
ENDBRANCH  23  27
ENDBRANCH  22  24
ENDBRANCH   1  22
TORSDOF 4
ENDMDL
MODEL 7
REMARK VINA RESULT:      -7.7      7.674     10.017
REMARK  Name = 
REMARK  4 active torsions:
REMARK  status: ('A' for Active; 'I' for Inactive)
REMARK    1  A    between atoms: C_2  and  C_3
REMARK    2  A    between atoms: C_3  and  N_4
REMARK    3  A    between atoms: C_5  and  C_7
REMARK    4  A    between atoms: C_7  and  N_8
REMARK                            x       y       z     vdW  Elec       q    Type
REMARK                         _______ _______ _______ _____ _____    ______ ____
ROOT
ATOM      1  N   UNL     1       1.239  14.372  19.084  0.00  0.00    +0.000 N 
ATOM      2  C   UNL     1       1.412  13.012  18.883  0.00  0.00    +0.000 C 
ATOM      3  O   UNL     1       2.450  12.376  18.854  0.00  0.00    +0.000 OA
ATOM      4  C   UNL     1       0.037  12.497  18.614  0.00  0.00    +0.000 C 
ATOM      5  C   UNL     1      -0.339  11.034  18.814  0.00  0.00    +0.000 C 
ATOM      6  C   UNL     1      -1.770  10.953  18.255  0.00  0.00    +0.000 A 
ATOM      7  C   UNL     1      -2.210   9.989  17.354  0.00  0.00    +0.000 A 
ATOM      8  C   UNL     1      -3.580   9.861  17.125  0.00  0.00    +0.000 A 
ATOM      9  C   UNL     1      -4.493  10.680  17.804  0.00  0.00    +0.000 A 
ATOM     10  C   UNL     1      -4.051  11.676  18.686  0.00  0.00    +0.000 A 
ATOM     11  C   UNL     1      -2.684  11.845  18.892  0.00  0.00    +0.000 A 
ATOM     12  C   UNL     1      -2.057  12.700  20.007  0.00  0.00    +0.000 C 
ATOM     13  C   UNL     1      -1.453  11.615  20.965  0.00  0.00    +0.000 A 
ATOM     14  C   UNL     1      -1.620  11.561  22.340  0.00  0.00    +0.000 A 
ATOM     15  C   UNL     1      -0.808  10.684  23.064  0.00  0.00    +0.000 A 
ATOM     16  C   UNL     1       0.161   9.887  22.427  0.00  0.00    +0.000 A 
ATOM     17  C   UNL     1       0.335   9.933  21.046  0.00  0.00    +0.000 A 
ATOM     18  C   UNL     1      -0.471  10.787  20.317  0.00  0.00    +0.000 A 
ATOM     19  C   UNL     1      -0.727  13.383  19.613  0.00  0.00    +0.000 C 
ATOM     20  C   UNL     1      -0.115  14.711  19.242  0.00  0.00    +0.000 C 
ATOM     21  O   UNL     1      -0.632  15.808  19.208  0.00  0.00    +0.000 OA
ENDROOT
BRANCH   1  22
ATOM     22  C   UNL     1       2.361  15.255  19.333  0.00  0.00    +0.000 C 
BRANCH  22  24
ATOM     23  N   UNL     1       1.861  17.059  17.760  0.00  0.00    +0.000 N 
ATOM     24  C   UNL     1       2.750  16.042  18.069  0.00  0.00    +0.000 C 
ATOM     25  O   UNL     1       3.766  15.794  17.417  0.00  0.00    +0.000 OA
ATOM     26  H   UNL     1       1.093  17.271  18.385  0.00  0.00    +0.000 HD
BRANCH  23  27
ATOM     27  C   UNL     1       2.042  17.944  16.627  0.00  0.00    +0.000 C 
BRANCH  27  29
ATOM     28  C   UNL     1      -0.430  18.325  16.947  0.00  0.00    +0.000 C 
ATOM     29  C   UNL     1       0.734  18.618  16.349  0.00  0.00    +0.000 C 
ENDBRANCH  27  29
ENDBRANCH  23  27
ENDBRANCH  22  24
ENDBRANCH   1  22
TORSDOF 4
ENDMDL
MODEL 8
REMARK VINA RESULT:      -7.5      7.667     10.902
REMARK  Name = 
REMARK  4 active torsions:
REMARK  status: ('A' for Active; 'I' for Inactive)
REMARK    1  A    between atoms: C_2  and  C_3
REMARK    2  A    between atoms: C_3  and  N_4
REMARK    3  A    between atoms: C_5  and  C_7
REMARK    4  A    between atoms: C_7  and  N_8
REMARK                            x       y       z     vdW  Elec       q    Type
REMARK                         _______ _______ _______ _____ _____    ______ ____
ROOT
ATOM      1  N   UNL     1      -3.555  11.358  18.241  0.00  0.00    +0.000 N 
ATOM      2  C   UNL     1      -3.226  12.121  19.350  0.00  0.00    +0.000 C 
ATOM      3  O   UNL     1      -3.951  12.504  20.250  0.00  0.00    +0.000 OA
ATOM      4  C   UNL     1      -1.784  12.459  19.155  0.00  0.00    +0.000 C 
ATOM      5  C   UNL     1      -0.876  12.854  20.313  0.00  0.00    +0.000 C 
ATOM      6  C   UNL     1       0.431  13.268  19.615  0.00  0.00    +0.000 A 
ATOM      7  C   UNL     1       1.123  14.446  19.875  0.00  0.00    +0.000 A 
ATOM      8  C   UNL     1       2.419  14.586  19.378  0.00  0.00    +0.000 A 
ATOM      9  C   UNL     1       3.014  13.550  18.644  0.00  0.00    +0.000 A 
ATOM     10  C   UNL     1       2.306  12.376  18.350  0.00  0.00    +0.000 A 
ATOM     11  C   UNL     1       0.997  12.240  18.803  0.00  0.00    +0.000 A 
ATOM     12  C   UNL     1       0.189  10.930  18.792  0.00  0.00    +0.000 C 
ATOM     13  C   UNL     1       0.113  10.567  20.316  0.00  0.00    +0.000 A 
ATOM     14  C   UNL     1       0.399   9.331  20.873  0.00  0.00    +0.000 A 
ATOM     15  C   UNL     1       0.034   9.112  22.204  0.00  0.00    +0.000 A 
ATOM     16  C   UNL     1      -0.618  10.106  22.958  0.00  0.00    +0.000 A 
ATOM     17  C   UNL     1      -0.908  11.352  22.408  0.00  0.00    +0.000 A 
ATOM     18  C   UNL     1      -0.539  11.585  21.096  0.00  0.00    +0.000 A 
ATOM     19  C   UNL     1      -1.327  11.118  18.553  0.00  0.00    +0.000 C 
ATOM     20  C   UNL     1      -2.417  10.955  17.524  0.00  0.00    +0.000 C 
ATOM     21  O   UNL     1      -2.349  10.483  16.408  0.00  0.00    +0.000 OA
ENDROOT
BRANCH   1  22
ATOM     22  C   UNL     1      -4.901  10.863  18.029  0.00  0.00    +0.000 C 
BRANCH  22  24
ATOM     23  N   UNL     1      -6.828  12.181  18.758  0.00  0.00    +0.000 N 
ATOM     24  C   UNL     1      -5.887  12.013  17.754  0.00  0.00    +0.000 C 
ATOM     25  O   UNL     1      -5.822  12.719  16.746  0.00  0.00    +0.000 OA
ATOM     26  H   UNL     1      -6.773  11.627  19.604  0.00  0.00    +0.000 HD
BRANCH  23  27
ATOM     27  C   UNL     1      -7.839  13.218  18.722  0.00  0.00    +0.000 C 
BRANCH  27  29
ATOM     28  C   UNL     1      -7.561  13.315  21.226  0.00  0.00    +0.000 C 
ATOM     29  C   UNL     1      -7.854  13.899  20.055  0.00  0.00    +0.000 C 
ENDBRANCH  27  29
ENDBRANCH  23  27
ENDBRANCH  22  24
ENDBRANCH   1  22
TORSDOF 4
ENDMDL
MODEL 9
REMARK VINA RESULT:      -7.3      3.451      7.490
REMARK  Name = 
REMARK  4 active torsions:
REMARK  status: ('A' for Active; 'I' for Inactive)
REMARK    1  A    between atoms: C_2  and  C_3
REMARK    2  A    between atoms: C_3  and  N_4
REMARK    3  A    between atoms: C_5  and  C_7
REMARK    4  A    between atoms: C_7  and  N_8
REMARK                            x       y       z     vdW  Elec       q    Type
REMARK                         _______ _______ _______ _____ _____    ______ ____
ROOT
ATOM      1  N   UNL     1       1.665   8.965  19.372  0.00  0.00    +0.000 N 
ATOM      2  C   UNL     1       1.775   8.270  18.177  0.00  0.00    +0.000 C 
ATOM      3  O   UNL     1       1.832   8.713  17.045  0.00  0.00    +0.000 OA
ATOM      4  C   UNL     1       1.714   6.832  18.576  0.00  0.00    +0.000 C 
ATOM      5  C   UNL     1       2.270   5.719  17.696  0.00  0.00    +0.000 C 
ATOM      6  C   UNL     1       1.831   4.437  18.424  0.00  0.00    +0.000 A 
ATOM      7  C   UNL     1       1.205   3.357  17.809  0.00  0.00    +0.000 A 
ATOM      8  C   UNL     1       1.094   2.157  18.512  0.00  0.00    +0.000 A 
ATOM      9  C   UNL     1       1.619   2.041  19.807  0.00  0.00    +0.000 A 
ATOM     10  C   UNL     1       2.218   3.138  20.443  0.00  0.00    +0.000 A 
ATOM     11  C   UNL     1       2.298   4.355  19.770  0.00  0.00    +0.000 A 
ATOM     12  C   UNL     1       3.145   5.558  20.218  0.00  0.00    +0.000 C 
ATOM     13  C   UNL     1       4.291   5.582  19.147  0.00  0.00    +0.000 A 
ATOM     14  C   UNL     1       5.648   5.677  19.410  0.00  0.00    +0.000 A 
ATOM     15  C   UNL     1       6.506   5.942  18.339  0.00  0.00    +0.000 A 
ATOM     16  C   UNL     1       6.013   6.123  17.033  0.00  0.00    +0.000 A 
ATOM     17  C   UNL     1       4.651   6.028  16.758  0.00  0.00    +0.000 A 
ATOM     18  C   UNL     1       3.794   5.752  17.807  0.00  0.00    +0.000 A 
ATOM     19  C   UNL     1       2.525   6.934  19.880  0.00  0.00    +0.000 C 
ATOM     20  C   UNL     1       1.821   8.123  20.485  0.00  0.00    +0.000 C 
ATOM     21  O   UNL     1       1.566   8.348  21.649  0.00  0.00    +0.000 OA
ENDROOT
BRANCH   1  22
ATOM     22  C   UNL     1       1.636  10.413  19.411  0.00  0.00    +0.000 C 
BRANCH  22  24
ATOM     23  N   UNL     1       0.388  11.909  20.889  0.00  0.00    +0.000 N 
ATOM     24  C   UNL     1       0.277  10.936  19.909  0.00  0.00    +0.000 C 
ATOM     25  O   UNL     1      -0.797  10.533  19.458  0.00  0.00    +0.000 OA
ATOM     26  H   UNL     1       1.300  12.262  21.154  0.00  0.00    +0.000 HD
BRANCH  23  27
ATOM     27  C   UNL     1      -0.761  12.560  21.485  0.00  0.00    +0.000 C 
BRANCH  27  29
ATOM     28  C   UNL     1      -2.377  11.863  23.290  0.00  0.00    +0.000 C 
ATOM     29  C   UNL     1      -1.198  11.746  22.662  0.00  0.00    +0.000 C 
ENDBRANCH  27  29
ENDBRANCH  23  27
ENDBRANCH  22  24
ENDBRANCH   1  22
TORSDOF 4
ENDMDL
