MODEL 1
REMARK VINA RESULT:      -8.0      0.000      0.000
REMARK  Name = 
REMARK  10 active torsions:
REMARK  status: ('A' for Active; 'I' for Inactive)
REMARK    1  A    between atoms: C_1  and  O_2
REMARK    2  A    between atoms: O_2  and  C_3
REMARK    3  A    between atoms: C_6  and  N_7
REMARK    4  A    between atoms: N_7  and  C_8
REMARK    5  A    between atoms: N_7  and  S_9
REMARK    6  A    between atoms: S_9  and  C_12
REMARK    7  A    between atoms: C_21  and  C_23
REMARK    8  A    between atoms: C_23  and  C_24
REMARK    9  A    between atoms: C_24  and  C_25
REMARK   10  A    between atoms: C_25  and  O_27
REMARK                            x       y       z     vdW  Elec       q    Type
REMARK                         _______ _______ _______ _____ _____    ______ ____
ROOT
ATOM      1  C   UNL     1       1.628   8.343  19.708  0.00  0.00    +0.000 A 
ATOM      2  C   UNL     1       2.223   8.733  18.486  0.00  0.00    +0.000 A 
ATOM      3  C   UNL     1       3.082   7.854  17.779  0.00  0.00    +0.000 A 
ATOM      4  C   UNL     1       3.312   6.592  18.312  0.00  0.00    +0.000 A 
ATOM      5  C   UNL     1       2.622   6.204  19.479  0.00  0.00    +0.000 A 
ATOM      6  C   UNL     1       1.758   7.036  20.169  0.00  0.00    +0.000 A 
ATOM      7  C   UNL     1       3.240   4.959  20.034  0.00  0.00    +0.000 C 
ATOM      8  C   UNL     1       4.667   5.321  19.615  0.00  0.00    +0.000 C 
ATOM      9  N   UNL     1       4.522   5.803  18.207  0.00  0.00    +0.000 N 
ATOM     10  C   UNL     1       4.595   4.714  17.328  0.00  0.00    +0.000 C 
ATOM     11  O   UNL     1       4.682   3.547  17.743  0.00  0.00    +0.000 OA
ENDROOT
BRANCH   1  12
ATOM     12  S   UNL     1       0.701   9.501  20.718  0.00  0.00    +0.000 S 
ATOM     13  O   UNL     1       1.605   9.980  21.741  0.00  0.00    +0.000 OA
ATOM     14  O   UNL     1      -0.546   8.854  21.057  0.00  0.00    +0.000 OA
BRANCH  12  15
ATOM     15  N   UNL     1       0.386  10.820  19.677  0.00  0.00    +0.000 N 
ATOM     16  C   UNL     1       1.480  11.684  19.219  0.00  0.00    +0.000 C 
BRANCH  15  20
ATOM     17  C   UNL     1      -3.309  11.099  17.651  0.00  0.00    +0.000 A 
ATOM     18  C   UNL     1      -2.302  10.246  17.194  0.00  0.00    +0.000 A 
ATOM     19  C   UNL     1      -1.095  10.140  17.888  0.00  0.00    +0.000 A 
ATOM     20  C   UNL     1      -0.881  10.908  19.032  0.00  0.00    +0.000 A 
ATOM     21  C   UNL     1      -1.892  11.737  19.515  0.00  0.00    +0.000 A 
ATOM     22  C   UNL     1      -3.104  11.840  18.816  0.00  0.00    +0.000 A 
BRANCH  17  24
ATOM     23  C   UNL     1      -5.637  11.528  17.476  0.00  0.00    +0.000 C 
ATOM     24  O   UNL     1      -4.418  11.145  16.854  0.00  0.00    +0.000 OA
ENDBRANCH  17  24
ENDBRANCH  15  20
ENDBRANCH  12  15
ENDBRANCH   1  12
BRANCH  10  25
ATOM     25  C   UNL     1       4.701   4.939  15.841  0.00  0.00    +0.000 C 
BRANCH  25  26
ATOM     26  C   UNL     1       5.802   4.015  15.302  0.00  0.00    +0.000 C 
BRANCH  26  27
ATOM     27  C   UNL     1       7.159   4.644  15.485  0.00  0.00    +0.000 C 
ATOM     28  O   UNL     1       7.835   4.502  16.497  0.00  0.00    +0.000 OA
BRANCH  27  29
ATOM     29  O   UNL     1       7.554   5.425  14.455  0.00  0.00    +0.000 OA
ATOM     30  H   UNL     1       8.238   5.002  13.883  0.00  0.00    +0.000 HD
ENDBRANCH  27  29
ENDBRANCH  26  27
ENDBRANCH  25  26
ENDBRANCH  10  25
TORSDOF 8
ENDMDL
MODEL 2
REMARK VINA RESULT:      -7.9      3.160      8.366
REMARK  Name = 
REMARK  10 active torsions:
REMARK  status: ('A' for Active; 'I' for Inactive)
REMARK    1  A    between atoms: C_1  and  O_2
REMARK    2  A    between atoms: O_2  and  C_3
REMARK    3  A    between atoms: C_6  and  N_7
REMARK    4  A    between atoms: N_7  and  C_8
REMARK    5  A    between atoms: N_7  and  S_9
REMARK    6  A    between atoms: S_9  and  C_12
REMARK    7  A    between atoms: C_21  and  C_23
REMARK    8  A    between atoms: C_23  and  C_24
REMARK    9  A    between atoms: C_24  and  C_25
REMARK   10  A    between atoms: C_25  and  O_27
REMARK                            x       y       z     vdW  Elec       q    Type
REMARK                         _______ _______ _______ _____ _____    ______ ____
ROOT
ATOM      1  C   UNL     1       2.142   5.964  18.965  0.00  0.00    +0.000 A 
ATOM      2  C   UNL     1       2.158   6.826  17.845  0.00  0.00    +0.000 A 
ATOM      3  C   UNL     1       1.906   8.214  17.989  0.00  0.00    +0.000 A 
ATOM      4  C   UNL     1       1.657   8.707  19.263  0.00  0.00    +0.000 A 
ATOM      5  C   UNL     1       1.749   7.834  20.366  0.00  0.00    +0.000 A 
ATOM      6  C   UNL     1       2.022   6.483  20.252  0.00  0.00    +0.000 A 
ATOM      7  C   UNL     1       1.153   8.490  21.573  0.00  0.00    +0.000 C 
ATOM      8  C   UNL     1       0.070   9.241  20.794  0.00  0.00    +0.000 C 
ATOM      9  N   UNL     1       0.797   9.816  19.621  0.00  0.00    +0.000 N 
ATOM     10  C   UNL     1       1.338  11.061  19.969  0.00  0.00    +0.000 C 
ATOM     11  O   UNL     1       1.253  11.508  21.124  0.00  0.00    +0.000 OA
ENDROOT
BRANCH   1  12
ATOM     12  S   UNL     1       2.261   4.182  18.787  0.00  0.00    +0.000 S 
ATOM     13  O   UNL     1       1.998   3.884  17.396  0.00  0.00    +0.000 OA
ATOM     14  O   UNL     1       1.466   3.603  19.846  0.00  0.00    +0.000 OA
BRANCH  12  15
ATOM     15  N   UNL     1       3.911   3.834  19.066  0.00  0.00    +0.000 N 
ATOM     16  C   UNL     1       4.309   2.569  19.694  0.00  0.00    +0.000 C 
BRANCH  15  20
ATOM     17  C   UNL     1       6.836   6.308  17.288  0.00  0.00    +0.000 A 
ATOM     18  C   UNL     1       6.847   6.056  18.661  0.00  0.00    +0.000 A 
ATOM     19  C   UNL     1       5.893   5.213  19.234  0.00  0.00    +0.000 A 
ATOM     20  C   UNL     1       4.906   4.637  18.436  0.00  0.00    +0.000 A 
ATOM     21  C   UNL     1       4.905   4.855  17.059  0.00  0.00    +0.000 A 
ATOM     22  C   UNL     1       5.867   5.700  16.487  0.00  0.00    +0.000 A 
BRANCH  17  24
ATOM     23  C   UNL     1       7.881   8.422  17.560  0.00  0.00    +0.000 C 
ATOM     24  O   UNL     1       7.793   7.187  16.864  0.00  0.00    +0.000 OA
ENDBRANCH  17  24
ENDBRANCH  15  20
ENDBRANCH  12  15
ENDBRANCH   1  12
BRANCH  10  25
ATOM     25  C   UNL     1       1.930  11.959  18.911  0.00  0.00    +0.000 C 
BRANCH  25  26
ATOM     26  C   UNL     1       2.165  13.338  19.542  0.00  0.00    +0.000 C 
BRANCH  26  27
ATOM     27  C   UNL     1       3.086  14.165  18.683  0.00  0.00    +0.000 C 
ATOM     28  O   UNL     1       3.247  15.370  18.835  0.00  0.00    +0.000 OA
BRANCH  27  29
ATOM     29  O   UNL     1       3.688  13.474  17.689  0.00  0.00    +0.000 OA
ATOM     30  H   UNL     1       3.188  13.497  16.838  0.00  0.00    +0.000 HD
ENDBRANCH  27  29
ENDBRANCH  26  27
ENDBRANCH  25  26
ENDBRANCH  10  25
TORSDOF 8
ENDMDL
MODEL 3
REMARK VINA RESULT:      -7.9      2.932      8.374
REMARK  Name = 
REMARK  10 active torsions:
REMARK  status: ('A' for Active; 'I' for Inactive)
REMARK    1  A    between atoms: C_1  and  O_2
REMARK    2  A    between atoms: O_2  and  C_3
REMARK    3  A    between atoms: C_6  and  N_7
REMARK    4  A    between atoms: N_7  and  C_8
REMARK    5  A    between atoms: N_7  and  S_9
REMARK    6  A    between atoms: S_9  and  C_12
REMARK    7  A    between atoms: C_21  and  C_23
REMARK    8  A    between atoms: C_23  and  C_24
REMARK    9  A    between atoms: C_24  and  C_25
REMARK   10  A    between atoms: C_25  and  O_27
REMARK                            x       y       z     vdW  Elec       q    Type
REMARK                         _______ _______ _______ _____ _____    ______ ____
ROOT
ATOM      1  C   UNL     1       2.089   6.011  19.206  0.00  0.00    +0.000 A 
ATOM      2  C   UNL     1       2.277   6.691  17.981  0.00  0.00    +0.000 A 
ATOM      3  C   UNL     1       2.110   8.097  17.895  0.00  0.00    +0.000 A 
ATOM      4  C   UNL     1       1.770   8.789  19.049  0.00  0.00    +0.000 A 
ATOM      5  C   UNL     1       1.690   8.089  20.271  0.00  0.00    +0.000 A 
ATOM      6  C   UNL     1       1.878   6.723  20.383  0.00  0.00    +0.000 A 
ATOM      7  C   UNL     1       1.024   8.952  21.297  0.00  0.00    +0.000 C 
ATOM      8  C   UNL     1       0.079   9.634  20.305  0.00  0.00    +0.000 C 
ATOM      9  N   UNL     1       0.959   9.985  19.148  0.00  0.00    +0.000 N 
ATOM     10  C   UNL     1       1.548  11.237  19.369  0.00  0.00    +0.000 C 
ATOM     11  O   UNL     1       1.380  11.857  20.431  0.00  0.00    +0.000 OA
ENDROOT
BRANCH   1  12
ATOM     12  S   UNL     1       2.100   4.218  19.301  0.00  0.00    +0.000 S 
ATOM     13  O   UNL     1       1.604   3.730  18.032  0.00  0.00    +0.000 OA
ATOM     14  O   UNL     1       1.461   3.863  20.547  0.00  0.00    +0.000 OA
BRANCH  12  15
ATOM     15  N   UNL     1       3.757   3.804  19.379  0.00  0.00    +0.000 N 
ATOM     16  C   UNL     1       4.203   2.674  20.201  0.00  0.00    +0.000 C 
BRANCH  15  20
ATOM     17  C   UNL     1       6.457   5.363  16.531  0.00  0.00    +0.000 A 
ATOM     18  C   UNL     1       5.468   4.452  16.158  0.00  0.00    +0.000 A 
ATOM     19  C   UNL     1       4.562   3.965  17.102  0.00  0.00    +0.000 A 
ATOM     20  C   UNL     1       4.658   4.371  18.432  0.00  0.00    +0.000 A 
ATOM     21  C   UNL     1       5.621   5.306  18.809  0.00  0.00    +0.000 A 
ATOM     22  C   UNL     1       6.529   5.794  17.857  0.00  0.00    +0.000 A 
BRANCH  17  24
ATOM     23  C   UNL     1       7.178   5.018  14.295  0.00  0.00    +0.000 C 
ATOM     24  O   UNL     1       7.307   5.723  15.523  0.00  0.00    +0.000 OA
ENDBRANCH  17  24
ENDBRANCH  15  20
ENDBRANCH  12  15
ENDBRANCH   1  12
BRANCH  10  25
ATOM     25  C   UNL     1       2.304  11.931  18.264  0.00  0.00    +0.000 C 
BRANCH  25  26
ATOM     26  C   UNL     1       1.987  13.430  18.345  0.00  0.00    +0.000 C 
BRANCH  26  27
ATOM     27  C   UNL     1       3.241  14.225  18.602  0.00  0.00    +0.000 C 
ATOM     28  O   UNL     1       3.516  14.715  19.691  0.00  0.00    +0.000 OA
BRANCH  27  29
ATOM     29  O   UNL     1       4.021  14.401  17.513  0.00  0.00    +0.000 OA
ATOM     30  H   UNL     1       4.890  13.935  17.574  0.00  0.00    +0.000 HD
ENDBRANCH  27  29
ENDBRANCH  26  27
ENDBRANCH  25  26
ENDBRANCH  10  25
TORSDOF 8
ENDMDL
MODEL 4
REMARK VINA RESULT:      -7.7      2.695      8.610
REMARK  Name = 
REMARK  10 active torsions:
REMARK  status: ('A' for Active; 'I' for Inactive)
REMARK    1  A    between atoms: C_1  and  O_2
REMARK    2  A    between atoms: O_2  and  C_3
REMARK    3  A    between atoms: C_6  and  N_7
REMARK    4  A    between atoms: N_7  and  C_8
REMARK    5  A    between atoms: N_7  and  S_9
REMARK    6  A    between atoms: S_9  and  C_12
REMARK    7  A    between atoms: C_21  and  C_23
REMARK    8  A    between atoms: C_23  and  C_24
REMARK    9  A    between atoms: C_24  and  C_25
REMARK   10  A    between atoms: C_25  and  O_27
REMARK                            x       y       z     vdW  Elec       q    Type
REMARK                         _______ _______ _______ _____ _____    ______ ____
ROOT
ATOM      1  C   UNL     1       2.240   6.175  19.332  0.00  0.00    +0.000 A 
ATOM      2  C   UNL     1       2.197   6.981  18.171  0.00  0.00    +0.000 A 
ATOM      3  C   UNL     1       1.833   8.349  18.247  0.00  0.00    +0.000 A 
ATOM      4  C   UNL     1       1.535   8.880  19.495  0.00  0.00    +0.000 A 
ATOM      5  C   UNL     1       1.687   8.071  20.639  0.00  0.00    +0.000 A 
ATOM      6  C   UNL     1       2.068   6.742  20.591  0.00  0.00    +0.000 A 
ATOM      7  C   UNL     1       1.029   8.733  21.810  0.00  0.00    +0.000 C 
ATOM      8  C   UNL     1      -0.104   9.357  20.991  0.00  0.00    +0.000 C 
ATOM      9  N   UNL     1       0.586   9.932  19.795  0.00  0.00    +0.000 N 
ATOM     10  C   UNL     1       1.022  11.232  20.086  0.00  0.00    +0.000 C 
ATOM     11  O   UNL     1       0.892  11.725  21.218  0.00  0.00    +0.000 OA
ENDROOT
BRANCH   1  12
ATOM     12  S   UNL     1       2.503   4.401  19.239  0.00  0.00    +0.000 S 
ATOM     13  O   UNL     1       1.266   3.821  18.763  0.00  0.00    +0.000 OA
ATOM     14  O   UNL     1       3.089   4.000  20.498  0.00  0.00    +0.000 OA
BRANCH  12  15
ATOM     15  N   UNL     1       3.656   4.204  17.992  0.00  0.00    +0.000 N 
ATOM     16  C   UNL     1       3.312   3.468  16.771  0.00  0.00    +0.000 C 
BRANCH  15  20
ATOM     17  C   UNL     1       7.145   6.576  18.183  0.00  0.00    +0.000 A 
ATOM     18  C   UNL     1       6.829   5.680  19.206  0.00  0.00    +0.000 A 
ATOM     19  C   UNL     1       5.688   4.880  19.119  0.00  0.00    +0.000 A 
ATOM     20  C   UNL     1       4.844   4.991  18.016  0.00  0.00    +0.000 A 
ATOM     21  C   UNL     1       5.167   5.858  16.973  0.00  0.00    +0.000 A 
ATOM     22  C   UNL     1       6.315   6.659  17.063  0.00  0.00    +0.000 A 
BRANCH  17  24
ATOM     23  C   UNL     1       8.210   8.690  17.999  0.00  0.00    +0.000 C 
ATOM     24  O   UNL     1       8.260   7.332  18.414  0.00  0.00    +0.000 OA
ENDBRANCH  17  24
ENDBRANCH  15  20
ENDBRANCH  12  15
ENDBRANCH   1  12
BRANCH  10  25
ATOM     25  C   UNL     1       1.549  12.123  18.989  0.00  0.00    +0.000 C 
BRANCH  25  26
ATOM     26  C   UNL     1       0.710  13.409  18.982  0.00  0.00    +0.000 C 
BRANCH  26  27
ATOM     27  C   UNL     1      -0.727  13.103  18.648  0.00  0.00    +0.000 C 
ATOM     28  O   UNL     1      -1.626  13.103  19.481  0.00  0.00    +0.000 OA
BRANCH  27  29
ATOM     29  O   UNL     1      -0.939  12.775  17.355  0.00  0.00    +0.000 OA
ATOM     30  H   UNL     1      -1.560  13.387  16.892  0.00  0.00    +0.000 HD
ENDBRANCH  27  29
ENDBRANCH  26  27
ENDBRANCH  25  26
ENDBRANCH  10  25
TORSDOF 8
ENDMDL
MODEL 5
REMARK VINA RESULT:      -7.7      2.609      8.764
REMARK  Name = 
REMARK  10 active torsions:
REMARK  status: ('A' for Active; 'I' for Inactive)
REMARK    1  A    between atoms: C_1  and  O_2
REMARK    2  A    between atoms: O_2  and  C_3
REMARK    3  A    between atoms: C_6  and  N_7
REMARK    4  A    between atoms: N_7  and  C_8
REMARK    5  A    between atoms: N_7  and  S_9
REMARK    6  A    between atoms: S_9  and  C_12
REMARK    7  A    between atoms: C_21  and  C_23
REMARK    8  A    between atoms: C_23  and  C_24
REMARK    9  A    between atoms: C_24  and  C_25
REMARK   10  A    between atoms: C_25  and  O_27
REMARK                            x       y       z     vdW  Elec       q    Type
REMARK                         _______ _______ _______ _____ _____    ______ ____
ROOT
ATOM      1  C   UNL     1       2.202   6.657  19.100  0.00  0.00    +0.000 A 
ATOM      2  C   UNL     1       2.290   7.646  18.093  0.00  0.00    +0.000 A 
ATOM      3  C   UNL     1       1.919   8.989  18.356  0.00  0.00    +0.000 A 
ATOM      4  C   UNL     1       1.481   9.310  19.634  0.00  0.00    +0.000 A 
ATOM      5  C   UNL     1       1.503   8.319  20.637  0.00  0.00    +0.000 A 
ATOM      6  C   UNL     1       1.888   7.010  20.409  0.00  0.00    +0.000 A 
ATOM      7  C   UNL     1       0.717   8.789  21.821  0.00  0.00    +0.000 C 
ATOM      8  C   UNL     1      -0.316   9.561  20.997  0.00  0.00    +0.000 C 
ATOM      9  N   UNL     1       0.503  10.315  19.999  0.00  0.00    +0.000 N 
ATOM     10  C   UNL     1       0.903  11.540  20.550  0.00  0.00    +0.000 C 
ATOM     11  O   UNL     1       0.646  11.839  21.727  0.00  0.00    +0.000 OA
ENDROOT
BRANCH   1  12
ATOM     12  S   UNL     1       2.475   4.919  18.742  0.00  0.00    +0.000 S 
ATOM     13  O   UNL     1       1.888   4.664  17.444  0.00  0.00    +0.000 OA
ATOM     14  O   UNL     1       2.062   4.182  19.915  0.00  0.00    +0.000 OA
BRANCH  12  15
ATOM     15  N   UNL     1       4.169   4.782  18.556  0.00  0.00    +0.000 N 
ATOM     16  C   UNL     1       5.005   4.334  19.674  0.00  0.00    +0.000 C 
BRANCH  15  20
ATOM     17  C   UNL     1       5.928   4.840  14.717  0.00  0.00    +0.000 A 
ATOM     18  C   UNL     1       5.724   3.637  15.395  0.00  0.00    +0.000 A 
ATOM     19  C   UNL     1       5.115   3.626  16.651  0.00  0.00    +0.000 A 
ATOM     20  C   UNL     1       4.729   4.826  17.246  0.00  0.00    +0.000 A 
ATOM     21  C   UNL     1       4.898   6.030  16.564  0.00  0.00    +0.000 A 
ATOM     22  C   UNL     1       5.508   6.036  15.301  0.00  0.00    +0.000 A 
BRANCH  17  24
ATOM     23  C   UNL     1       6.281   3.558  12.750  0.00  0.00    +0.000 C 
ATOM     24  O   UNL     1       6.577   4.714  13.521  0.00  0.00    +0.000 OA
ENDBRANCH  17  24
ENDBRANCH  15  20
ENDBRANCH  12  15
ENDBRANCH   1  12
BRANCH  10  25
ATOM     25  C   UNL     1       1.551  12.591  19.684  0.00  0.00    +0.000 C 
BRANCH  25  26
ATOM     26  C   UNL     1       0.694  12.753  18.420  0.00  0.00    +0.000 C 
BRANCH  26  27
ATOM     27  C   UNL     1      -0.420  13.740  18.656  0.00  0.00    +0.000 C 
ATOM     28  O   UNL     1      -0.244  14.951  18.716  0.00  0.00    +0.000 OA
BRANCH  27  29
ATOM     29  O   UNL     1      -1.632  13.174  18.850  0.00  0.00    +0.000 OA
ATOM     30  H   UNL     1      -2.368  13.831  18.893  0.00  0.00    +0.000 HD
ENDBRANCH  27  29
ENDBRANCH  26  27
ENDBRANCH  25  26
ENDBRANCH  10  25
TORSDOF 8
ENDMDL
MODEL 6
REMARK VINA RESULT:      -7.7      2.426      8.935
REMARK  Name = 
REMARK  10 active torsions:
REMARK  status: ('A' for Active; 'I' for Inactive)
REMARK    1  A    between atoms: C_1  and  O_2
REMARK    2  A    between atoms: O_2  and  C_3
REMARK    3  A    between atoms: C_6  and  N_7
REMARK    4  A    between atoms: N_7  and  C_8
REMARK    5  A    between atoms: N_7  and  S_9
REMARK    6  A    between atoms: S_9  and  C_12
REMARK    7  A    between atoms: C_21  and  C_23
REMARK    8  A    between atoms: C_23  and  C_24
REMARK    9  A    between atoms: C_24  and  C_25
REMARK   10  A    between atoms: C_25  and  O_27
REMARK                            x       y       z     vdW  Elec       q    Type
REMARK                         _______ _______ _______ _____ _____    ______ ____
ROOT
ATOM      1  C   UNL     1       2.380   6.731  19.708  0.00  0.00    +0.000 A 
ATOM      2  C   UNL     1       1.770   7.167  20.906  0.00  0.00    +0.000 A 
ATOM      3  C   UNL     1       1.112   8.421  20.976  0.00  0.00    +0.000 A 
ATOM      4  C   UNL     1       1.071   9.204  19.829  0.00  0.00    +0.000 A 
ATOM      5  C   UNL     1       1.603   8.692  18.629  0.00  0.00    +0.000 A 
ATOM      6  C   UNL     1       2.224   7.459  18.532  0.00  0.00    +0.000 A 
ATOM      7  C   UNL     1       1.728   9.797  17.626  0.00  0.00    +0.000 C 
ATOM      8  C   UNL     1       2.064  10.875  18.659  0.00  0.00    +0.000 C 
ATOM      9  N   UNL     1       1.073  10.651  19.756  0.00  0.00    +0.000 N 
ATOM     10  C   UNL     1      -0.104  11.358  19.476  0.00  0.00    +0.000 C 
ATOM     11  O   UNL     1      -0.251  11.983  18.413  0.00  0.00    +0.000 OA
ENDROOT
BRANCH   1  12
ATOM     12  S   UNL     1       3.386   5.245  19.648  0.00  0.00    +0.000 S 
ATOM     13  O   UNL     1       2.786   4.298  20.563  0.00  0.00    +0.000 OA
ATOM     14  O   UNL     1       4.761   5.666  19.792  0.00  0.00    +0.000 OA
BRANCH  12  15
ATOM     15  N   UNL     1       3.146   4.631  18.070  0.00  0.00    +0.000 N 
ATOM     16  C   UNL     1       1.802   4.267  17.611  0.00  0.00    +0.000 C 
BRANCH  15  20
ATOM     17  C   UNL     1       6.185   5.029  15.165  0.00  0.00    +0.000 A 
ATOM     18  C   UNL     1       5.492   6.146  15.637  0.00  0.00    +0.000 A 
ATOM     19  C   UNL     1       4.509   6.006  16.618  0.00  0.00    +0.000 A 
ATOM     20  C   UNL     1       4.198   4.742  17.116  0.00  0.00    +0.000 A 
ATOM     21  C   UNL     1       4.907   3.625  16.676  0.00  0.00    +0.000 A 
ATOM     22  C   UNL     1       5.895   3.769  15.691  0.00  0.00    +0.000 A 
BRANCH  17  24
ATOM     23  C   UNL     1       6.983   4.518  12.987  0.00  0.00    +0.000 C 
ATOM     24  O   UNL     1       7.085   5.297  14.171  0.00  0.00    +0.000 OA
ENDBRANCH  17  24
ENDBRANCH  15  20
ENDBRANCH  12  15
ENDBRANCH   1  12
BRANCH  10  25
ATOM     25  C   UNL     1      -1.183  11.487  20.522  0.00  0.00    +0.000 C 
BRANCH  25  26
ATOM     26  C   UNL     1      -0.528  11.992  21.815  0.00  0.00    +0.000 C 
BRANCH  26  27
ATOM     27  C   UNL     1      -0.989  11.177  22.996  0.00  0.00    +0.000 C 
ATOM     28  O   UNL     1      -0.291  10.333  23.544  0.00  0.00    +0.000 OA
BRANCH  27  29
ATOM     29  O   UNL     1      -2.264  11.419  23.374  0.00  0.00    +0.000 OA
ATOM     30  H   UNL     1      -2.858  10.638  23.268  0.00  0.00    +0.000 HD
ENDBRANCH  27  29
ENDBRANCH  26  27
ENDBRANCH  25  26
ENDBRANCH  10  25
TORSDOF 8
ENDMDL
MODEL 7
REMARK VINA RESULT:      -7.7      2.897      8.671
REMARK  Name = 
REMARK  10 active torsions:
REMARK  status: ('A' for Active; 'I' for Inactive)
REMARK    1  A    between atoms: C_1  and  O_2
REMARK    2  A    between atoms: O_2  and  C_3
REMARK    3  A    between atoms: C_6  and  N_7
REMARK    4  A    between atoms: N_7  and  C_8
REMARK    5  A    between atoms: N_7  and  S_9
REMARK    6  A    between atoms: S_9  and  C_12
REMARK    7  A    between atoms: C_21  and  C_23
REMARK    8  A    between atoms: C_23  and  C_24
REMARK    9  A    between atoms: C_24  and  C_25
REMARK   10  A    between atoms: C_25  and  O_27
REMARK                            x       y       z     vdW  Elec       q    Type
REMARK                         _______ _______ _______ _____ _____    ______ ____
ROOT
ATOM      1  C   UNL     1       2.109   6.006  19.013  0.00  0.00    +0.000 A 
ATOM      2  C   UNL     1       2.201   6.857  17.889  0.00  0.00    +0.000 A 
ATOM      3  C   UNL     1       1.960   8.250  18.006  0.00  0.00    +0.000 A 
ATOM      4  C   UNL     1       1.646   8.757  19.260  0.00  0.00    +0.000 A 
ATOM      5  C   UNL     1       1.663   7.893  20.374  0.00  0.00    +0.000 A 
ATOM      6  C   UNL     1       1.923   6.537  20.286  0.00  0.00    +0.000 A 
ATOM      7  C   UNL     1       1.008   8.568  21.539  0.00  0.00    +0.000 C 
ATOM      8  C   UNL     1      -0.018   9.326  20.694  0.00  0.00    +0.000 C 
ATOM      9  N   UNL     1       0.783   9.881  19.560  0.00  0.00    +0.000 N 
ATOM     10  C   UNL     1       1.320  11.122  19.928  0.00  0.00    +0.000 C 
ATOM     11  O   UNL     1       1.177  11.580  21.073  0.00  0.00    +0.000 OA
ENDROOT
BRANCH   1  12
ATOM     12  S   UNL     1       2.212   4.220  18.856  0.00  0.00    +0.000 S 
ATOM     13  O   UNL     1       1.796   3.895  17.509  0.00  0.00    +0.000 OA
ATOM     14  O   UNL     1       1.543   3.661  20.008  0.00  0.00    +0.000 OA
BRANCH  12  15
ATOM     15  N   UNL     1       3.885   3.879  18.954  0.00  0.00    +0.000 N 
ATOM     16  C   UNL     1       4.376   2.815  19.835  0.00  0.00    +0.000 C 
BRANCH  15  20
ATOM     17  C   UNL     1       6.530   5.390  16.029  0.00  0.00    +0.000 A 
ATOM     18  C   UNL     1       5.640   4.357  15.728  0.00  0.00    +0.000 A 
ATOM     19  C   UNL     1       4.751   3.885  16.694  0.00  0.00    +0.000 A 
ATOM     20  C   UNL     1       4.763   4.430  17.977  0.00  0.00    +0.000 A 
ATOM     21  C   UNL     1       5.623   5.484  18.278  0.00  0.00    +0.000 A 
ATOM     22  C   UNL     1       6.515   5.958  17.305  0.00  0.00    +0.000 A 
BRANCH  17  24
ATOM     23  C   UNL     1       7.334   4.910  13.847  0.00  0.00    +0.000 C 
ATOM     24  O   UNL     1       7.378   5.725  15.011  0.00  0.00    +0.000 OA
ENDBRANCH  17  24
ENDBRANCH  15  20
ENDBRANCH  12  15
ENDBRANCH   1  12
BRANCH  10  25
ATOM     25  C   UNL     1       1.984  12.002  18.899  0.00  0.00    +0.000 C 
BRANCH  25  26
ATOM     26  C   UNL     1       2.072  13.421  19.478  0.00  0.00    +0.000 C 
BRANCH  26  27
ATOM     27  C   UNL     1       1.035  14.315  18.851  0.00  0.00    +0.000 C 
ATOM     28  O   UNL     1      -0.032  13.903  18.411  0.00  0.00    +0.000 OA
BRANCH  27  29
ATOM     29  O   UNL     1       1.399  15.614  18.765  0.00  0.00    +0.000 OA
ATOM     30  H   UNL     1       1.997  15.803  18.003  0.00  0.00    +0.000 HD
ENDBRANCH  27  29
ENDBRANCH  26  27
ENDBRANCH  25  26
ENDBRANCH  10  25
TORSDOF 8
ENDMDL
MODEL 8
REMARK VINA RESULT:      -7.6      2.803      8.645
REMARK  Name = 
REMARK  10 active torsions:
REMARK  status: ('A' for Active; 'I' for Inactive)
REMARK    1  A    between atoms: C_1  and  O_2
REMARK    2  A    between atoms: O_2  and  C_3
REMARK    3  A    between atoms: C_6  and  N_7
REMARK    4  A    between atoms: N_7  and  C_8
REMARK    5  A    between atoms: N_7  and  S_9
REMARK    6  A    between atoms: S_9  and  C_12
REMARK    7  A    between atoms: C_21  and  C_23
REMARK    8  A    between atoms: C_23  and  C_24
REMARK    9  A    between atoms: C_24  and  C_25
REMARK   10  A    between atoms: C_25  and  O_27
REMARK                            x       y       z     vdW  Elec       q    Type
REMARK                         _______ _______ _______ _____ _____    ______ ____
ROOT
ATOM      1  C   UNL     1       2.362   6.985  18.908  0.00  0.00    +0.000 A 
ATOM      2  C   UNL     1       2.289   7.854  17.795  0.00  0.00    +0.000 A 
ATOM      3  C   UNL     1       1.744   9.157  17.921  0.00  0.00    +0.000 A 
ATOM      4  C   UNL     1       1.296   9.562  19.172  0.00  0.00    +0.000 A 
ATOM      5  C   UNL     1       1.478   8.705  20.277  0.00  0.00    +0.000 A 
ATOM      6  C   UNL     1       2.034   7.442  20.181  0.00  0.00    +0.000 A 
ATOM      7  C   UNL     1       0.664   9.200  21.431  0.00  0.00    +0.000 C 
ATOM      8  C   UNL     1      -0.485   9.726  20.567  0.00  0.00    +0.000 C 
ATOM      9  N   UNL     1       0.199  10.463  19.460  0.00  0.00    +0.000 N 
ATOM     10  C   UNL     1       0.440  11.785  19.856  0.00  0.00    +0.000 C 
ATOM     11  O   UNL     1       0.172  12.182  21.001  0.00  0.00    +0.000 OA
ENDROOT
BRANCH   1  12
ATOM     12  S   UNL     1       2.862   5.270  18.734  0.00  0.00    +0.000 S 
ATOM     13  O   UNL     1       2.225   4.769  17.536  0.00  0.00    +0.000 OA
ATOM     14  O   UNL     1       2.651   4.642  20.019  0.00  0.00    +0.000 OA
BRANCH  12  15
ATOM     15  N   UNL     1       4.539   5.344  18.411  0.00  0.00    +0.000 N 
ATOM     16  C   UNL     1       5.509   5.342  19.512  0.00  0.00    +0.000 C 
BRANCH  15  20
ATOM     17  C   UNL     1       6.009   4.623  14.519  0.00  0.00    +0.000 A 
ATOM     18  C   UNL     1       5.899   3.586  15.448  0.00  0.00    +0.000 A 
ATOM     19  C   UNL     1       5.384   3.830  16.723  0.00  0.00    +0.000 A 
ATOM     20  C   UNL     1       5.000   5.121  17.081  0.00  0.00    +0.000 A 
ATOM     21  C   UNL     1       5.075   6.156  16.151  0.00  0.00    +0.000 A 
ATOM     22  C   UNL     1       5.590   5.907  14.871  0.00  0.00    +0.000 A 
BRANCH  17  24
ATOM     23  C   UNL     1       5.823   3.371  12.510  0.00  0.00    +0.000 C 
ATOM     24  O   UNL     1       6.573   4.259  13.327  0.00  0.00    +0.000 OA
ENDBRANCH  17  24
ENDBRANCH  15  20
ENDBRANCH  12  15
ENDBRANCH   1  12
BRANCH  10  25
ATOM     25  C   UNL     1       0.916  12.807  18.853  0.00  0.00    +0.000 C 
BRANCH  25  26
ATOM     26  C   UNL     1       2.427  12.993  19.052  0.00  0.00    +0.000 C 
BRANCH  26  27
ATOM     27  C   UNL     1       2.699  14.048  20.093  0.00  0.00    +0.000 C 
ATOM     28  O   UNL     1       2.730  15.247  19.844  0.00  0.00    +0.000 OA
BRANCH  27  29
ATOM     29  O   UNL     1       2.960  13.558  21.326  0.00  0.00    +0.000 OA
ATOM     30  H   UNL     1       3.686  12.889  21.336  0.00  0.00    +0.000 HD
ENDBRANCH  27  29
ENDBRANCH  26  27
ENDBRANCH  25  26
ENDBRANCH  10  25
TORSDOF 8
ENDMDL
MODEL 9
REMARK VINA RESULT:      -7.6      1.850      3.444
REMARK  Name = 
REMARK  10 active torsions:
REMARK  status: ('A' for Active; 'I' for Inactive)
REMARK    1  A    between atoms: C_1  and  O_2
REMARK    2  A    between atoms: O_2  and  C_3
REMARK    3  A    between atoms: C_6  and  N_7
REMARK    4  A    between atoms: N_7  and  C_8
REMARK    5  A    between atoms: N_7  and  S_9
REMARK    6  A    between atoms: S_9  and  C_12
REMARK    7  A    between atoms: C_21  and  C_23
REMARK    8  A    between atoms: C_23  and  C_24
REMARK    9  A    between atoms: C_24  and  C_25
REMARK   10  A    between atoms: C_25  and  O_27
REMARK                            x       y       z     vdW  Elec       q    Type
REMARK                         _______ _______ _______ _____ _____    ______ ____
ROOT
ATOM      1  C   UNL     1       1.615   8.009  19.891  0.00  0.00    +0.000 A 
ATOM      2  C   UNL     1       2.257   8.398  18.694  0.00  0.00    +0.000 A 
ATOM      3  C   UNL     1       3.088   7.494  17.985  0.00  0.00    +0.000 A 
ATOM      4  C   UNL     1       3.242   6.210  18.491  0.00  0.00    +0.000 A 
ATOM      5  C   UNL     1       2.505   5.829  19.632  0.00  0.00    +0.000 A 
ATOM      6  C   UNL     1       1.668   6.687  20.322  0.00  0.00    +0.000 A 
ATOM      7  C   UNL     1       3.048   4.542  20.169  0.00  0.00    +0.000 C 
ATOM      8  C   UNL     1       4.500   4.841  19.792  0.00  0.00    +0.000 C 
ATOM      9  N   UNL     1       4.413   5.364  18.394  0.00  0.00    +0.000 N 
ATOM     10  C   UNL     1       4.453   4.293  17.490  0.00  0.00    +0.000 C 
ATOM     11  O   UNL     1       4.472   3.114  17.877  0.00  0.00    +0.000 OA
ENDROOT
BRANCH   1  12
ATOM     12  S   UNL     1       0.722   9.189  20.910  0.00  0.00    +0.000 S 
ATOM     13  O   UNL     1       1.692   9.790  21.798  0.00  0.00    +0.000 OA
ATOM     14  O   UNL     1      -0.443   8.502  21.418  0.00  0.00    +0.000 OA
BRANCH  12  15
ATOM     15  N   UNL     1       0.227  10.407  19.817  0.00  0.00    +0.000 N 
ATOM     16  C   UNL     1      -1.092  10.340  19.177  0.00  0.00    +0.000 C 
BRANCH  15  20
ATOM     17  C   UNL     1       2.537  13.934  19.585  0.00  0.00    +0.000 A 
ATOM     18  C   UNL     1       2.572  12.984  18.563  0.00  0.00    +0.000 A 
ATOM     19  C   UNL     1       1.783  11.835  18.636  0.00  0.00    +0.000 A 
ATOM     20  C   UNL     1       0.970  11.621  19.748  0.00  0.00    +0.000 A 
ATOM     21  C   UNL     1       0.902  12.578  20.758  0.00  0.00    +0.000 A 
ATOM     22  C   UNL     1       1.695  13.732  20.681  0.00  0.00    +0.000 A 
BRANCH  17  24
ATOM     23  C   UNL     1       3.792  15.275  18.080  0.00  0.00    +0.000 C 
ATOM     24  O   UNL     1       3.393  14.986  19.413  0.00  0.00    +0.000 OA
ENDBRANCH  17  24
ENDBRANCH  15  20
ENDBRANCH  12  15
ENDBRANCH   1  12
BRANCH  10  25
ATOM     25  C   UNL     1       4.606   4.549  16.011  0.00  0.00    +0.000 C 
BRANCH  25  26
ATOM     26  C   UNL     1       5.944   3.943  15.564  0.00  0.00    +0.000 C 
BRANCH  26  27
ATOM     27  C   UNL     1       7.097   4.766  16.078  0.00  0.00    +0.000 C 
ATOM     28  O   UNL     1       7.328   5.909  15.701  0.00  0.00    +0.000 OA
BRANCH  27  29
ATOM     29  O   UNL     1       7.893   4.120  16.958  0.00  0.00    +0.000 OA
ATOM     30  H   UNL     1       8.689   4.641  17.222  0.00  0.00    +0.000 HD
ENDBRANCH  27  29
ENDBRANCH  26  27
ENDBRANCH  25  26
ENDBRANCH  10  25
TORSDOF 8
ENDMDL
