MODEL 1
REMARK VINA RESULT:      -8.5      0.000      0.000
REMARK  Name = 
REMARK  10 active torsions:
REMARK  status: ('A' for Active; 'I' for Inactive)
REMARK    1  A    between atoms: C_2  and  C_14
REMARK    2  A    between atoms: N_3  and  C_4
REMARK    3  A    between atoms: C_4  and  C_5
REMARK    4  A    between atoms: C_6  and  C_7
REMARK    5  A    between atoms: C_7  and  N_8
REMARK    6  A    between atoms: C_19  and  C_20
REMARK    7  A    between atoms: N_22  and  C_23
REMARK    8  A    between atoms: C_23  and  C_24
REMARK    9  A    between atoms: C_25  and  C_26
REMARK   10  A    between atoms: C_26  and  N_27
REMARK                            x       y       z     vdW  Elec       q    Type
REMARK                         _______ _______ _______ _____ _____    ______ ____
ROOT
ATOM      1  C   UNL     1       4.173   4.332  18.271  0.00  0.00    +0.000 A 
ATOM      2  C   UNL     1       3.907   3.023  18.720  0.00  0.00    +0.000 A 
ATOM      3  C   UNL     1       2.598   2.609  18.975  0.00  0.00    +0.000 A 
ATOM      4  C   UNL     1       1.541   3.491  18.778  0.00  0.00    +0.000 A 
ATOM      5  C   UNL     1       1.796   4.799  18.359  0.00  0.00    +0.000 A 
ATOM      6  C   UNL     1       3.111   5.243  18.121  0.00  0.00    +0.000 A 
ENDROOT
BRANCH   1   8
ATOM      7  O   UNL     1       5.970   4.187  16.757  0.00  0.00    +0.000 OA
ATOM      8  C   UNL     1       5.548   4.653  17.807  0.00  0.00    +0.000 C 
ATOM      9  N   UNL     1       6.315   5.471  18.604  0.00  0.00    +0.000 N 
ATOM     10  H   UNL     1       5.927   5.954  19.403  0.00  0.00    +0.000 HD
BRANCH   9  11
ATOM     11  C   UNL     1       7.664   5.782  18.198  0.00  0.00    +0.000 C 
BRANCH  11  12
ATOM     12  C   UNL     1       7.859   7.287  18.132  0.00  0.00    +0.000 C 
ATOM     13  C   UNL     1       8.026   8.579  18.075  0.00  0.00    +0.000 C 
BRANCH  13  14
ATOM     14  C   UNL     1       8.222  10.085  18.008  0.00  0.00    +0.000 C 
BRANCH  14  15
ATOM     15  N   UNL     1       9.438  10.466  18.743  0.00  0.00    +0.000 NA
ATOM     16  C   UNL     1      10.291  11.303  17.885  0.00  0.00    +0.000 C 
ATOM     17  C   UNL     1      11.591  11.689  18.593  0.00  0.00    +0.000 C 
ATOM     18  C   UNL     1      11.314  12.383  19.921  0.00  0.00    +0.000 C 
ATOM     19  C   UNL     1      10.385  11.533  20.774  0.00  0.00    +0.000 C 
ATOM     20  C   UNL     1       9.120  11.164  20.002  0.00  0.00    +0.000 C 
ENDBRANCH  14  15
ENDBRANCH  13  14
ENDBRANCH  11  12
ENDBRANCH   9  11
ENDBRANCH   1   8
BRANCH   6  21
ATOM     21  C   UNL     1       3.249   6.678  17.722  0.00  0.00    +0.000 C 
ATOM     22  O   UNL     1       4.187   7.014  17.004  0.00  0.00    +0.000 OA
ATOM     23  N   UNL     1       2.247   7.542  18.106  0.00  0.00    +0.000 N 
ATOM     24  H   UNL     1       1.611   7.264  18.837  0.00  0.00    +0.000 HD
BRANCH  23  25
ATOM     25  C   UNL     1       2.386   8.967  17.909  0.00  0.00    +0.000 C 
BRANCH  25  26
ATOM     26  C   UNL     1       1.144   9.653  18.298  0.00  0.00    +0.000 C 
ATOM     27  C   UNL     1       0.116  10.198  18.601  0.00  0.00    +0.000 C 
BRANCH  27  28
ATOM     28  C   UNL     1      -1.171  10.831  18.952  0.00  0.00    +0.000 C 
BRANCH  28  29
ATOM     29  N   UNL     1      -2.011  11.097  17.769  0.00  0.00    +0.000 NA
ATOM     30  C   UNL     1      -1.969   9.980  16.811  0.00  0.00    +0.000 C 
ATOM     31  C   UNL     1      -2.793  10.295  15.563  0.00  0.00    +0.000 C 
ATOM     32  C   UNL     1      -4.237  10.613  15.922  0.00  0.00    +0.000 C 
ATOM     33  C   UNL     1      -4.294  11.701  16.988  0.00  0.00    +0.000 C 
ATOM     34  C   UNL     1      -3.401  11.361  18.185  0.00  0.00    +0.000 C 
ENDBRANCH  28  29
ENDBRANCH  27  28
ENDBRANCH  25  26
ENDBRANCH  23  25
ENDBRANCH   6  21
TORSDOF 10
ENDMDL
MODEL 2
REMARK VINA RESULT:      -8.1      1.197      8.935
REMARK  Name = 
REMARK  10 active torsions:
REMARK  status: ('A' for Active; 'I' for Inactive)
REMARK    1  A    between atoms: C_2  and  C_14
REMARK    2  A    between atoms: N_3  and  C_4
REMARK    3  A    between atoms: C_4  and  C_5
REMARK    4  A    between atoms: C_6  and  C_7
REMARK    5  A    between atoms: C_7  and  N_8
REMARK    6  A    between atoms: C_19  and  C_20
REMARK    7  A    between atoms: N_22  and  C_23
REMARK    8  A    between atoms: C_23  and  C_24
REMARK    9  A    between atoms: C_25  and  C_26
REMARK   10  A    between atoms: C_26  and  N_27
REMARK                            x       y       z     vdW  Elec       q    Type
REMARK                         _______ _______ _______ _____ _____    ______ ____
ROOT
ATOM      1  C   UNL     1       3.236   5.124  18.176  0.00  0.00    +0.000 A 
ATOM      2  C   UNL     1       1.966   4.603  18.494  0.00  0.00    +0.000 A 
ATOM      3  C   UNL     1       1.838   3.335  19.064  0.00  0.00    +0.000 A 
ATOM      4  C   UNL     1       2.973   2.576  19.330  0.00  0.00    +0.000 A 
ATOM      5  C   UNL     1       4.235   3.072  18.993  0.00  0.00    +0.000 A 
ATOM      6  C   UNL     1       4.382   4.338  18.395  0.00  0.00    +0.000 A 
ENDROOT
BRANCH   1   8
ATOM      7  O   UNL     1       4.212   6.921  17.009  0.00  0.00    +0.000 OA
ATOM      8  C   UNL     1       3.334   6.553  17.778  0.00  0.00    +0.000 C 
ATOM      9  N   UNL     1       2.418   7.428  18.315  0.00  0.00    +0.000 N 
ATOM     10  H   UNL     1       1.622   7.107  18.849  0.00  0.00    +0.000 HD
BRANCH   9  11
ATOM     11  C   UNL     1       2.500   8.827  17.972  0.00  0.00    +0.000 C 
BRANCH  11  12
ATOM     12  C   UNL     1       1.119   9.460  18.017  0.00  0.00    +0.000 C 
ATOM     13  C   UNL     1      -0.066  10.003  18.055  0.00  0.00    +0.000 C 
BRANCH  13  14
ATOM     14  C   UNL     1      -1.446  10.637  18.099  0.00  0.00    +0.000 C 
BRANCH  14  15
ATOM     15  N   UNL     1      -1.415  11.851  18.930  0.00  0.00    +0.000 NA
ATOM     16  C   UNL     1      -1.106  11.488  20.322  0.00  0.00    +0.000 C 
ATOM     17  C   UNL     1      -1.105  12.716  21.234  0.00  0.00    +0.000 C 
ATOM     18  C   UNL     1      -0.142  13.783  20.728  0.00  0.00    +0.000 C 
ATOM     19  C   UNL     1      -0.436  14.107  19.271  0.00  0.00    +0.000 C 
ATOM     20  C   UNL     1      -0.445  12.838  18.420  0.00  0.00    +0.000 C 
ENDBRANCH  14  15
ENDBRANCH  13  14
ENDBRANCH  11  12
ENDBRANCH   9  11
ENDBRANCH   1   8
BRANCH   6  21
ATOM     21  C   UNL     1       5.783   4.730  18.043  0.00  0.00    +0.000 C 
ATOM     22  O   UNL     1       6.266   4.344  16.982  0.00  0.00    +0.000 OA
ATOM     23  N   UNL     1       6.432   5.597  18.896  0.00  0.00    +0.000 N 
ATOM     24  H   UNL     1       6.072   5.732  19.827  0.00  0.00    +0.000 HD
BRANCH  23  25
ATOM     25  C   UNL     1       7.836   5.891  18.720  0.00  0.00    +0.000 C 
BRANCH  25  26
ATOM     26  C   UNL     1       8.019   7.321  18.430  0.00  0.00    +0.000 C 
ATOM     27  C   UNL     1       8.190   8.490  18.203  0.00  0.00    +0.000 C 
BRANCH  27  28
ATOM     28  C   UNL     1       8.448   9.918  17.934  0.00  0.00    +0.000 C 
BRANCH  28  29
ATOM     29  N   UNL     1       9.618  10.430  18.673  0.00  0.00    +0.000 NA
ATOM     30  C   UNL     1      10.432  11.332  17.841  0.00  0.00    +0.000 C 
ATOM     31  C   UNL     1      11.673  11.804  18.597  0.00  0.00    +0.000 C 
ATOM     32  C   UNL     1      11.295  12.501  19.896  0.00  0.00    +0.000 C 
ATOM     33  C   UNL     1      10.370  11.618  20.724  0.00  0.00    +0.000 C 
ATOM     34  C   UNL     1       9.178  11.122  19.898  0.00  0.00    +0.000 C 
ENDBRANCH  28  29
ENDBRANCH  27  28
ENDBRANCH  25  26
ENDBRANCH  23  25
ENDBRANCH   6  21
TORSDOF 10
ENDMDL
MODEL 3
REMARK VINA RESULT:      -8.1      1.456      9.050
REMARK  Name = 
REMARK  10 active torsions:
REMARK  status: ('A' for Active; 'I' for Inactive)
REMARK    1  A    between atoms: C_2  and  C_14
REMARK    2  A    between atoms: N_3  and  C_4
REMARK    3  A    between atoms: C_4  and  C_5
REMARK    4  A    between atoms: C_6  and  C_7
REMARK    5  A    between atoms: C_7  and  N_8
REMARK    6  A    between atoms: C_19  and  C_20
REMARK    7  A    between atoms: N_22  and  C_23
REMARK    8  A    between atoms: C_23  and  C_24
REMARK    9  A    between atoms: C_25  and  C_26
REMARK   10  A    between atoms: C_26  and  N_27
REMARK                            x       y       z     vdW  Elec       q    Type
REMARK                         _______ _______ _______ _____ _____    ______ ____
ROOT
ATOM      1  C   UNL     1       3.110   5.189  18.632  0.00  0.00    +0.000 A 
ATOM      2  C   UNL     1       1.852   4.781  19.118  0.00  0.00    +0.000 A 
ATOM      3  C   UNL     1       1.728   3.625  19.892  0.00  0.00    +0.000 A 
ATOM      4  C   UNL     1       2.855   2.870  20.198  0.00  0.00    +0.000 A 
ATOM      5  C   UNL     1       4.102   3.251  19.699  0.00  0.00    +0.000 A 
ATOM      6  C   UNL     1       4.245   4.399  18.895  0.00  0.00    +0.000 A 
ENDROOT
BRANCH   1   8
ATOM      7  O   UNL     1       4.077   6.745  17.153  0.00  0.00    +0.000 OA
ATOM      8  C   UNL     1       3.222   6.531  18.003  0.00  0.00    +0.000 C 
ATOM      9  N   UNL     1       2.348   7.507  18.422  0.00  0.00    +0.000 N 
ATOM     10  H   UNL     1       1.568   7.299  19.030  0.00  0.00    +0.000 HD
BRANCH   9  11
ATOM     11  C   UNL     1       2.446   8.828  17.852  0.00  0.00    +0.000 C 
BRANCH  11  12
ATOM     12  C   UNL     1       1.184   9.622  18.146  0.00  0.00    +0.000 C 
ATOM     13  C   UNL     1       0.101  10.303  18.398  0.00  0.00    +0.000 C 
BRANCH  13  14
ATOM     14  C   UNL     1      -1.160  11.098  18.694  0.00  0.00    +0.000 C 
BRANCH  14  15
ATOM     15  N   UNL     1      -1.430  11.092  20.140  0.00  0.00    +0.000 NA
ATOM     16  C   UNL     1      -0.175  10.870  20.875  0.00  0.00    +0.000 C 
ATOM     17  C   UNL     1      -0.413  10.813  22.385  0.00  0.00    +0.000 C 
ATOM     18  C   UNL     1      -1.116  12.069  22.884  0.00  0.00    +0.000 C 
ATOM     19  C   UNL     1      -2.381  12.319  22.078  0.00  0.00    +0.000 C 
ATOM     20  C   UNL     1      -2.079  12.341  20.580  0.00  0.00    +0.000 C 
ENDBRANCH  14  15
ENDBRANCH  13  14
ENDBRANCH  11  12
ENDBRANCH   9  11
ENDBRANCH   1   8
BRANCH   6  21
ATOM     21  C   UNL     1       5.626   4.669  18.388  0.00  0.00    +0.000 C 
ATOM     22  O   UNL     1       6.004   4.124  17.354  0.00  0.00    +0.000 OA
ATOM     23  N   UNL     1       6.378   5.605  19.065  0.00  0.00    +0.000 N 
ATOM     24  H   UNL     1       6.102   5.878  19.995  0.00  0.00    +0.000 HD
BRANCH  23  25
ATOM     25  C   UNL     1       7.774   5.800  18.746  0.00  0.00    +0.000 C 
BRANCH  25  26
ATOM     26  C   UNL     1       8.031   7.221  18.464  0.00  0.00    +0.000 C 
ATOM     27  C   UNL     1       8.219   8.388  18.241  0.00  0.00    +0.000 C 
BRANCH  27  28
ATOM     28  C   UNL     1       8.407   9.830  17.989  0.00  0.00    +0.000 C 
BRANCH  28  29
ATOM     29  N   UNL     1       9.586  10.377  18.687  0.00  0.00    +0.000 NA
ATOM     30  C   UNL     1      10.357  11.283  17.820  0.00  0.00    +0.000 C 
ATOM     31  C   UNL     1      11.609  11.793  18.533  0.00  0.00    +0.000 C 
ATOM     32  C   UNL     1      11.253  12.501  19.833  0.00  0.00    +0.000 C 
ATOM     33  C   UNL     1      10.370  11.610  20.699  0.00  0.00    +0.000 C 
ATOM     34  C   UNL     1       9.167  11.078  19.914  0.00  0.00    +0.000 C 
ENDBRANCH  28  29
ENDBRANCH  27  28
ENDBRANCH  25  26
ENDBRANCH  23  25
ENDBRANCH   6  21
TORSDOF 10
ENDMDL
MODEL 4
REMARK VINA RESULT:      -8.0      1.920      3.015
REMARK  Name = 
REMARK  10 active torsions:
REMARK  status: ('A' for Active; 'I' for Inactive)
REMARK    1  A    between atoms: C_2  and  C_14
REMARK    2  A    between atoms: N_3  and  C_4
REMARK    3  A    between atoms: C_4  and  C_5
REMARK    4  A    between atoms: C_6  and  C_7
REMARK    5  A    between atoms: C_7  and  N_8
REMARK    6  A    between atoms: C_19  and  C_20
REMARK    7  A    between atoms: N_22  and  C_23
REMARK    8  A    between atoms: C_23  and  C_24
REMARK    9  A    between atoms: C_25  and  C_26
REMARK   10  A    between atoms: C_26  and  N_27
REMARK                            x       y       z     vdW  Elec       q    Type
REMARK                         _______ _______ _______ _____ _____    ______ ____
ROOT
ATOM      1  C   UNL     1       6.679   5.377  17.104  0.00  0.00    +0.000 A 
ATOM      2  C   UNL     1       7.388   4.952  15.962  0.00  0.00    +0.000 A 
ATOM      3  C   UNL     1       6.717   4.383  14.877  0.00  0.00    +0.000 A 
ATOM      4  C   UNL     1       5.334   4.241  14.914  0.00  0.00    +0.000 A 
ATOM      5  C   UNL     1       4.625   4.634  16.052  0.00  0.00    +0.000 A 
ATOM      6  C   UNL     1       5.287   5.186  17.166  0.00  0.00    +0.000 A 
ENDROOT
BRANCH   1   8
ATOM      7  O   UNL     1       7.589   5.707  19.250  0.00  0.00    +0.000 OA
ATOM      8  C   UNL     1       7.406   6.169  18.131  0.00  0.00    +0.000 C 
ATOM      9  N   UNL     1       7.841   7.425  17.778  0.00  0.00    +0.000 N 
ATOM     10  H   UNL     1       7.800   7.755  16.824  0.00  0.00    +0.000 HD
BRANCH   9  11
ATOM     11  C   UNL     1       8.527   8.230  18.759  0.00  0.00    +0.000 C 
BRANCH  11  12
ATOM     12  C   UNL     1       8.525   9.689  18.334  0.00  0.00    +0.000 C 
ATOM     13  C   UNL     1       8.523  10.941  17.969  0.00  0.00    +0.000 C 
BRANCH  13  14
ATOM     14  C   UNL     1       8.520  12.400  17.544  0.00  0.00    +0.000 C 
BRANCH  14  15
ATOM     15  N   UNL     1       9.770  13.050  17.971  0.00  0.00    +0.000 NA
ATOM     16  C   UNL     1       9.782  13.183  19.436  0.00  0.00    +0.000 C 
ATOM     17  C   UNL     1      11.045  13.893  19.924  0.00  0.00    +0.000 C 
ATOM     18  C   UNL     1      12.303  13.185  19.435  0.00  0.00    +0.000 C 
ATOM     19  C   UNL     1      12.251  13.003  17.927  0.00  0.00    +0.000 C 
ATOM     20  C   UNL     1      10.957  12.310  17.504  0.00  0.00    +0.000 C 
ENDBRANCH  14  15
ENDBRANCH  13  14
ENDBRANCH  11  12
ENDBRANCH   9  11
ENDBRANCH   1   8
BRANCH   6  21
ATOM     21  C   UNL     1       4.417   5.522  18.336  0.00  0.00    +0.000 C 
ATOM     22  O   UNL     1       4.537   4.882  19.377  0.00  0.00    +0.000 OA
ATOM     23  N   UNL     1       3.582   6.611  18.212  0.00  0.00    +0.000 N 
ATOM     24  H   UNL     1       3.386   6.979  17.295  0.00  0.00    +0.000 HD
BRANCH  23  25
ATOM     25  C   UNL     1       2.592   6.901  19.226  0.00  0.00    +0.000 C 
BRANCH  25  26
ATOM     26  C   UNL     1       1.975   8.211  18.967  0.00  0.00    +0.000 C 
ATOM     27  C   UNL     1       1.473   9.278  18.732  0.00  0.00    +0.000 C 
BRANCH  27  28
ATOM     28  C   UNL     1       0.854  10.575  18.395  0.00  0.00    +0.000 C 
BRANCH  28  29
ATOM     29  N   UNL     1      -0.607  10.575  18.601  0.00  0.00    +0.000 NA
ATOM     30  C   UNL     1      -1.126  11.937  18.802  0.00  0.00    +0.000 C 
ATOM     31  C   UNL     1      -2.629  11.917  19.077  0.00  0.00    +0.000 C 
ATOM     32  C   UNL     1      -3.387  11.238  17.944  0.00  0.00    +0.000 C 
ATOM     33  C   UNL     1      -2.795   9.863  17.657  0.00  0.00    +0.000 C 
ATOM     34  C   UNL     1      -1.278   9.936  17.454  0.00  0.00    +0.000 C 
ENDBRANCH  28  29
ENDBRANCH  27  28
ENDBRANCH  25  26
ENDBRANCH  23  25
ENDBRANCH   6  21
TORSDOF 10
ENDMDL
MODEL 5
REMARK VINA RESULT:      -7.9      1.743      2.186
REMARK  Name = 
REMARK  10 active torsions:
REMARK  status: ('A' for Active; 'I' for Inactive)
REMARK    1  A    between atoms: C_2  and  C_14
REMARK    2  A    between atoms: N_3  and  C_4
REMARK    3  A    between atoms: C_4  and  C_5
REMARK    4  A    between atoms: C_6  and  C_7
REMARK    5  A    between atoms: C_7  and  N_8
REMARK    6  A    between atoms: C_19  and  C_20
REMARK    7  A    between atoms: N_22  and  C_23
REMARK    8  A    between atoms: C_23  and  C_24
REMARK    9  A    between atoms: C_25  and  C_26
REMARK   10  A    between atoms: C_26  and  N_27
REMARK                            x       y       z     vdW  Elec       q    Type
REMARK                         _______ _______ _______ _____ _____    ______ ____
ROOT
ATOM      1  C   UNL     1       4.368   4.230  18.425  0.00  0.00    +0.000 A 
ATOM      2  C   UNL     1       4.052   2.909  18.802  0.00  0.00    +0.000 A 
ATOM      3  C   UNL     1       2.723   2.485  18.869  0.00  0.00    +0.000 A 
ATOM      4  C   UNL     1       1.697   3.369  18.553  0.00  0.00    +0.000 A 
ATOM      5  C   UNL     1       1.998   4.687  18.204  0.00  0.00    +0.000 A 
ATOM      6  C   UNL     1       3.331   5.140  18.155  0.00  0.00    +0.000 A 
ENDROOT
BRANCH   1   8
ATOM      7  O   UNL     1       6.306   4.269  17.088  0.00  0.00    +0.000 OA
ATOM      8  C   UNL     1       5.792   4.566  18.159  0.00  0.00    +0.000 C 
ATOM      9  N   UNL     1       6.494   5.201  19.157  0.00  0.00    +0.000 N 
ATOM     10  H   UNL     1       6.040   5.555  19.987  0.00  0.00    +0.000 HD
BRANCH   9  11
ATOM     11  C   UNL     1       7.885   5.518  18.942  0.00  0.00    +0.000 C 
BRANCH  11  12
ATOM     12  C   UNL     1       8.040   6.989  18.593  0.00  0.00    +0.000 C 
ATOM     13  C   UNL     1       8.173   8.252  18.295  0.00  0.00    +0.000 C 
BRANCH  13  14
ATOM     14  C   UNL     1       8.327   9.723  17.945  0.00  0.00    +0.000 C 
BRANCH  14  15
ATOM     15  N   UNL     1       9.516  10.275  18.613  0.00  0.00    +0.000 NA
ATOM     16  C   UNL     1      10.155  11.270  17.739  0.00  0.00    +0.000 C 
ATOM     17  C   UNL     1      11.424  11.842  18.374  0.00  0.00    +0.000 C 
ATOM     18  C   UNL     1      11.137  12.435  19.748  0.00  0.00    +0.000 C 
ATOM     19  C   UNL     1      10.424  11.416  20.623  0.00  0.00    +0.000 C 
ATOM     20  C   UNL     1       9.182  10.868  19.922  0.00  0.00    +0.000 C 
ENDBRANCH  14  15
ENDBRANCH  13  14
ENDBRANCH  11  12
ENDBRANCH   9  11
ENDBRANCH   1   8
BRANCH   6  21
ATOM     21  C   UNL     1       3.513   6.585  17.813  0.00  0.00    +0.000 C 
ATOM     22  O   UNL     1       4.606   6.975  17.414  0.00  0.00    +0.000 OA
ATOM     23  N   UNL     1       2.399   7.396  17.873  0.00  0.00    +0.000 N 
ATOM     24  H   UNL     1       1.586   7.078  18.377  0.00  0.00    +0.000 HD
BRANCH  23  25
ATOM     25  C   UNL     1       2.521   8.829  17.724  0.00  0.00    +0.000 C 
BRANCH  25  26
ATOM     26  C   UNL     1       1.412   9.503  18.416  0.00  0.00    +0.000 C 
ATOM     27  C   UNL     1       0.505  10.071  18.965  0.00  0.00    +0.000 C 
BRANCH  27  28
ATOM     28  C   UNL     1      -0.612  10.798  19.599  0.00  0.00    +0.000 C 
BRANCH  28  29
ATOM     29  N   UNL     1      -0.313  12.227  19.804  0.00  0.00    +0.000 NA
ATOM     30  C   UNL     1       0.588  12.747  18.763  0.00  0.00    +0.000 C 
ATOM     31  C   UNL     1       0.940  14.212  19.023  0.00  0.00    +0.000 C 
ATOM     32  C   UNL     1      -0.312  15.074  19.098  0.00  0.00    +0.000 C 
ATOM     33  C   UNL     1      -1.300  14.491  20.102  0.00  0.00    +0.000 C 
ATOM     34  C   UNL     1      -1.565  13.006  19.831  0.00  0.00    +0.000 C 
ENDBRANCH  28  29
ENDBRANCH  27  28
ENDBRANCH  25  26
ENDBRANCH  23  25
ENDBRANCH   6  21
TORSDOF 10
ENDMDL
MODEL 6
REMARK VINA RESULT:      -7.8      1.230      9.606
REMARK  Name = 
REMARK  10 active torsions:
REMARK  status: ('A' for Active; 'I' for Inactive)
REMARK    1  A    between atoms: C_2  and  C_14
REMARK    2  A    between atoms: N_3  and  C_4
REMARK    3  A    between atoms: C_4  and  C_5
REMARK    4  A    between atoms: C_6  and  C_7
REMARK    5  A    between atoms: C_7  and  N_8
REMARK    6  A    between atoms: C_19  and  C_20
REMARK    7  A    between atoms: N_22  and  C_23
REMARK    8  A    between atoms: C_23  and  C_24
REMARK    9  A    between atoms: C_25  and  C_26
REMARK   10  A    between atoms: C_26  and  N_27
REMARK                            x       y       z     vdW  Elec       q    Type
REMARK                         _______ _______ _______ _____ _____    ______ ____
ROOT
ATOM      1  C   UNL     1       2.970   5.980  18.008  0.00  0.00    +0.000 A 
ATOM      2  C   UNL     1       2.072   5.011  18.498  0.00  0.00    +0.000 A 
ATOM      3  C   UNL     1       2.320   3.650  18.311  0.00  0.00    +0.000 A 
ATOM      4  C   UNL     1       3.469   3.240  17.643  0.00  0.00    +0.000 A 
ATOM      5  C   UNL     1       4.353   4.193  17.131  0.00  0.00    +0.000 A 
ATOM      6  C   UNL     1       4.107   5.571  17.287  0.00  0.00    +0.000 A 
ENDROOT
BRANCH   1   8
ATOM      7  O   UNL     1       2.749   7.695  19.606  0.00  0.00    +0.000 OA
ATOM      8  C   UNL     1       2.775   7.396  18.420  0.00  0.00    +0.000 C 
ATOM      9  N   UNL     1       2.614   8.333  17.426  0.00  0.00    +0.000 N 
ATOM     10  H   UNL     1       2.758   8.107  16.451  0.00  0.00    +0.000 HD
BRANCH   9  11
ATOM     11  C   UNL     1       2.396   9.711  17.790  0.00  0.00    +0.000 C 
BRANCH  11  12
ATOM     12  C   UNL     1       0.962   9.911  18.253  0.00  0.00    +0.000 C 
ATOM     13  C   UNL     1      -0.268  10.083  18.650  0.00  0.00    +0.000 C 
BRANCH  13  14
ATOM     14  C   UNL     1      -1.701  10.285  19.113  0.00  0.00    +0.000 C 
BRANCH  14  15
ATOM     15  N   UNL     1      -2.619  10.168  17.969  0.00  0.00    +0.000 NA
ATOM     16  C   UNL     1      -3.383  11.416  17.820  0.00  0.00    +0.000 C 
ATOM     17  C   UNL     1      -4.384  11.327  16.667  0.00  0.00    +0.000 C 
ATOM     18  C   UNL     1      -3.694  10.957  15.360  0.00  0.00    +0.000 C 
ATOM     19  C   UNL     1      -2.861   9.698  15.543  0.00  0.00    +0.000 C 
ATOM     20  C   UNL     1      -1.901   9.844  16.722  0.00  0.00    +0.000 C 
ENDBRANCH  14  15
ENDBRANCH  13  14
ENDBRANCH  11  12
ENDBRANCH   9  11
ENDBRANCH   1   8
BRANCH   6  21
ATOM     21  C   UNL     1       5.106   6.484  16.651  0.00  0.00    +0.000 C 
ATOM     22  O   UNL     1       4.826   7.037  15.591  0.00  0.00    +0.000 OA
ATOM     23  N   UNL     1       6.268   6.737  17.349  0.00  0.00    +0.000 N 
ATOM     24  H   UNL     1       6.528   6.126  18.107  0.00  0.00    +0.000 HD
BRANCH  23  25
ATOM     25  C   UNL     1       7.353   7.469  16.735  0.00  0.00    +0.000 C 
BRANCH  25  26
ATOM     26  C   UNL     1       7.974   8.367  17.720  0.00  0.00    +0.000 C 
ATOM     27  C   UNL     1       8.475   9.088  18.543  0.00  0.00    +0.000 C 
BRANCH  27  28
ATOM     28  C   UNL     1       9.080   9.937  19.587  0.00  0.00    +0.000 C 
BRANCH  28  29
ATOM     29  N   UNL     1       9.302  11.322  19.131  0.00  0.00    +0.000 NA
ATOM     30  C   UNL     1       9.863  12.162  20.202  0.00  0.00    +0.000 C 
ATOM     31  C   UNL     1      10.029  13.608  19.735  0.00  0.00    +0.000 C 
ATOM     32  C   UNL     1      10.913  13.690  18.498  0.00  0.00    +0.000 C 
ATOM     33  C   UNL     1      10.400  12.748  17.415  0.00  0.00    +0.000 C 
ATOM     34  C   UNL     1      10.192  11.330  17.955  0.00  0.00    +0.000 C 
ENDBRANCH  28  29
ENDBRANCH  27  28
ENDBRANCH  25  26
ENDBRANCH  23  25
ENDBRANCH   6  21
TORSDOF 10
ENDMDL
MODEL 7
REMARK VINA RESULT:      -7.8      1.918      9.300
REMARK  Name = 
REMARK  10 active torsions:
REMARK  status: ('A' for Active; 'I' for Inactive)
REMARK    1  A    between atoms: C_2  and  C_14
REMARK    2  A    between atoms: N_3  and  C_4
REMARK    3  A    between atoms: C_4  and  C_5
REMARK    4  A    between atoms: C_6  and  C_7
REMARK    5  A    between atoms: C_7  and  N_8
REMARK    6  A    between atoms: C_19  and  C_20
REMARK    7  A    between atoms: N_22  and  C_23
REMARK    8  A    between atoms: C_23  and  C_24
REMARK    9  A    between atoms: C_25  and  C_26
REMARK   10  A    between atoms: C_26  and  N_27
REMARK                            x       y       z     vdW  Elec       q    Type
REMARK                         _______ _______ _______ _____ _____    ______ ____
ROOT
ATOM      1  C   UNL     1       5.261   4.917  16.117  0.00  0.00    +0.000 A 
ATOM      2  C   UNL     1       4.700   4.480  14.901  0.00  0.00    +0.000 A 
ATOM      3  C   UNL     1       5.517   4.130  13.824  0.00  0.00    +0.000 A 
ATOM      4  C   UNL     1       6.900   4.202  13.951  0.00  0.00    +0.000 A 
ATOM      5  C   UNL     1       7.465   4.659  15.143  0.00  0.00    +0.000 A 
ATOM      6  C   UNL     1       6.658   5.041  16.232  0.00  0.00    +0.000 A 
ENDROOT
BRANCH   1   8
ATOM      7  O   UNL     1       4.233   4.147  18.091  0.00  0.00    +0.000 OA
ATOM      8  C   UNL     1       4.365   5.067  17.294  0.00  0.00    +0.000 C 
ATOM      9  N   UNL     1       3.692   6.258  17.436  0.00  0.00    +0.000 N 
ATOM     10  H   UNL     1       3.894   7.058  16.851  0.00  0.00    +0.000 HD
BRANCH   9  11
ATOM     11  C   UNL     1       2.794   6.428  18.552  0.00  0.00    +0.000 C 
BRANCH  11  12
ATOM     12  C   UNL     1       2.239   7.843  18.569  0.00  0.00    +0.000 C 
ATOM     13  C   UNL     1       1.764   9.057  18.584  0.00  0.00    +0.000 C 
BRANCH  13  14
ATOM     14  C   UNL     1       1.208  10.471  18.601  0.00  0.00    +0.000 C 
BRANCH  14  15
ATOM     15  N   UNL     1      -0.254  10.434  18.765  0.00  0.00    +0.000 NA
ATOM     16  C   UNL     1      -0.738  11.761  19.177  0.00  0.00    +0.000 C 
ATOM     17  C   UNL     1      -2.251  11.760  19.402  0.00  0.00    +0.000 C 
ATOM     18  C   UNL     1      -2.996  11.274  18.165  0.00  0.00    +0.000 C 
ATOM     19  C   UNL     1      -2.447   9.929  17.716  0.00  0.00    +0.000 C 
ATOM     20  C   UNL     1      -0.931   9.991  17.532  0.00  0.00    +0.000 C 
ENDBRANCH  14  15
ENDBRANCH  13  14
ENDBRANCH  11  12
ENDBRANCH   9  11
ENDBRANCH   1   8
BRANCH   6  21
ATOM     21  C   UNL     1       7.387   5.555  17.432  0.00  0.00    +0.000 C 
ATOM     22  O   UNL     1       7.812   4.758  18.264  0.00  0.00    +0.000 OA
ATOM     23  N   UNL     1       7.631   6.910  17.493  0.00  0.00    +0.000 N 
ATOM     24  H   UNL     1       7.110   7.531  16.895  0.00  0.00    +0.000 HD
BRANCH  23  25
ATOM     25  C   UNL     1       8.177   7.508  18.691  0.00  0.00    +0.000 C 
BRANCH  25  26
ATOM     26  C   UNL     1       8.527   8.914  18.437  0.00  0.00    +0.000 C 
ATOM     27  C   UNL     1       8.794  10.065  18.215  0.00  0.00    +0.000 C 
BRANCH  27  28
ATOM     28  C   UNL     1       9.077  11.485  17.923  0.00  0.00    +0.000 C 
BRANCH  28  29
ATOM     29  N   UNL     1       9.915  12.119  18.958  0.00  0.00    +0.000 NA
ATOM     30  C   UNL     1      10.437  13.421  18.511  0.00  0.00    +0.000 C 
ATOM     31  C   UNL     1      11.353  14.037  19.566  0.00  0.00    +0.000 C 
ATOM     32  C   UNL     1      10.631  14.200  20.896  0.00  0.00    +0.000 C 
ATOM     33  C   UNL     1      10.000  12.880  21.324  0.00  0.00    +0.000 C 
ATOM     34  C   UNL     1       9.145  12.278  20.205  0.00  0.00    +0.000 C 
ENDBRANCH  28  29
ENDBRANCH  27  28
ENDBRANCH  25  26
ENDBRANCH  23  25
ENDBRANCH   6  21
TORSDOF 10
ENDMDL
MODEL 8
REMARK VINA RESULT:      -7.8      1.950      3.109
REMARK  Name = 
REMARK  10 active torsions:
REMARK  status: ('A' for Active; 'I' for Inactive)
REMARK    1  A    between atoms: C_2  and  C_14
REMARK    2  A    between atoms: N_3  and  C_4
REMARK    3  A    between atoms: C_4  and  C_5
REMARK    4  A    between atoms: C_6  and  C_7
REMARK    5  A    between atoms: C_7  and  N_8
REMARK    6  A    between atoms: C_19  and  C_20
REMARK    7  A    between atoms: N_22  and  C_23
REMARK    8  A    between atoms: C_23  and  C_24
REMARK    9  A    between atoms: C_25  and  C_26
REMARK   10  A    between atoms: C_26  and  N_27
REMARK                            x       y       z     vdW  Elec       q    Type
REMARK                         _______ _______ _______ _____ _____    ______ ____
ROOT
ATOM      1  C   UNL     1       6.640   5.131  16.703  0.00  0.00    +0.000 A 
ATOM      2  C   UNL     1       7.427   4.809  15.579  0.00  0.00    +0.000 A 
ATOM      3  C   UNL     1       6.832   4.389  14.388  0.00  0.00    +0.000 A 
ATOM      4  C   UNL     1       5.447   4.296  14.300  0.00  0.00    +0.000 A 
ATOM      5  C   UNL     1       4.659   4.586  15.416  0.00  0.00    +0.000 A 
ATOM      6  C   UNL     1       5.242   4.987  16.634  0.00  0.00    +0.000 A 
ENDROOT
BRANCH   1   8
ATOM      7  O   UNL     1       7.405   5.177  18.929  0.00  0.00    +0.000 OA
ATOM      8  C   UNL     1       7.302   5.777  17.867  0.00  0.00    +0.000 C 
ATOM      9  N   UNL     1       7.771   7.060  17.703  0.00  0.00    +0.000 N 
ATOM     10  H   UNL     1       7.797   7.507  16.797  0.00  0.00    +0.000 HD
BRANCH   9  11
ATOM     11  C   UNL     1       8.395   7.726  18.820  0.00  0.00    +0.000 C 
BRANCH  11  12
ATOM     12  C   UNL     1       8.645   9.187  18.487  0.00  0.00    +0.000 C 
ATOM     13  C   UNL     1       8.859  10.442  18.201  0.00  0.00    +0.000 C 
BRANCH  13  14
ATOM     14  C   UNL     1       9.107  11.903  17.867  0.00  0.00    +0.000 C 
BRANCH  14  15
ATOM     15  N   UNL     1       9.067  12.712  19.096  0.00  0.00    +0.000 NA
ATOM     16  C   UNL     1       9.971  12.131  20.099  0.00  0.00    +0.000 C 
ATOM     17  C   UNL     1       9.930  12.915  21.412  0.00  0.00    +0.000 C 
ATOM     18  C   UNL     1      10.247  14.389  21.188  0.00  0.00    +0.000 C 
ATOM     19  C   UNL     1       9.344  14.962  20.107  0.00  0.00    +0.000 C 
ATOM     20  C   UNL     1       9.414  14.122  18.834  0.00  0.00    +0.000 C 
ENDBRANCH  14  15
ENDBRANCH  13  14
ENDBRANCH  11  12
ENDBRANCH   9  11
ENDBRANCH   1   8
BRANCH   6  21
ATOM     21  C   UNL     1       4.289   5.224  17.762  0.00  0.00    +0.000 C 
ATOM     22  O   UNL     1       4.118   4.342  18.600  0.00  0.00    +0.000 OA
ATOM     23  N   UNL     1       3.718   6.475  17.858  0.00  0.00    +0.000 N 
ATOM     24  H   UNL     1       3.742   7.088  17.059  0.00  0.00    +0.000 HD
BRANCH  23  25
ATOM     25  C   UNL     1       2.664   6.733  18.813  0.00  0.00    +0.000 C 
BRANCH  25  26
ATOM     26  C   UNL     1       2.128   8.089  18.616  0.00  0.00    +0.000 C 
ATOM     27  C   UNL     1       1.674   9.193  18.472  0.00  0.00    +0.000 C 
BRANCH  27  28
ATOM     28  C   UNL     1       1.088  10.541  18.335  0.00  0.00    +0.000 C 
BRANCH  28  29
ATOM     29  N   UNL     1      -0.360  10.559  18.616  0.00  0.00    +0.000 NA
ATOM     30  C   UNL     1      -0.853  11.929  18.836  0.00  0.00    +0.000 C 
ATOM     31  C   UNL     1      -2.340  11.928  19.187  0.00  0.00    +0.000 C 
ATOM     32  C   UNL     1      -3.163  11.252  18.099  0.00  0.00    +0.000 C 
ATOM     33  C   UNL     1      -2.602   9.869  17.789  0.00  0.00    +0.000 C 
ATOM     34  C   UNL     1      -1.097   9.923  17.508  0.00  0.00    +0.000 C 
ENDBRANCH  28  29
ENDBRANCH  27  28
ENDBRANCH  25  26
ENDBRANCH  23  25
ENDBRANCH   6  21
TORSDOF 10
ENDMDL
MODEL 9
REMARK VINA RESULT:      -7.8      1.791      8.815
REMARK  Name = 
REMARK  10 active torsions:
REMARK  status: ('A' for Active; 'I' for Inactive)
REMARK    1  A    between atoms: C_2  and  C_14
REMARK    2  A    between atoms: N_3  and  C_4
REMARK    3  A    between atoms: C_4  and  C_5
REMARK    4  A    between atoms: C_6  and  C_7
REMARK    5  A    between atoms: C_7  and  N_8
REMARK    6  A    between atoms: C_19  and  C_20
REMARK    7  A    between atoms: N_22  and  C_23
REMARK    8  A    between atoms: C_23  and  C_24
REMARK    9  A    between atoms: C_25  and  C_26
REMARK   10  A    between atoms: C_26  and  N_27
REMARK                            x       y       z     vdW  Elec       q    Type
REMARK                         _______ _______ _______ _____ _____    ______ ____
ROOT
ATOM      1  C   UNL     1       3.255   5.021  18.166  0.00  0.00    +0.000 A 
ATOM      2  C   UNL     1       1.963   4.478  18.014  0.00  0.00    +0.000 A 
ATOM      3  C   UNL     1       1.643   3.234  18.563  0.00  0.00    +0.000 A 
ATOM      4  C   UNL     1       2.602   2.524  19.277  0.00  0.00    +0.000 A 
ATOM      5  C   UNL     1       3.893   3.041  19.410  0.00  0.00    +0.000 A 
ATOM      6  C   UNL     1       4.242   4.281  18.842  0.00  0.00    +0.000 A 
ENDROOT
BRANCH   1   8
ATOM      7  O   UNL     1       4.513   6.750  17.181  0.00  0.00    +0.000 OA
ATOM      8  C   UNL     1       3.480   6.432  17.755  0.00  0.00    +0.000 C 
ATOM      9  N   UNL     1       2.499   7.348  18.057  0.00  0.00    +0.000 N 
ATOM     10  H   UNL     1       1.598   7.066  18.417  0.00  0.00    +0.000 HD
BRANCH   9  11
ATOM     11  C   UNL     1       2.697   8.731  17.696  0.00  0.00    +0.000 C 
BRANCH  11  12
ATOM     12  C   UNL     1       1.516   9.568  18.158  0.00  0.00    +0.000 C 
ATOM     13  C   UNL     1       0.502  10.286  18.555  0.00  0.00    +0.000 C 
BRANCH  13  14
ATOM     14  C   UNL     1      -0.680  11.122  19.017  0.00  0.00    +0.000 C 
BRANCH  14  15
ATOM     15  N   UNL     1      -0.581  11.375  20.463  0.00  0.00    +0.000 NA
ATOM     16  C   UNL     1      -1.713  12.208  20.897  0.00  0.00    +0.000 C 
ATOM     17  C   UNL     1      -1.630  12.534  22.389  0.00  0.00    +0.000 C 
ATOM     18  C   UNL     1      -1.538  11.267  23.230  0.00  0.00    +0.000 C 
ATOM     19  C   UNL     1      -0.400  10.388  22.734  0.00  0.00    +0.000 C 
ATOM     20  C   UNL     1      -0.530  10.120  21.236  0.00  0.00    +0.000 C 
ENDBRANCH  14  15
ENDBRANCH  13  14
ENDBRANCH  11  12
ENDBRANCH   9  11
ENDBRANCH   1   8
BRANCH   6  21
ATOM     21  C   UNL     1       5.668   4.698  19.019  0.00  0.00    +0.000 C 
ATOM     22  O   UNL     1       6.081   4.964  20.144  0.00  0.00    +0.000 OA
ATOM     23  N   UNL     1       6.480   4.667  17.906  0.00  0.00    +0.000 N 
ATOM     24  H   UNL     1       6.059   4.626  16.991  0.00  0.00    +0.000 HD
BRANCH  23  25
ATOM     25  C   UNL     1       7.818   5.212  17.953  0.00  0.00    +0.000 C 
BRANCH  25  26
ATOM     26  C   UNL     1       7.765   6.681  17.915  0.00  0.00    +0.000 C 
ATOM     27  C   UNL     1       7.741   7.884  17.897  0.00  0.00    +0.000 C 
BRANCH  27  28
ATOM     28  C   UNL     1       7.757   9.360  17.895  0.00  0.00    +0.000 C 
BRANCH  28  29
ATOM     29  N   UNL     1       9.030   9.912  18.397  0.00  0.00    +0.000 NA
ATOM     30  C   UNL     1       9.510  11.019  17.553  0.00  0.00    +0.000 C 
ATOM     31  C   UNL     1      10.859  11.539  18.047  0.00  0.00    +0.000 C 
ATOM     32  C   UNL     1      10.778  11.994  19.497  0.00  0.00    +0.000 C 
ATOM     33  C   UNL     1      10.187  10.892  20.368  0.00  0.00    +0.000 C 
ATOM     34  C   UNL     1       8.869  10.365  19.791  0.00  0.00    +0.000 C 
ENDBRANCH  28  29
ENDBRANCH  27  28
ENDBRANCH  25  26
ENDBRANCH  23  25
ENDBRANCH   6  21
TORSDOF 10
ENDMDL
