MODEL 1
REMARK VINA RESULT:      -7.8      0.000      0.000
REMARK  Name = 
REMARK  5 active torsions:
REMARK  status: ('A' for Active; 'I' for Inactive)
REMARK    1  A    between atoms: C_2  and  C_3
REMARK    2  A    between atoms: C_15  and  C_16
REMARK    3  A    between atoms: C_16  and  O_17
REMARK    4  A    between atoms: O_17  and  C_18
REMARK    5  A    between atoms: C_18  and  C_19
REMARK                            x       y       z     vdW  Elec       q    Type
REMARK                         _______ _______ _______ _____ _____    ______ ____
ROOT
ATOM      1  O   UNL     1       3.880   1.589  17.606  0.00  0.00    +0.000 OA
ATOM      2  C   UNL     1       3.848   2.704  18.125  0.00  0.00    +0.000 C 
ATOM      3  N   UNL     1       4.574   3.800  17.613  0.00  0.00    +0.000 N 
ATOM      4  C   UNL     1       5.257   3.644  16.329  0.00  0.00    +0.000 C 
ATOM      5  C   UNL     1       5.120   4.911  15.494  0.00  0.00    +0.000 C 
ATOM      6  C   UNL     1       5.565   6.123  16.290  0.00  0.00    +0.000 C 
ATOM      7  F   UNL     1       5.345   7.250  15.565  0.00  0.00    +0.000 F 
ATOM      8  F   UNL     1       6.916   6.056  16.463  0.00  0.00    +0.000 F 
ATOM      9  C   UNL     1       4.918   6.257  17.661  0.00  0.00    +0.000 C 
ATOM     10  C   UNL     1       5.061   4.932  18.417  0.00  0.00    +0.000 C 
ENDROOT
BRANCH   2  11
ATOM     11  C   UNL     1       2.946   2.887  19.299  0.00  0.00    +0.000 A 
ATOM     12  C   UNL     1       3.328   2.513  20.585  0.00  0.00    +0.000 A 
ATOM     13  C   UNL     1       2.437   2.757  21.621  0.00  0.00    +0.000 A 
ATOM     14  N   UNL     1       1.231   3.357  21.472  0.00  0.00    +0.000 NA
ATOM     15  C   UNL     1       0.860   3.632  20.205  0.00  0.00    +0.000 A 
ATOM     16  C   UNL     1       1.651   3.339  19.116  0.00  0.00    +0.000 A 
ENDBRANCH   2  11
BRANCH   9  17
ATOM     17  C   UNL     1       3.462   6.702  17.529  0.00  0.00    +0.000 C 
BRANCH  17  18
ATOM     18  O   UNL     1       3.222   8.003  18.079  0.00  0.00    +0.000 OA
BRANCH  18  19
ATOM     19  C   UNL     1       1.948   8.593  17.834  0.00  0.00    +0.000 C 
BRANCH  19  20
ATOM     20  C   UNL     1       1.336   8.990  19.136  0.00  0.00    +0.000 A 
ATOM     21  C   UNL     1       1.618   8.237  20.285  0.00  0.00    +0.000 A 
ATOM     22  C   UNL     1       0.923   8.477  21.466  0.00  0.00    +0.000 A 
ATOM     23  C   UNL     1      -0.053   9.471  21.506  0.00  0.00    +0.000 A 
ATOM     24  C   UNL     1      -0.328  10.232  20.371  0.00  0.00    +0.000 A 
ATOM     25  C   UNL     1       0.368  10.000  19.187  0.00  0.00    +0.000 A 
ENDBRANCH  19  20
ENDBRANCH  18  19
ENDBRANCH  17  18
ENDBRANCH   9  17
TORSDOF 5
ENDMDL
MODEL 2
REMARK VINA RESULT:      -7.7      2.750      4.814
REMARK  Name = 
REMARK  5 active torsions:
REMARK  status: ('A' for Active; 'I' for Inactive)
REMARK    1  A    between atoms: C_2  and  C_3
REMARK    2  A    between atoms: C_15  and  C_16
REMARK    3  A    between atoms: C_16  and  O_17
REMARK    4  A    between atoms: O_17  and  C_18
REMARK    5  A    between atoms: C_18  and  C_19
REMARK                            x       y       z     vdW  Elec       q    Type
REMARK                         _______ _______ _______ _____ _____    ______ ____
ROOT
ATOM      1  O   UNL     1       6.338   4.033  19.188  0.00  0.00    +0.000 OA
ATOM      2  C   UNL     1       5.352   4.056  18.452  0.00  0.00    +0.000 C 
ATOM      3  N   UNL     1       4.146   3.401  18.781  0.00  0.00    +0.000 N 
ATOM      4  C   UNL     1       4.011   2.817  20.115  0.00  0.00    +0.000 C 
ATOM      5  C   UNL     1       2.609   3.054  20.663  0.00  0.00    +0.000 C 
ATOM      6  C   UNL     1       1.564   2.580  19.671  0.00  0.00    +0.000 C 
ATOM      7  F   UNL     1       0.325   2.887  20.134  0.00  0.00    +0.000 F 
ATOM      8  F   UNL     1       1.607   1.219  19.613  0.00  0.00    +0.000 F 
ATOM      9  C   UNL     1       1.736   3.121  18.259  0.00  0.00    +0.000 C 
ATOM     10  C   UNL     1       3.178   2.884  17.801  0.00  0.00    +0.000 C 
ENDROOT
BRANCH   2  11
ATOM     11  C   UNL     1       5.447   4.866  17.204  0.00  0.00    +0.000 A 
ATOM     12  C   UNL     1       5.933   4.331  16.015  0.00  0.00    +0.000 A 
ATOM     13  C   UNL     1       5.948   5.152  14.894  0.00  0.00    +0.000 A 
ATOM     14  N   UNL     1       5.500   6.430  14.872  0.00  0.00    +0.000 NA
ATOM     15  C   UNL     1       5.111   6.941  16.058  0.00  0.00    +0.000 A 
ATOM     16  C   UNL     1       5.151   6.218  17.230  0.00  0.00    +0.000 A 
ENDBRANCH   2  11
BRANCH   9  17
ATOM     17  C   UNL     1       1.335   4.595  18.194  0.00  0.00    +0.000 C 
BRANCH  17  18
ATOM     18  O   UNL     1       2.412   5.484  18.514  0.00  0.00    +0.000 OA
BRANCH  18  19
ATOM     19  C   UNL     1       2.321   6.211  19.735  0.00  0.00    +0.000 C 
BRANCH  19  20
ATOM     20  C   UNL     1       2.011   7.639  19.431  0.00  0.00    +0.000 A 
ATOM     21  C   UNL     1       1.366   8.422  20.398  0.00  0.00    +0.000 A 
ATOM     22  C   UNL     1       0.908   9.696  20.076  0.00  0.00    +0.000 A 
ATOM     23  C   UNL     1       1.095  10.194  18.787  0.00  0.00    +0.000 A 
ATOM     24  C   UNL     1       1.749   9.425  17.825  0.00  0.00    +0.000 A 
ATOM     25  C   UNL     1       2.214   8.151  18.144  0.00  0.00    +0.000 A 
ENDBRANCH  19  20
ENDBRANCH  18  19
ENDBRANCH  17  18
ENDBRANCH   9  17
TORSDOF 5
ENDMDL
MODEL 3
REMARK VINA RESULT:      -7.7      0.542      1.457
REMARK  Name = 
REMARK  5 active torsions:
REMARK  status: ('A' for Active; 'I' for Inactive)
REMARK    1  A    between atoms: C_2  and  C_3
REMARK    2  A    between atoms: C_15  and  C_16
REMARK    3  A    between atoms: C_16  and  O_17
REMARK    4  A    between atoms: O_17  and  C_18
REMARK    5  A    between atoms: C_18  and  C_19
REMARK                            x       y       z     vdW  Elec       q    Type
REMARK                         _______ _______ _______ _____ _____    ______ ____
ROOT
ATOM      1  O   UNL     1       3.857   1.641  17.657  0.00  0.00    +0.000 OA
ATOM      2  C   UNL     1       3.802   2.761  18.164  0.00  0.00    +0.000 C 
ATOM      3  N   UNL     1       4.513   3.864  17.646  0.00  0.00    +0.000 N 
ATOM      4  C   UNL     1       5.207   3.707  16.368  0.00  0.00    +0.000 C 
ATOM      5  C   UNL     1       5.053   4.963  15.519  0.00  0.00    +0.000 C 
ATOM      6  C   UNL     1       5.473   6.191  16.306  0.00  0.00    +0.000 C 
ATOM      7  F   UNL     1       5.239   7.306  15.568  0.00  0.00    +0.000 F 
ATOM      8  F   UNL     1       6.824   6.148  16.487  0.00  0.00    +0.000 F 
ATOM      9  C   UNL     1       4.816   6.326  17.671  0.00  0.00    +0.000 C 
ATOM     10  C   UNL     1       4.976   5.013  18.441  0.00  0.00    +0.000 C 
ENDROOT
BRANCH   2  11
ATOM     11  C   UNL     1       2.891   2.940  19.332  0.00  0.00    +0.000 A 
ATOM     12  C   UNL     1       1.639   3.534  19.203  0.00  0.00    +0.000 A 
ATOM     13  C   UNL     1       0.846   3.624  20.339  0.00  0.00    +0.000 A 
ATOM     14  N   UNL     1       1.195   3.151  21.559  0.00  0.00    +0.000 NA
ATOM     15  C   UNL     1       2.444   2.655  21.666  0.00  0.00    +0.000 A 
ATOM     16  C   UNL     1       3.323   2.614  20.606  0.00  0.00    +0.000 A 
ENDBRANCH   2  11
BRANCH   9  17
ATOM     17  C   UNL     1       3.353   6.746  17.526  0.00  0.00    +0.000 C 
BRANCH  17  18
ATOM     18  O   UNL     1       2.952   7.726  18.491  0.00  0.00    +0.000 OA
BRANCH  18  19
ATOM     19  C   UNL     1       2.261   7.263  19.647  0.00  0.00    +0.000 C 
BRANCH  19  20
ATOM     20  C   UNL     1       1.431   8.374  20.198  0.00  0.00    +0.000 A 
ATOM     21  C   UNL     1       1.064   9.437  19.360  0.00  0.00    +0.000 A 
ATOM     22  C   UNL     1       0.447  10.566  19.891  0.00  0.00    +0.000 A 
ATOM     23  C   UNL     1       0.192  10.636  21.260  0.00  0.00    +0.000 A 
ATOM     24  C   UNL     1       0.542   9.576  22.096  0.00  0.00    +0.000 A 
ATOM     25  C   UNL     1       1.155   8.442  21.568  0.00  0.00    +0.000 A 
ENDBRANCH  19  20
ENDBRANCH  18  19
ENDBRANCH  17  18
ENDBRANCH   9  17
TORSDOF 5
ENDMDL
MODEL 4
REMARK VINA RESULT:      -7.7      0.466      1.201
REMARK  Name = 
REMARK  5 active torsions:
REMARK  status: ('A' for Active; 'I' for Inactive)
REMARK    1  A    between atoms: C_2  and  C_3
REMARK    2  A    between atoms: C_15  and  C_16
REMARK    3  A    between atoms: C_16  and  O_17
REMARK    4  A    between atoms: O_17  and  C_18
REMARK    5  A    between atoms: C_18  and  C_19
REMARK                            x       y       z     vdW  Elec       q    Type
REMARK                         _______ _______ _______ _____ _____    ______ ____
ROOT
ATOM      1  O   UNL     1       3.911   1.533  17.696  0.00  0.00    +0.000 OA
ATOM      2  C   UNL     1       3.835   2.651  18.205  0.00  0.00    +0.000 C 
ATOM      3  N   UNL     1       4.524   3.768  17.688  0.00  0.00    +0.000 N 
ATOM      4  C   UNL     1       5.219   3.627  16.409  0.00  0.00    +0.000 C 
ATOM      5  C   UNL     1       5.041   4.882  15.563  0.00  0.00    +0.000 C 
ATOM      6  C   UNL     1       5.438   6.115  16.351  0.00  0.00    +0.000 C 
ATOM      7  F   UNL     1       5.181   7.227  15.616  0.00  0.00    +0.000 F 
ATOM      8  F   UNL     1       6.789   6.099  16.531  0.00  0.00    +0.000 F 
ATOM      9  C   UNL     1       4.779   6.236  17.718  0.00  0.00    +0.000 C 
ATOM     10  C   UNL     1       4.966   4.924  18.485  0.00  0.00    +0.000 C 
ENDROOT
BRANCH   2  11
ATOM     11  C   UNL     1       2.922   2.810  19.374  0.00  0.00    +0.000 A 
ATOM     12  C   UNL     1       1.641   3.338  19.239  0.00  0.00    +0.000 A 
ATOM     13  C   UNL     1       0.850   3.413  20.378  0.00  0.00    +0.000 A 
ATOM     14  N   UNL     1       1.228   2.985  21.606  0.00  0.00    +0.000 NA
ATOM     15  C   UNL     1       2.501   2.554  21.716  0.00  0.00    +0.000 A 
ATOM     16  C   UNL     1       3.376   2.533  20.652  0.00  0.00    +0.000 A 
ENDBRANCH   2  11
BRANCH   9  17
ATOM     17  C   UNL     1       3.308   6.628  17.574  0.00  0.00    +0.000 C 
BRANCH  17  18
ATOM     18  O   UNL     1       2.932   7.715  18.428  0.00  0.00    +0.000 OA
BRANCH  18  19
ATOM     19  C   UNL     1       2.298   7.390  19.662  0.00  0.00    +0.000 C 
BRANCH  19  20
ATOM     20  C   UNL     1       1.432   8.532  20.081  0.00  0.00    +0.000 A 
ATOM     21  C   UNL     1       0.813   8.497  21.338  0.00  0.00    +0.000 A 
ATOM     22  C   UNL     1      -0.136   9.457  21.677  0.00  0.00    +0.000 A 
ATOM     23  C   UNL     1      -0.469  10.455  20.763  0.00  0.00    +0.000 A 
ATOM     24  C   UNL     1       0.153  10.502  19.516  0.00  0.00    +0.000 A 
ATOM     25  C   UNL     1       1.108   9.547  19.174  0.00  0.00    +0.000 A 
ENDBRANCH  19  20
ENDBRANCH  18  19
ENDBRANCH  17  18
ENDBRANCH   9  17
TORSDOF 5
ENDMDL
MODEL 5
REMARK VINA RESULT:      -7.6      2.683      4.715
REMARK  Name = 
REMARK  5 active torsions:
REMARK  status: ('A' for Active; 'I' for Inactive)
REMARK    1  A    between atoms: C_2  and  C_3
REMARK    2  A    between atoms: C_15  and  C_16
REMARK    3  A    between atoms: C_16  and  O_17
REMARK    4  A    between atoms: O_17  and  C_18
REMARK    5  A    between atoms: C_18  and  C_19
REMARK                            x       y       z     vdW  Elec       q    Type
REMARK                         _______ _______ _______ _____ _____    ______ ____
ROOT
ATOM      1  O   UNL     1       6.391   4.298  19.280  0.00  0.00    +0.000 OA
ATOM      2  C   UNL     1       5.459   4.197  18.483  0.00  0.00    +0.000 C 
ATOM      3  N   UNL     1       4.202   3.672  18.850  0.00  0.00    +0.000 N 
ATOM      4  C   UNL     1       3.948   3.394  20.263  0.00  0.00    +0.000 C 
ATOM      5  C   UNL     1       2.527   3.792  20.639  0.00  0.00    +0.000 C 
ATOM      6  C   UNL     1       1.527   3.154  19.693  0.00  0.00    +0.000 C 
ATOM      7  F   UNL     1       0.278   3.597  19.985  0.00  0.00    +0.000 F 
ATOM      8  F   UNL     1       1.505   1.812  19.928  0.00  0.00    +0.000 F 
ATOM      9  C   UNL     1       1.821   3.372  18.216  0.00  0.00    +0.000 C 
ATOM     10  C   UNL     1       3.277   2.991  17.930  0.00  0.00    +0.000 C 
ENDROOT
BRANCH   2  11
ATOM     11  C   UNL     1       5.679   4.716  17.102  0.00  0.00    +0.000 A 
ATOM     12  C   UNL     1       5.116   5.913  16.668  0.00  0.00    +0.000 A 
ATOM     13  C   UNL     1       5.408   6.334  15.378  0.00  0.00    +0.000 A 
ATOM     14  N   UNL     1       6.223   5.675  14.520  0.00  0.00    +0.000 NA
ATOM     15  C   UNL     1       6.686   4.482  14.944  0.00  0.00    +0.000 A 
ATOM     16  C   UNL     1       6.369   3.953  16.176  0.00  0.00    +0.000 A 
ENDBRANCH   2  11
BRANCH   9  17
ATOM     17  C   UNL     1       1.502   4.811  17.810  0.00  0.00    +0.000 C 
BRANCH  17  18
ATOM     18  O   UNL     1       2.214   5.784  18.584  0.00  0.00    +0.000 OA
BRANCH  18  19
ATOM     19  C   UNL     1       2.351   7.089  18.030  0.00  0.00    +0.000 C 
BRANCH  19  20
ATOM     20  C   UNL     1       1.879   8.095  19.028  0.00  0.00    +0.000 A 
ATOM     21  C   UNL     1       1.762   7.722  20.374  0.00  0.00    +0.000 A 
ATOM     22  C   UNL     1       1.158   8.581  21.288  0.00  0.00    +0.000 A 
ATOM     23  C   UNL     1       0.670   9.815  20.860  0.00  0.00    +0.000 A 
ATOM     24  C   UNL     1       0.796  10.196  19.525  0.00  0.00    +0.000 A 
ATOM     25  C   UNL     1       1.405   9.343  18.608  0.00  0.00    +0.000 A 
ENDBRANCH  19  20
ENDBRANCH  18  19
ENDBRANCH  17  18
ENDBRANCH   9  17
TORSDOF 5
ENDMDL
MODEL 6
REMARK VINA RESULT:      -7.5      2.713      4.791
REMARK  Name = 
REMARK  5 active torsions:
REMARK  status: ('A' for Active; 'I' for Inactive)
REMARK    1  A    between atoms: C_2  and  C_3
REMARK    2  A    between atoms: C_15  and  C_16
REMARK    3  A    between atoms: C_16  and  O_17
REMARK    4  A    between atoms: O_17  and  C_18
REMARK    5  A    between atoms: C_18  and  C_19
REMARK                            x       y       z     vdW  Elec       q    Type
REMARK                         _______ _______ _______ _____ _____    ______ ____
ROOT
ATOM      1  O   UNL     1       6.452   4.223  19.329  0.00  0.00    +0.000 OA
ATOM      2  C   UNL     1       5.557   4.126  18.490  0.00  0.00    +0.000 C 
ATOM      3  N   UNL     1       4.312   3.526  18.775  0.00  0.00    +0.000 N 
ATOM      4  C   UNL     1       4.017   3.158  20.159  0.00  0.00    +0.000 C 
ATOM      5  C   UNL     1       2.565   3.473  20.498  0.00  0.00    +0.000 C 
ATOM      6  C   UNL     1       1.634   2.845  19.478  0.00  0.00    +0.000 C 
ATOM      7  F   UNL     1       0.355   3.216  19.741  0.00  0.00    +0.000 F 
ATOM      8  F   UNL     1       1.664   1.492  19.638  0.00  0.00    +0.000 F 
ATOM      9  C   UNL     1       1.975   3.158  18.029  0.00  0.00    +0.000 C 
ATOM     10  C   UNL     1       3.456   2.858  17.783  0.00  0.00    +0.000 C 
ENDROOT
BRANCH   2  11
ATOM     11  C   UNL     1       5.806   4.731  17.149  0.00  0.00    +0.000 A 
ATOM     12  C   UNL     1       6.783   4.237  16.289  0.00  0.00    +0.000 A 
ATOM     13  C   UNL     1       6.916   4.842  15.046  0.00  0.00    +0.000 A 
ATOM     14  N   UNL     1       6.145   5.863  14.602  0.00  0.00    +0.000 NA
ATOM     15  C   UNL     1       5.265   6.369  15.490  0.00  0.00    +0.000 A 
ATOM     16  C   UNL     1       5.136   5.882  16.772  0.00  0.00    +0.000 A 
ENDBRANCH   2  11
BRANCH   9  17
ATOM     17  C   UNL     1       1.605   4.602  17.688  0.00  0.00    +0.000 C 
BRANCH  17  18
ATOM     18  O   UNL     1       1.931   5.526  18.733  0.00  0.00    +0.000 OA
BRANCH  18  19
ATOM     19  C   UNL     1       2.637   6.708  18.366  0.00  0.00    +0.000 C 
BRANCH  19  20
ATOM     20  C   UNL     1       1.887   7.899  18.864  0.00  0.00    +0.000 A 
ATOM     21  C   UNL     1       1.619   8.957  17.985  0.00  0.00    +0.000 A 
ATOM     22  C   UNL     1       1.084  10.148  18.467  0.00  0.00    +0.000 A 
ATOM     23  C   UNL     1       0.812  10.285  19.827  0.00  0.00    +0.000 A 
ATOM     24  C   UNL     1       1.064   9.231  20.704  0.00  0.00    +0.000 A 
ATOM     25  C   UNL     1       1.595   8.035  20.226  0.00  0.00    +0.000 A 
ENDBRANCH  19  20
ENDBRANCH  18  19
ENDBRANCH  17  18
ENDBRANCH   9  17
TORSDOF 5
ENDMDL
MODEL 7
REMARK VINA RESULT:      -7.5      0.709      1.246
REMARK  Name = 
REMARK  5 active torsions:
REMARK  status: ('A' for Active; 'I' for Inactive)
REMARK    1  A    between atoms: C_2  and  C_3
REMARK    2  A    between atoms: C_15  and  C_16
REMARK    3  A    between atoms: C_16  and  O_17
REMARK    4  A    between atoms: O_17  and  C_18
REMARK    5  A    between atoms: C_18  and  C_19
REMARK                            x       y       z     vdW  Elec       q    Type
REMARK                         _______ _______ _______ _____ _____    ______ ____
ROOT
ATOM      1  O   UNL     1       3.989   1.606  17.679  0.00  0.00    +0.000 OA
ATOM      2  C   UNL     1       3.846   2.710  18.201  0.00  0.00    +0.000 C 
ATOM      3  N   UNL     1       4.478   3.871  17.707  0.00  0.00    +0.000 N 
ATOM      4  C   UNL     1       5.193   3.786  16.434  0.00  0.00    +0.000 C 
ATOM      5  C   UNL     1       4.955   5.040  15.603  0.00  0.00    +0.000 C 
ATOM      6  C   UNL     1       5.275   6.283  16.412  0.00  0.00    +0.000 C 
ATOM      7  F   UNL     1       4.965   7.389  15.688  0.00  0.00    +0.000 F 
ATOM      8  F   UNL     1       6.623   6.337  16.607  0.00  0.00    +0.000 F 
ATOM      9  C   UNL     1       4.596   6.348  17.772  0.00  0.00    +0.000 C 
ATOM     10  C   UNL     1       4.846   5.038  18.524  0.00  0.00    +0.000 C 
ENDROOT
BRANCH   2  11
ATOM     11  C   UNL     1       2.912   2.803  19.361  0.00  0.00    +0.000 A 
ATOM     12  C   UNL     1       3.332   2.554  20.665  0.00  0.00    +0.000 A 
ATOM     13  C   UNL     1       2.400   2.702  21.684  0.00  0.00    +0.000 A 
ATOM     14  N   UNL     1       1.117   3.098  21.500  0.00  0.00    +0.000 NA
ATOM     15  C   UNL     1       0.724   3.253  20.220  0.00  0.00    +0.000 A 
ATOM     16  C   UNL     1       1.564   3.037  19.150  0.00  0.00    +0.000 A 
ENDBRANCH   2  11
BRANCH   9  17
ATOM     17  C   UNL     1       3.107   6.660  17.617  0.00  0.00    +0.000 C 
BRANCH  17  18
ATOM     18  O   UNL     1       2.665   7.722  18.471  0.00  0.00    +0.000 OA
BRANCH  18  19
ATOM     19  C   UNL     1       2.241   8.931  17.848  0.00  0.00    +0.000 C 
BRANCH  19  20
ATOM     20  C   UNL     1       1.027   9.442  18.550  0.00  0.00    +0.000 A 
ATOM     21  C   UNL     1      -0.113   9.765  17.802  0.00  0.00    +0.000 A 
ATOM     22  C   UNL     1      -1.188  10.409  18.407  0.00  0.00    +0.000 A 
ATOM     23  C   UNL     1      -1.129  10.731  19.762  0.00  0.00    +0.000 A 
ATOM     24  C   UNL     1      -0.002  10.399  20.515  0.00  0.00    +0.000 A 
ATOM     25  C   UNL     1       1.074   9.750  19.915  0.00  0.00    +0.000 A 
ENDBRANCH  19  20
ENDBRANCH  18  19
ENDBRANCH  17  18
ENDBRANCH   9  17
TORSDOF 5
ENDMDL
MODEL 8
REMARK VINA RESULT:      -7.5      2.772      4.890
REMARK  Name = 
REMARK  5 active torsions:
REMARK  status: ('A' for Active; 'I' for Inactive)
REMARK    1  A    between atoms: C_2  and  C_3
REMARK    2  A    between atoms: C_15  and  C_16
REMARK    3  A    between atoms: C_16  and  O_17
REMARK    4  A    between atoms: O_17  and  C_18
REMARK    5  A    between atoms: C_18  and  C_19
REMARK                            x       y       z     vdW  Elec       q    Type
REMARK                         _______ _______ _______ _____ _____    ______ ____
ROOT
ATOM      1  O   UNL     1       6.451   3.986  19.118  0.00  0.00    +0.000 OA
ATOM      2  C   UNL     1       5.475   3.971  18.369  0.00  0.00    +0.000 C 
ATOM      3  N   UNL     1       4.252   3.367  18.730  0.00  0.00    +0.000 N 
ATOM      4  C   UNL     1       4.088   2.891  20.104  0.00  0.00    +0.000 C 
ATOM      5  C   UNL     1       2.685   3.197  20.611  0.00  0.00    +0.000 C 
ATOM      6  C   UNL     1       1.643   2.668  19.644  0.00  0.00    +0.000 C 
ATOM      7  F   UNL     1       0.405   3.034  20.065  0.00  0.00    +0.000 F 
ATOM      8  F   UNL     1       1.659   1.306  19.692  0.00  0.00    +0.000 F 
ATOM      9  C   UNL     1       1.844   3.094  18.198  0.00  0.00    +0.000 C 
ATOM     10  C   UNL     1       3.286   2.794  17.779  0.00  0.00    +0.000 C 
ENDROOT
BRANCH   2  11
ATOM     11  C   UNL     1       5.602   4.680  17.063  0.00  0.00    +0.000 A 
ATOM     12  C   UNL     1       5.011   5.920  16.839  0.00  0.00    +0.000 A 
ATOM     13  C   UNL     1       5.217   6.520  15.603  0.00  0.00    +0.000 A 
ATOM     14  N   UNL     1       5.972   5.995  14.610  0.00  0.00    +0.000 NA
ATOM     15  C   UNL     1       6.463   4.759  14.831  0.00  0.00    +0.000 A 
ATOM     16  C   UNL     1       6.229   4.060  15.995  0.00  0.00    +0.000 A 
ENDBRANCH   2  11
BRANCH   9  17
ATOM     17  C   UNL     1       1.474   4.566  18.012  0.00  0.00    +0.000 C 
BRANCH  17  18
ATOM     18  O   UNL     1       1.682   5.349  19.194  0.00  0.00    +0.000 OA
BRANCH  18  19
ATOM     19  C   UNL     1       2.678   6.365  19.139  0.00  0.00    +0.000 C 
BRANCH  19  20
ATOM     20  C   UNL     1       2.012   7.700  19.073  0.00  0.00    +0.000 A 
ATOM     21  C   UNL     1       2.127   8.466  17.905  0.00  0.00    +0.000 A 
ATOM     22  C   UNL     1       1.669   9.780  17.883  0.00  0.00    +0.000 A 
ATOM     23  C   UNL     1       1.094  10.333  19.027  0.00  0.00    +0.000 A 
ATOM     24  C   UNL     1       0.965   9.570  20.187  0.00  0.00    +0.000 A 
ATOM     25  C   UNL     1       1.416   8.252  20.213  0.00  0.00    +0.000 A 
ENDBRANCH  19  20
ENDBRANCH  18  19
ENDBRANCH  17  18
ENDBRANCH   9  17
TORSDOF 5
ENDMDL
MODEL 9
REMARK VINA RESULT:      -7.5      3.879      6.251
REMARK  Name = 
REMARK  5 active torsions:
REMARK  status: ('A' for Active; 'I' for Inactive)
REMARK    1  A    between atoms: C_2  and  C_3
REMARK    2  A    between atoms: C_15  and  C_16
REMARK    3  A    between atoms: C_16  and  O_17
REMARK    4  A    between atoms: O_17  and  C_18
REMARK    5  A    between atoms: C_18  and  C_19
REMARK                            x       y       z     vdW  Elec       q    Type
REMARK                         _______ _______ _______ _____ _____    ______ ____
ROOT
ATOM      1  O   UNL     1       7.829   5.635  13.574  0.00  0.00    +0.000 OA
ATOM      2  C   UNL     1       7.011   4.822  14.003  0.00  0.00    +0.000 C 
ATOM      3  N   UNL     1       6.625   4.778  15.359  0.00  0.00    +0.000 N 
ATOM      4  C   UNL     1       7.089   5.841  16.250  0.00  0.00    +0.000 C 
ATOM      5  C   UNL     1       5.983   6.251  17.214  0.00  0.00    +0.000 C 
ATOM      6  C   UNL     1       5.429   5.036  17.934  0.00  0.00    +0.000 C 
ATOM      7  F   UNL     1       4.382   5.409  18.715  0.00  0.00    +0.000 F 
ATOM      8  F   UNL     1       6.379   4.570  18.793  0.00  0.00    +0.000 F 
ATOM      9  C   UNL     1       5.011   3.892  17.022  0.00  0.00    +0.000 C 
ATOM     10  C   UNL     1       6.158   3.571  16.060  0.00  0.00    +0.000 C 
ENDROOT
BRANCH   2  11
ATOM     11  C   UNL     1       6.374   3.905  13.014  0.00  0.00    +0.000 A 
ATOM     12  C   UNL     1       7.112   2.960  12.306  0.00  0.00    +0.000 A 
ATOM     13  C   UNL     1       6.426   2.124  11.435  0.00  0.00    +0.000 A 
ATOM     14  N   UNL     1       5.085   2.147  11.244  0.00  0.00    +0.000 NA
ATOM     15  C   UNL     1       4.413   3.126  11.883  0.00  0.00    +0.000 A 
ATOM     16  C   UNL     1       5.035   4.049  12.695  0.00  0.00    +0.000 A 
ENDBRANCH   2  11
BRANCH   9  17
ATOM     17  C   UNL     1       3.711   4.230  16.293  0.00  0.00    +0.000 C 
BRANCH  17  18
ATOM     18  O   UNL     1       2.608   3.415  16.708  0.00  0.00    +0.000 OA
BRANCH  18  19
ATOM     19  C   UNL     1       2.886   2.343  17.605  0.00  0.00    +0.000 C 
BRANCH  19  20
ATOM     20  C   UNL     1       2.495   2.750  18.987  0.00  0.00    +0.000 A 
ATOM     21  C   UNL     1       3.330   2.415  20.062  0.00  0.00    +0.000 A 
ATOM     22  C   UNL     1       2.904   2.623  21.370  0.00  0.00    +0.000 A 
ATOM     23  C   UNL     1       1.644   3.168  21.610  0.00  0.00    +0.000 A 
ATOM     24  C   UNL     1       0.814   3.516  20.544  0.00  0.00    +0.000 A 
ATOM     25  C   UNL     1       1.239   3.315  19.232  0.00  0.00    +0.000 A 
ENDBRANCH  19  20
ENDBRANCH  18  19
ENDBRANCH  17  18
ENDBRANCH   9  17
TORSDOF 5
ENDMDL
