MODEL 1
REMARK VINA RESULT:      -9.5      0.000      0.000
REMARK  Name = 
REMARK  6 active torsions:
REMARK  status: ('A' for Active; 'I' for Inactive)
REMARK    1  A    between atoms: C_1  and  C_2
REMARK    2  A    between atoms: C_5  and  C_6
REMARK    3  A    between atoms: C_9  and  C_10
REMARK    4  A    between atoms: C_10  and  N_11
REMARK    5  A    between atoms: N_11  and  C_12
REMARK    6  A    between atoms: C_12  and  C_13
REMARK                            x       y       z     vdW  Elec       q    Type
REMARK                         _______ _______ _______ _____ _____    ______ ____
ROOT
ATOM      1  C   UNL     1       3.113   4.513  18.663  0.00  0.00    +0.000 C 
ATOM      2  C   UNL     1       2.957   3.684  19.958  0.00  0.00    +0.000 C 
ATOM      3  C   UNL     1       2.724   2.243  19.526  0.00  0.00    +0.000 C 
ATOM      4  C   UNL     1       2.098   2.319  18.140  0.00  0.00    +0.000 C 
ATOM      5  C   UNL     1       2.091   3.795  17.747  0.00  0.00    +0.000 C 
ENDROOT
BRANCH   1   9
ATOM      6  C   UNL     1       1.851   7.813  19.559  0.00  0.00    +0.000 A 
ATOM      7  C   UNL     1       2.488   8.109  18.374  0.00  0.00    +0.000 A 
ATOM      8  N   UNL     1       3.025   6.935  17.947  0.00  0.00    +0.000 N 
ATOM      9  C   UNL     1       2.700   5.957  18.856  0.00  0.00    +0.000 A 
ATOM     10  N   UNL     1       1.974   6.467  19.835  0.00  0.00    +0.000 NA
ATOM     11  H   UNL     1       3.540   6.791  17.089  0.00  0.00    +0.000 HD
BRANCH   6  16
ATOM     12  C   UNL     1      -1.019  11.518  22.940  0.00  0.00    +0.000 C 
ATOM     13  C   UNL     1      -0.269  10.566  22.060  0.00  0.00    +0.000 A 
ATOM     14  C   UNL     1      -0.248  10.745  20.673  0.00  0.00    +0.000 A 
ATOM     15  C   UNL     1       0.446   9.848  19.854  0.00  0.00    +0.000 A 
ATOM     16  C   UNL     1       1.133   8.757  20.404  0.00  0.00    +0.000 A 
ATOM     17  C   UNL     1       1.113   8.585  21.790  0.00  0.00    +0.000 A 
ATOM     18  C   UNL     1       0.420   9.481  22.612  0.00  0.00    +0.000 A 
ENDBRANCH   6  16
ENDBRANCH   1   9
BRANCH   1  19
ATOM     19  N   UNL     1       4.470   4.406  18.069  0.00  0.00    +0.000 NA
ATOM     20  H   UNL     1       4.961   3.665  18.573  0.00  0.00    +0.000 HD
BRANCH  19  21
ATOM     21  C   UNL     1       4.463   4.041  16.651  0.00  0.00    +0.000 C 
BRANCH  21  22
ATOM     22  C   UNL     1       5.693   4.548  15.968  0.00  0.00    +0.000 A 
ATOM     23  C   UNL     1       6.627   5.420  16.493  0.00  0.00    +0.000 A 
ATOM     24  N   UNL     1       7.533   5.726  15.514  0.00  0.00    +0.000 N 
ATOM     25  C   UNL     1       7.207   5.079  14.345  0.00  0.00    +0.000 A 
ATOM     26  C   UNL     1       7.827   5.121  13.088  0.00  0.00    +0.000 A 
ATOM     27  C   UNL     1       7.263   4.357  12.062  0.00  0.00    +0.000 A 
ATOM     28  C   UNL     1       6.128   3.582  12.286  0.00  0.00    +0.000 A 
ATOM     29  C   UNL     1       5.522   3.552  13.548  0.00  0.00    +0.000 A 
ATOM     30  C   UNL     1       6.068   4.316  14.601  0.00  0.00    +0.000 A 
ATOM     31  H   UNL     1       8.313   6.357  15.620  0.00  0.00    +0.000 HD
ENDBRANCH  21  22
ENDBRANCH  19  21
ENDBRANCH   1  19
TORSDOF 5
ENDMDL
MODEL 2
REMARK VINA RESULT:      -9.2      2.846      8.870
REMARK  Name = 
REMARK  6 active torsions:
REMARK  status: ('A' for Active; 'I' for Inactive)
REMARK    1  A    between atoms: C_1  and  C_2
REMARK    2  A    between atoms: C_5  and  C_6
REMARK    3  A    between atoms: C_9  and  C_10
REMARK    4  A    between atoms: C_10  and  N_11
REMARK    5  A    between atoms: N_11  and  C_12
REMARK    6  A    between atoms: C_12  and  C_13
REMARK                            x       y       z     vdW  Elec       q    Type
REMARK                         _______ _______ _______ _____ _____    ______ ____
ROOT
ATOM      1  C   UNL     1       1.052   8.684  20.913  0.00  0.00    +0.000 C 
ATOM      2  C   UNL     1      -0.381   8.265  21.318  0.00  0.00    +0.000 C 
ATOM      3  C   UNL     1      -0.781   9.158  22.484  0.00  0.00    +0.000 C 
ATOM      4  C   UNL     1       0.519   9.570  23.161  0.00  0.00    +0.000 C 
ATOM      5  C   UNL     1       1.651   9.006  22.305  0.00  0.00    +0.000 C 
ENDROOT
BRANCH   1   9
ATOM      6  C   UNL     1       2.985   6.280  18.971  0.00  0.00    +0.000 A 
ATOM      7  C   UNL     1       2.612   5.490  20.036  0.00  0.00    +0.000 A 
ATOM      8  N   UNL     1       1.888   6.300  20.854  0.00  0.00    +0.000 N 
ATOM      9  C   UNL     1       1.821   7.545  20.277  0.00  0.00    +0.000 A 
ATOM     10  N   UNL     1       2.468   7.550  19.125  0.00  0.00    +0.000 NA
ATOM     11  H   UNL     1       1.439   6.029  21.717  0.00  0.00    +0.000 HD
BRANCH   6  16
ATOM     12  C   UNL     1       6.197   4.573  14.481  0.00  0.00    +0.000 C 
ATOM     13  C   UNL     1       5.358   5.022  15.638  0.00  0.00    +0.000 A 
ATOM     14  C   UNL     1       5.244   6.380  15.949  0.00  0.00    +0.000 A 
ATOM     15  C   UNL     1       4.467   6.794  17.037  0.00  0.00    +0.000 A 
ATOM     16  C   UNL     1       3.788   5.859  17.832  0.00  0.00    +0.000 A 
ATOM     17  C   UNL     1       3.903   4.504  17.514  0.00  0.00    +0.000 A 
ATOM     18  C   UNL     1       4.679   4.087  16.426  0.00  0.00    +0.000 A 
ENDBRANCH   6  16
ENDBRANCH   1   9
BRANCH   1  19
ATOM     19  N   UNL     1       1.079   9.904  20.069  0.00  0.00    +0.000 NA
ATOM     20  H   UNL     1       2.057  10.086  19.835  0.00  0.00    +0.000 HD
BRANCH  19  21
ATOM     21  C   UNL     1       0.346   9.762  18.808  0.00  0.00    +0.000 C 
BRANCH  21  22
ATOM     22  C   UNL     1      -0.860  10.644  18.795  0.00  0.00    +0.000 A 
ATOM     23  C   UNL     1      -1.231  11.549  19.772  0.00  0.00    +0.000 A 
ATOM     24  N   UNL     1      -2.453  12.069  19.439  0.00  0.00    +0.000 N 
ATOM     25  C   UNL     1      -2.902  11.515  18.263  0.00  0.00    +0.000 A 
ATOM     26  C   UNL     1      -4.102  11.724  17.569  0.00  0.00    +0.000 A 
ATOM     27  C   UNL     1      -4.299  11.006  16.386  0.00  0.00    +0.000 A 
ATOM     28  C   UNL     1      -3.334  10.118  15.917  0.00  0.00    +0.000 A 
ATOM     29  C   UNL     1      -2.141   9.922  16.624  0.00  0.00    +0.000 A 
ATOM     30  C   UNL     1      -1.917  10.631  17.823  0.00  0.00    +0.000 A 
ATOM     31  H   UNL     1      -2.968  12.741  19.989  0.00  0.00    +0.000 HD
ENDBRANCH  21  22
ENDBRANCH  19  21
ENDBRANCH   1  19
TORSDOF 5
ENDMDL
MODEL 3
REMARK VINA RESULT:      -9.0      4.149      7.415
REMARK  Name = 
REMARK  6 active torsions:
REMARK  status: ('A' for Active; 'I' for Inactive)
REMARK    1  A    between atoms: C_1  and  C_2
REMARK    2  A    between atoms: C_5  and  C_6
REMARK    3  A    between atoms: C_9  and  C_10
REMARK    4  A    between atoms: C_10  and  N_11
REMARK    5  A    between atoms: N_11  and  C_12
REMARK    6  A    between atoms: C_12  and  C_13
REMARK                            x       y       z     vdW  Elec       q    Type
REMARK                         _______ _______ _______ _____ _____    ______ ____
ROOT
ATOM      1  C   UNL     1       6.325   6.091  17.090  0.00  0.00    +0.000 C 
ATOM      2  C   UNL     1       5.757   6.515  15.716  0.00  0.00    +0.000 C 
ATOM      3  C   UNL     1       5.488   5.232  14.943  0.00  0.00    +0.000 C 
ATOM      4  C   UNL     1       6.448   4.194  15.507  0.00  0.00    +0.000 C 
ATOM      5  C   UNL     1       7.171   4.861  16.675  0.00  0.00    +0.000 C 
ENDROOT
BRANCH   1   9
ATOM      6  C   UNL     1       8.319   8.959  18.131  0.00  0.00    +0.000 A 
ATOM      7  C   UNL     1       8.752   8.018  19.040  0.00  0.00    +0.000 A 
ATOM      8  N   UNL     1       8.049   6.889  18.756  0.00  0.00    +0.000 N 
ATOM      9  C   UNL     1       7.224   7.152  17.689  0.00  0.00    +0.000 A 
ATOM     10  N   UNL     1       7.384   8.399  17.285  0.00  0.00    +0.000 NA
ATOM     11  H   UNL     1       8.142   5.996  19.219  0.00  0.00    +0.000 HD
BRANCH   6  16
ATOM     12  C   UNL     1      10.110  14.439  17.736  0.00  0.00    +0.000 C 
ATOM     13  C   UNL     1       9.648  13.018  17.850  0.00  0.00    +0.000 A 
ATOM     14  C   UNL     1      10.506  12.028  18.336  0.00  0.00    +0.000 A 
ATOM     15  C   UNL     1      10.073  10.701  18.431  0.00  0.00    +0.000 A 
ATOM     16  C   UNL     1       8.775  10.339  18.044  0.00  0.00    +0.000 A 
ATOM     17  C   UNL     1       7.920  11.333  17.563  0.00  0.00    +0.000 A 
ATOM     18  C   UNL     1       8.350  12.662  17.467  0.00  0.00    +0.000 A 
ENDBRANCH   6  16
ENDBRANCH   1   9
BRANCH   1  19
ATOM     19  N   UNL     1       5.269   5.665  18.043  0.00  0.00    +0.000 NA
ATOM     20  H   UNL     1       5.651   5.776  18.985  0.00  0.00    +0.000 HD
BRANCH  19  21
ATOM     21  C   UNL     1       4.049   6.472  17.968  0.00  0.00    +0.000 C 
BRANCH  21  22
ATOM     22  C   UNL     1       2.974   5.888  18.827  0.00  0.00    +0.000 A 
ATOM     23  C   UNL     1       2.410   6.465  19.949  0.00  0.00    +0.000 A 
ATOM     24  N   UNL     1       1.550   5.563  20.514  0.00  0.00    +0.000 N 
ATOM     25  C   UNL     1       1.543   4.393  19.791  0.00  0.00    +0.000 A 
ATOM     26  C   UNL     1       0.845   3.199  20.015  0.00  0.00    +0.000 A 
ATOM     27  C   UNL     1       1.041   2.154  19.107  0.00  0.00    +0.000 A 
ATOM     28  C   UNL     1       1.899   2.300  18.020  0.00  0.00    +0.000 A 
ATOM     29  C   UNL     1       2.589   3.501  17.812  0.00  0.00    +0.000 A 
ATOM     30  C   UNL     1       2.412   4.571  18.714  0.00  0.00    +0.000 A 
ATOM     31  H   UNL     1       1.017   5.718  21.357  0.00  0.00    +0.000 HD
ENDBRANCH  21  22
ENDBRANCH  19  21
ENDBRANCH   1  19
TORSDOF 5
ENDMDL
MODEL 4
REMARK VINA RESULT:      -9.0      1.191      1.496
REMARK  Name = 
REMARK  6 active torsions:
REMARK  status: ('A' for Active; 'I' for Inactive)
REMARK    1  A    between atoms: C_1  and  C_2
REMARK    2  A    between atoms: C_5  and  C_6
REMARK    3  A    between atoms: C_9  and  C_10
REMARK    4  A    between atoms: C_10  and  N_11
REMARK    5  A    between atoms: N_11  and  C_12
REMARK    6  A    between atoms: C_12  and  C_13
REMARK                            x       y       z     vdW  Elec       q    Type
REMARK                         _______ _______ _______ _____ _____    ______ ____
ROOT
ATOM      1  C   UNL     1       2.540   4.707  20.023  0.00  0.00    +0.000 C 
ATOM      2  C   UNL     1       2.142   4.057  21.369  0.00  0.00    +0.000 C 
ATOM      3  C   UNL     1       1.892   2.584  21.083  0.00  0.00    +0.000 C 
ATOM      4  C   UNL     1       1.488   2.504  19.618  0.00  0.00    +0.000 C 
ATOM      5  C   UNL     1       1.626   3.917  19.052  0.00  0.00    +0.000 C 
ENDROOT
BRANCH   1   9
ATOM      6  C   UNL     1       1.417   8.159  20.354  0.00  0.00    +0.000 A 
ATOM      7  C   UNL     1       2.065   8.228  19.141  0.00  0.00    +0.000 A 
ATOM      8  N   UNL     1       2.552   6.978  18.916  0.00  0.00    +0.000 N 
ATOM      9  C   UNL     1       2.187   6.178  19.973  0.00  0.00    +0.000 A 
ATOM     10  N   UNL     1       1.484   6.873  20.850  0.00  0.00    +0.000 NA
ATOM     11  H   UNL     1       3.059   6.673  18.098  0.00  0.00    +0.000 HD
BRANCH   6  16
ATOM     12  C   UNL     1      -1.310  12.490  23.037  0.00  0.00    +0.000 C 
ATOM     13  C   UNL     1      -0.594  11.373  22.342  0.00  0.00    +0.000 A 
ATOM     14  C   UNL     1       0.055  11.593  21.123  0.00  0.00    +0.000 A 
ATOM     15  C   UNL     1       0.715  10.545  20.473  0.00  0.00    +0.000 A 
ATOM     16  C   UNL     1       0.740   9.258  21.028  0.00  0.00    +0.000 A 
ATOM     17  C   UNL     1       0.094   9.044  22.248  0.00  0.00    +0.000 A 
ATOM     18  C   UNL     1      -0.566  10.091  22.901  0.00  0.00    +0.000 A 
ENDBRANCH   6  16
ENDBRANCH   1   9
BRANCH   1  19
ATOM     19  N   UNL     1       3.961   4.471  19.667  0.00  0.00    +0.000 NA
ATOM     20  H   UNL     1       4.339   3.817  20.355  0.00  0.00    +0.000 HD
BRANCH  19  21
ATOM     21  C   UNL     1       4.143   3.867  18.345  0.00  0.00    +0.000 C 
BRANCH  21  22
ATOM     22  C   UNL     1       5.434   4.309  17.734  0.00  0.00    +0.000 A 
ATOM     23  C   UNL     1       6.501   4.890  18.393  0.00  0.00    +0.000 A 
ATOM     24  N   UNL     1       7.438   5.253  17.463  0.00  0.00    +0.000 N 
ATOM     25  C   UNL     1       7.004   4.932  16.198  0.00  0.00    +0.000 A 
ATOM     26  C   UNL     1       7.613   5.145  14.954  0.00  0.00    +0.000 A 
ATOM     27  C   UNL     1       6.926   4.718  13.814  0.00  0.00    +0.000 A 
ATOM     28  C   UNL     1       5.682   4.102  13.917  0.00  0.00    +0.000 A 
ATOM     29  C   UNL     1       5.087   3.897  15.168  0.00  0.00    +0.000 A 
ATOM     30  C   UNL     1       5.757   4.321  16.335  0.00  0.00    +0.000 A 
ATOM     31  H   UNL     1       8.312   5.716  17.667  0.00  0.00    +0.000 HD
ENDBRANCH  21  22
ENDBRANCH  19  21
ENDBRANCH   1  19
TORSDOF 5
ENDMDL
MODEL 5
REMARK VINA RESULT:      -8.9      1.244      1.978
REMARK  Name = 
REMARK  6 active torsions:
REMARK  status: ('A' for Active; 'I' for Inactive)
REMARK    1  A    between atoms: C_1  and  C_2
REMARK    2  A    between atoms: C_5  and  C_6
REMARK    3  A    between atoms: C_9  and  C_10
REMARK    4  A    between atoms: C_10  and  N_11
REMARK    5  A    between atoms: N_11  and  C_12
REMARK    6  A    between atoms: C_12  and  C_13
REMARK                            x       y       z     vdW  Elec       q    Type
REMARK                         _______ _______ _______ _____ _____    ______ ____
ROOT
ATOM      1  C   UNL     1       3.964   3.491  18.920  0.00  0.00    +0.000 C 
ATOM      2  C   UNL     1       4.442   2.606  20.094  0.00  0.00    +0.000 C 
ATOM      3  C   UNL     1       4.634   1.205  19.531  0.00  0.00    +0.000 C 
ATOM      4  C   UNL     1       3.697   1.102  18.336  0.00  0.00    +0.000 C 
ATOM      5  C   UNL     1       3.069   2.483  18.157  0.00  0.00    +0.000 C 
ENDROOT
BRANCH   1   9
ATOM      6  C   UNL     1       2.195   6.590  19.668  0.00  0.00    +0.000 A 
ATOM      7  C   UNL     1       1.725   5.789  20.685  0.00  0.00    +0.000 A 
ATOM      8  N   UNL     1       2.312   4.577  20.495  0.00  0.00    +0.000 N 
ATOM      9  C   UNL     1       3.128   4.662  19.391  0.00  0.00    +0.000 A 
ATOM     10  N   UNL     1       3.083   5.881  18.884  0.00  0.00    +0.000 NA
ATOM     11  H   UNL     1       2.205   3.763  21.082  0.00  0.00    +0.000 HD
BRANCH   6  16
ATOM     12  C   UNL     1       0.735  12.111  18.784  0.00  0.00    +0.000 C 
ATOM     13  C   UNL     1       1.124  10.682  19.012  0.00  0.00    +0.000 A 
ATOM     14  C   UNL     1       1.794   9.961  18.019  0.00  0.00    +0.000 A 
ATOM     15  C   UNL     1       2.147   8.624  18.232  0.00  0.00    +0.000 A 
ATOM     16  C   UNL     1       1.840   7.984  19.440  0.00  0.00    +0.000 A 
ATOM     17  C   UNL     1       1.174   8.710  20.430  0.00  0.00    +0.000 A 
ATOM     18  C   UNL     1       0.820  10.048  20.220  0.00  0.00    +0.000 A 
ENDBRANCH   6  16
ENDBRANCH   1   9
BRANCH   1  19
ATOM     19  N   UNL     1       5.075   3.930  18.040  0.00  0.00    +0.000 NA
ATOM     20  H   UNL     1       5.801   3.213  18.091  0.00  0.00    +0.000 HD
BRANCH  19  21
ATOM     21  C   UNL     1       4.692   4.065  16.632  0.00  0.00    +0.000 C 
BRANCH  21  22
ATOM     22  C   UNL     1       5.851   4.529  15.810  0.00  0.00    +0.000 A 
ATOM     23  C   UNL     1       6.833   5.420  16.199  0.00  0.00    +0.000 A 
ATOM     24  N   UNL     1       7.641   5.670  15.123  0.00  0.00    +0.000 N 
ATOM     25  C   UNL     1       7.203   4.969  14.024  0.00  0.00    +0.000 A 
ATOM     26  C   UNL     1       7.699   4.944  12.713  0.00  0.00    +0.000 A 
ATOM     27  C   UNL     1       7.037   4.134  11.785  0.00  0.00    +0.000 A 
ATOM     28  C   UNL     1       5.928   3.379  12.156  0.00  0.00    +0.000 A 
ATOM     29  C   UNL     1       5.446   3.416  13.471  0.00  0.00    +0.000 A 
ATOM     30  C   UNL     1       6.092   4.227  14.427  0.00  0.00    +0.000 A 
ATOM     31  H   UNL     1       8.429   6.301  15.121  0.00  0.00    +0.000 HD
ENDBRANCH  21  22
ENDBRANCH  19  21
ENDBRANCH   1  19
TORSDOF 5
ENDMDL
MODEL 6
REMARK VINA RESULT:      -8.9      3.770      7.236
REMARK  Name = 
REMARK  6 active torsions:
REMARK  status: ('A' for Active; 'I' for Inactive)
REMARK    1  A    between atoms: C_1  and  C_2
REMARK    2  A    between atoms: C_5  and  C_6
REMARK    3  A    between atoms: C_9  and  C_10
REMARK    4  A    between atoms: C_10  and  N_11
REMARK    5  A    between atoms: N_11  and  C_12
REMARK    6  A    between atoms: C_12  and  C_13
REMARK                            x       y       z     vdW  Elec       q    Type
REMARK                         _______ _______ _______ _____ _____    ______ ____
ROOT
ATOM      1  C   UNL     1       6.567   5.360  16.342  0.00  0.00    +0.000 C 
ATOM      2  C   UNL     1       5.488   6.018  15.451  0.00  0.00    +0.000 C 
ATOM      3  C   UNL     1       5.392   5.171  14.189  0.00  0.00    +0.000 C 
ATOM      4  C   UNL     1       6.751   4.506  14.027  0.00  0.00    +0.000 C 
ATOM      5  C   UNL     1       7.569   4.885  15.260  0.00  0.00    +0.000 C 
ENDROOT
BRANCH   1   9
ATOM      6  C   UNL     1       8.112   8.123  18.148  0.00  0.00    +0.000 A 
ATOM      7  C   UNL     1       8.334   7.096  19.038  0.00  0.00    +0.000 A 
ATOM      8  N   UNL     1       7.774   5.995  18.469  0.00  0.00    +0.000 N 
ATOM      9  C   UNL     1       7.240   6.361  17.257  0.00  0.00    +0.000 A 
ATOM     10  N   UNL     1       7.448   7.647  17.036  0.00  0.00    +0.000 NA
ATOM     11  H   UNL     1       7.781   5.058  18.848  0.00  0.00    +0.000 HD
BRANCH   6  16
ATOM     12  C   UNL     1       9.741  13.631  18.787  0.00  0.00    +0.000 C 
ATOM     13  C   UNL     1       9.314  12.203  18.631  0.00  0.00    +0.000 A 
ATOM     14  C   UNL     1       9.789  11.220  19.505  0.00  0.00    +0.000 A 
ATOM     15  C   UNL     1       9.395   9.887  19.350  0.00  0.00    +0.000 A 
ATOM     16  C   UNL     1       8.520   9.511  18.322  0.00  0.00    +0.000 A 
ATOM     17  C   UNL     1       8.046  10.497  17.455  0.00  0.00    +0.000 A 
ATOM     18  C   UNL     1       8.437  11.833  17.608  0.00  0.00    +0.000 A 
ENDBRANCH   6  16
ENDBRANCH   1   9
BRANCH   1  19
ATOM     19  N   UNL     1       6.057   4.186  17.093  0.00  0.00    +0.000 NA
ATOM     20  H   UNL     1       6.245   4.358  18.083  0.00  0.00    +0.000 HD
BRANCH  19  21
ATOM     21  C   UNL     1       4.614   3.980  16.952  0.00  0.00    +0.000 C 
BRANCH  21  22
ATOM     22  C   UNL     1       3.894   4.407  18.190  0.00  0.00    +0.000 A 
ATOM     23  C   UNL     1       4.315   5.357  19.102  0.00  0.00    +0.000 A 
ATOM     24  N   UNL     1       3.435   5.371  20.151  0.00  0.00    +0.000 N 
ATOM     25  C   UNL     1       2.445   4.437  19.954  0.00  0.00    +0.000 A 
ATOM     26  C   UNL     1       1.363   4.085  20.772  0.00  0.00    +0.000 A 
ATOM     27  C   UNL     1       0.507   3.077  20.316  0.00  0.00    +0.000 A 
ATOM     28  C   UNL     1       0.725   2.452  19.092  0.00  0.00    +0.000 A 
ATOM     29  C   UNL     1       1.812   2.817  18.287  0.00  0.00    +0.000 A 
ATOM     30  C   UNL     1       2.693   3.829  18.724  0.00  0.00    +0.000 A 
ATOM     31  H   UNL     1       3.513   5.959  20.968  0.00  0.00    +0.000 HD
ENDBRANCH  21  22
ENDBRANCH  19  21
ENDBRANCH   1  19
TORSDOF 5
ENDMDL
MODEL 7
REMARK VINA RESULT:      -8.9      3.838      7.345
REMARK  Name = 
REMARK  6 active torsions:
REMARK  status: ('A' for Active; 'I' for Inactive)
REMARK    1  A    between atoms: C_1  and  C_2
REMARK    2  A    between atoms: C_5  and  C_6
REMARK    3  A    between atoms: C_9  and  C_10
REMARK    4  A    between atoms: C_10  and  N_11
REMARK    5  A    between atoms: N_11  and  C_12
REMARK    6  A    between atoms: C_12  and  C_13
REMARK                            x       y       z     vdW  Elec       q    Type
REMARK                         _______ _______ _______ _____ _____    ______ ____
ROOT
ATOM      1  C   UNL     1       6.191   5.604  16.878  0.00  0.00    +0.000 C 
ATOM      2  C   UNL     1       5.502   6.201  15.629  0.00  0.00    +0.000 C 
ATOM      3  C   UNL     1       5.268   5.044  14.668  0.00  0.00    +0.000 C 
ATOM      4  C   UNL     1       6.334   4.008  14.994  0.00  0.00    +0.000 C 
ATOM      5  C   UNL     1       7.089   4.530  16.214  0.00  0.00    +0.000 C 
ENDROOT
BRANCH   1   9
ATOM      6  C   UNL     1       8.114   8.395  18.221  0.00  0.00    +0.000 A 
ATOM      7  C   UNL     1       8.519   7.389  19.070  0.00  0.00    +0.000 A 
ATOM      8  N   UNL     1       7.839   6.281  18.670  0.00  0.00    +0.000 N 
ATOM      9  C   UNL     1       7.055   6.621  17.594  0.00  0.00    +0.000 A 
ATOM     10  N   UNL     1       7.219   7.898  17.295  0.00  0.00    +0.000 NA
ATOM     11  H   UNL     1       7.922   5.355  19.065  0.00  0.00    +0.000 HD
BRANCH   6  16
ATOM     12  C   UNL     1       9.884  13.892  18.429  0.00  0.00    +0.000 C 
ATOM     13  C   UNL     1       9.428  12.467  18.364  0.00  0.00    +0.000 A 
ATOM     14  C   UNL     1       8.367  12.097  17.531  0.00  0.00    +0.000 A 
ATOM     15  C   UNL     1       7.938  10.767  17.481  0.00  0.00    +0.000 A 
ATOM     16  C   UNL     1       8.560   9.781  18.260  0.00  0.00    +0.000 A 
ATOM     17  C   UNL     1       9.621  10.155  19.088  0.00  0.00    +0.000 A 
ATOM     18  C   UNL     1      10.054  11.485  19.139  0.00  0.00    +0.000 A 
ENDBRANCH   6  16
ENDBRANCH   1   9
BRANCH   1  19
ATOM     19  N   UNL     1       5.237   4.946  17.805  0.00  0.00    +0.000 NA
ATOM     20  H   UNL     1       5.433   5.303  18.742  0.00  0.00    +0.000 HD
BRANCH  19  21
ATOM     21  C   UNL     1       3.832   5.243  17.510  0.00  0.00    +0.000 C 
BRANCH  21  22
ATOM     22  C   UNL     1       3.192   5.961  18.653  0.00  0.00    +0.000 A 
ATOM     23  C   UNL     1       2.951   5.453  19.916  0.00  0.00    +0.000 A 
ATOM     24  N   UNL     1       2.245   6.384  20.630  0.00  0.00    +0.000 N 
ATOM     25  C   UNL     1       2.004   7.495  19.857  0.00  0.00    +0.000 A 
ATOM     26  C   UNL     1       1.300   8.668  20.159  0.00  0.00    +0.000 A 
ATOM     27  C   UNL     1       1.204   9.642  19.161  0.00  0.00    +0.000 A 
ATOM     28  C   UNL     1       1.792   9.450  17.914  0.00  0.00    +0.000 A 
ATOM     29  C   UNL     1       2.492   8.271  17.628  0.00  0.00    +0.000 A 
ATOM     30  C   UNL     1       2.601   7.270  18.616  0.00  0.00    +0.000 A 
ATOM     31  H   UNL     1       1.920   6.265  21.578  0.00  0.00    +0.000 HD
ENDBRANCH  21  22
ENDBRANCH  19  21
ENDBRANCH   1  19
TORSDOF 5
ENDMDL
MODEL 8
REMARK VINA RESULT:      -8.8      1.121      1.797
REMARK  Name = 
REMARK  6 active torsions:
REMARK  status: ('A' for Active; 'I' for Inactive)
REMARK    1  A    between atoms: C_1  and  C_2
REMARK    2  A    between atoms: C_5  and  C_6
REMARK    3  A    between atoms: C_9  and  C_10
REMARK    4  A    between atoms: C_10  and  N_11
REMARK    5  A    between atoms: N_11  and  C_12
REMARK    6  A    between atoms: C_12  and  C_13
REMARK                            x       y       z     vdW  Elec       q    Type
REMARK                         _______ _______ _______ _____ _____    ______ ____
ROOT
ATOM      1  C   UNL     1       3.158   4.321  18.716  0.00  0.00    +0.000 C 
ATOM      2  C   UNL     1       3.282   3.212  19.787  0.00  0.00    +0.000 C 
ATOM      3  C   UNL     1       3.170   1.884  19.052  0.00  0.00    +0.000 C 
ATOM      4  C   UNL     1       2.359   2.168  17.796  0.00  0.00    +0.000 C 
ATOM      5  C   UNL     1       2.118   3.676  17.767  0.00  0.00    +0.000 C 
ENDROOT
BRANCH   1   9
ATOM      6  C   UNL     1       1.925   7.632  19.612  0.00  0.00    +0.000 A 
ATOM      7  C   UNL     1       1.795   6.987  20.822  0.00  0.00    +0.000 A 
ATOM      8  N   UNL     1       2.216   5.713  20.603  0.00  0.00    +0.000 N 
ATOM      9  C   UNL     1       2.601   5.607  19.288  0.00  0.00    +0.000 A 
ATOM     10  N   UNL     1       2.447   6.766  18.672  0.00  0.00    +0.000 NA
ATOM     11  H   UNL     1       2.276   4.977  21.292  0.00  0.00    +0.000 HD
BRANCH   6  16
ATOM     12  C   UNL     1       0.532  13.137  18.542  0.00  0.00    +0.000 C 
ATOM     13  C   UNL     1       0.903  11.713  18.821  0.00  0.00    +0.000 A 
ATOM     14  C   UNL     1       1.812  11.041  17.997  0.00  0.00    +0.000 A 
ATOM     15  C   UNL     1       2.150   9.708  18.255  0.00  0.00    +0.000 A 
ATOM     16  C   UNL     1       1.587   9.022  19.341  0.00  0.00    +0.000 A 
ATOM     17  C   UNL     1       0.682   9.699  20.162  0.00  0.00    +0.000 A 
ATOM     18  C   UNL     1       0.344  11.033  19.907  0.00  0.00    +0.000 A 
ENDBRANCH   6  16
ENDBRANCH   1   9
BRANCH   1  19
ATOM     19  N   UNL     1       4.425   4.552  17.978  0.00  0.00    +0.000 NA
ATOM     20  H   UNL     1       5.094   3.851  18.301  0.00  0.00    +0.000 HD
BRANCH  19  21
ATOM     21  C   UNL     1       4.296   4.397  16.527  0.00  0.00    +0.000 C 
BRANCH  21  22
ATOM     22  C   UNL     1       5.572   4.763  15.840  0.00  0.00    +0.000 A 
ATOM     23  C   UNL     1       6.556   5.606  16.322  0.00  0.00    +0.000 A 
ATOM     24  N   UNL     1       7.501   5.771  15.346  0.00  0.00    +0.000 N 
ATOM     25  C   UNL     1       7.154   5.061  14.221  0.00  0.00    +0.000 A 
ATOM     26  C   UNL     1       7.801   4.962  12.982  0.00  0.00    +0.000 A 
ATOM     27  C   UNL     1       7.205   4.162  12.001  0.00  0.00    +0.000 A 
ATOM     28  C   UNL     1       6.013   3.488  12.254  0.00  0.00    +0.000 A 
ATOM     29  C   UNL     1       5.380   3.598  13.499  0.00  0.00    +0.000 A 
ATOM     30  C   UNL     1       5.958   4.401  14.505  0.00  0.00    +0.000 A 
ATOM     31  H   UNL     1       8.322   6.353  15.424  0.00  0.00    +0.000 HD
ENDBRANCH  21  22
ENDBRANCH  19  21
ENDBRANCH   1  19
TORSDOF 5
ENDMDL
MODEL 9
REMARK VINA RESULT:      -8.8      2.257      3.094
REMARK  Name = 
REMARK  6 active torsions:
REMARK  status: ('A' for Active; 'I' for Inactive)
REMARK    1  A    between atoms: C_1  and  C_2
REMARK    2  A    between atoms: C_5  and  C_6
REMARK    3  A    between atoms: C_9  and  C_10
REMARK    4  A    between atoms: C_10  and  N_11
REMARK    5  A    between atoms: N_11  and  C_12
REMARK    6  A    between atoms: C_12  and  C_13
REMARK                            x       y       z     vdW  Elec       q    Type
REMARK                         _______ _______ _______ _____ _____    ______ ____
ROOT
ATOM      1  C   UNL     1       2.362   4.579  20.020  0.00  0.00    +0.000 C 
ATOM      2  C   UNL     1       1.873   3.879  21.309  0.00  0.00    +0.000 C 
ATOM      3  C   UNL     1       1.579   2.433  20.933  0.00  0.00    +0.000 C 
ATOM      4  C   UNL     1       1.245   2.447  19.448  0.00  0.00    +0.000 C 
ATOM      5  C   UNL     1       1.468   3.880  18.966  0.00  0.00    +0.000 C 
ENDROOT
BRANCH   1   9
ATOM      6  C   UNL     1       1.344   8.050  20.467  0.00  0.00    +0.000 A 
ATOM      7  C   UNL     1       2.107   8.165  19.326  0.00  0.00    +0.000 A 
ATOM      8  N   UNL     1       2.566   6.911  19.068  0.00  0.00    +0.000 N 
ATOM      9  C   UNL     1       2.072   6.065  20.032  0.00  0.00    +0.000 A 
ATOM     10  N   UNL     1       1.314   6.734  20.882  0.00  0.00    +0.000 NA
ATOM     11  H   UNL     1       3.138   6.634  18.283  0.00  0.00    +0.000 HD
BRANCH   6  16
ATOM     12  C   UNL     1      -1.381  12.387  23.144  0.00  0.00    +0.000 C 
ATOM     13  C   UNL     1      -0.684  11.257  22.450  0.00  0.00    +0.000 A 
ATOM     14  C   UNL     1      -0.601   9.997  23.050  0.00  0.00    +0.000 A 
ATOM     15  C   UNL     1       0.059   8.947  22.403  0.00  0.00    +0.000 A 
ATOM     16  C   UNL     1       0.647   9.135  21.144  0.00  0.00    +0.000 A 
ATOM     17  C   UNL     1       0.558  10.395  20.547  0.00  0.00    +0.000 A 
ATOM     18  C   UNL     1      -0.103  11.447  21.192  0.00  0.00    +0.000 A 
ENDBRANCH   6  16
ENDBRANCH   1   9
BRANCH   1  19
ATOM     19  N   UNL     1       3.789   4.302  19.720  0.00  0.00    +0.000 NA
ATOM     20  H   UNL     1       4.053   3.471  20.253  0.00  0.00    +0.000 HD
BRANCH  19  21
ATOM     21  C   UNL     1       4.048   4.015  18.307  0.00  0.00    +0.000 C 
BRANCH  21  22
ATOM     22  C   UNL     1       4.791   5.141  17.665  0.00  0.00    +0.000 A 
ATOM     23  C   UNL     1       4.513   5.723  16.442  0.00  0.00    +0.000 A 
ATOM     24  N   UNL     1       5.493   6.637  16.164  0.00  0.00    +0.000 N 
ATOM     25  C   UNL     1       6.423   6.662  17.177  0.00  0.00    +0.000 A 
ATOM     26  C   UNL     1       7.599   7.414  17.303  0.00  0.00    +0.000 A 
ATOM     27  C   UNL     1       8.368   7.225  18.455  0.00  0.00    +0.000 A 
ATOM     28  C   UNL     1       7.974   6.323  19.440  0.00  0.00    +0.000 A 
ATOM     29  C   UNL     1       6.795   5.581  19.298  0.00  0.00    +0.000 A 
ATOM     30  C   UNL     1       6.001   5.749  18.144  0.00  0.00    +0.000 A 
ATOM     31  H   UNL     1       5.547   7.194  15.324  0.00  0.00    +0.000 HD
ENDBRANCH  21  22
ENDBRANCH  19  21
ENDBRANCH   1  19
TORSDOF 5
ENDMDL
