MODEL 1
REMARK VINA RESULT:      -7.4      0.000      0.000
REMARK  Name = 
REMARK  2 active torsions:
REMARK  status: ('A' for Active; 'I' for Inactive)
REMARK    1  A    between atoms: C_2  and  C_4
REMARK    2  A    between atoms: N_10  and  C_11
REMARK                            x       y       z     vdW  Elec       q    Type
REMARK                         _______ _______ _______ _____ _____    ______ ____
ROOT
ATOM      1  C   UNL     1       6.848   5.100  15.418  0.00  0.00    +0.000 A 
ATOM      2  N   UNL     1       7.637   6.030  16.090  0.00  0.00    +0.000 NA
ATOM      3  C   UNL     1       7.176   6.036  17.320  0.00  0.00    +0.000 A 
ATOM      4  N   UNL     1       6.126   5.169  17.473  0.00  0.00    +0.000 N 
ATOM      5  C   UNL     1       5.387   4.930  18.615  0.00  0.00    +0.000 A 
ATOM      6  O   UNL     1       5.679   5.552  19.627  0.00  0.00    +0.000 OA
ATOM      7  N   UNL     1       4.422   3.954  18.389  0.00  0.00    +0.000 N 
ATOM      8  N   UNL     1       4.269   3.292  17.183  0.00  0.00    +0.000 NA
ATOM      9  N   UNL     1       4.965   3.597  16.185  0.00  0.00    +0.000 NA
ATOM     10  C   UNL     1       5.920   4.542  16.281  0.00  0.00    +0.000 A 
ENDROOT
BRANCH   7  11
ATOM     11  C   UNL     1       3.515   3.524  19.414  0.00  0.00    +0.000 A 
ATOM     12  C   UNL     1       2.213   4.046  19.509  0.00  0.00    +0.000 A 
ATOM     13  C   UNL     1       1.341   3.653  20.530  0.00  0.00    +0.000 A 
ATOM     14  C   UNL     1       1.760   2.731  21.482  0.00  0.00    +0.000 A 
ATOM     15 CL   UNL     1       0.699   2.274  22.754  0.00  0.00    +0.000 Cl
ATOM     16  C   UNL     1       3.036   2.183  21.403  0.00  0.00    +0.000 A 
ATOM     17  C   UNL     1       3.901   2.565  20.369  0.00  0.00    +0.000 A 
ENDBRANCH   7  11
BRANCH   1  19
ATOM     18  N   UNL     1       6.358   3.687  13.593  0.00  0.00    +0.000 N 
ATOM     19  C   UNL     1       7.036   4.798  14.004  0.00  0.00    +0.000 C 
ATOM     20  O   UNL     1       7.727   5.455  13.235  0.00  0.00    +0.000 OA
ATOM     21  H   UNL     1       6.408   3.402  12.627  0.00  0.00    +0.000 HD
ATOM     22  H   UNL     1       5.780   3.180  14.255  0.00  0.00    +0.000 HD
ENDBRANCH   1  19
TORSDOF 2
ENDMDL
MODEL 2
REMARK VINA RESULT:      -7.4      0.111      1.079
REMARK  Name = 
REMARK  2 active torsions:
REMARK  status: ('A' for Active; 'I' for Inactive)
REMARK    1  A    between atoms: C_2  and  C_4
REMARK    2  A    between atoms: N_10  and  C_11
REMARK                            x       y       z     vdW  Elec       q    Type
REMARK                         _______ _______ _______ _____ _____    ______ ____
ROOT
ATOM      1  C   UNL     1       6.834   5.112  15.400  0.00  0.00    +0.000 A 
ATOM      2  N   UNL     1       7.641   6.052  16.037  0.00  0.00    +0.000 NA
ATOM      3  C   UNL     1       7.206   6.084  17.276  0.00  0.00    +0.000 A 
ATOM      4  N   UNL     1       6.156   5.225  17.469  0.00  0.00    +0.000 N 
ATOM      5  C   UNL     1       5.442   5.011  18.631  0.00  0.00    +0.000 A 
ATOM      6  O   UNL     1       5.757   5.652  19.623  0.00  0.00    +0.000 OA
ATOM      7  N   UNL     1       4.468   4.035  18.444  0.00  0.00    +0.000 N 
ATOM      8  N   UNL     1       4.287   3.350  17.255  0.00  0.00    +0.000 NA
ATOM      9  N   UNL     1       4.963   3.632  16.237  0.00  0.00    +0.000 NA
ATOM     10  C   UNL     1       5.923   4.575  16.294  0.00  0.00    +0.000 A 
ENDROOT
BRANCH   7  11
ATOM     11  C   UNL     1       3.581   3.629  19.497  0.00  0.00    +0.000 A 
ATOM     12  C   UNL     1       3.921   2.594  20.385  0.00  0.00    +0.000 A 
ATOM     13  C   UNL     1       3.040   2.174  21.388  0.00  0.00    +0.000 A 
ATOM     14  C   UNL     1       1.797   2.781  21.517  0.00  0.00    +0.000 A 
ATOM     15 CL   UNL     1       0.704   2.242  22.729  0.00  0.00    +0.000 Cl
ATOM     16  C   UNL     1       1.440   3.821  20.665  0.00  0.00    +0.000 A 
ATOM     17  C   UNL     1       2.331   4.252  19.672  0.00  0.00    +0.000 A 
ENDBRANCH   7  11
BRANCH   1  19
ATOM     18  N   UNL     1       6.295   3.669  13.613  0.00  0.00    +0.000 N 
ATOM     19  C   UNL     1       6.992   4.782  13.989  0.00  0.00    +0.000 C 
ATOM     20  O   UNL     1       7.672   5.417  13.195  0.00  0.00    +0.000 OA
ATOM     21  H   UNL     1       6.324   3.366  12.652  0.00  0.00    +0.000 HD
ATOM     22  H   UNL     1       5.727   3.181  14.296  0.00  0.00    +0.000 HD
ENDBRANCH   1  19
TORSDOF 2
ENDMDL
MODEL 3
REMARK VINA RESULT:      -7.4      5.906      8.083
REMARK  Name = 
REMARK  2 active torsions:
REMARK  status: ('A' for Active; 'I' for Inactive)
REMARK    1  A    between atoms: C_2  and  C_4
REMARK    2  A    between atoms: N_10  and  C_11
REMARK                            x       y       z     vdW  Elec       q    Type
REMARK                         _______ _______ _______ _____ _____    ______ ____
ROOT
ATOM      1  C   UNL     1       0.089  10.271  21.187  0.00  0.00    +0.000 A 
ATOM      2  N   UNL     1      -0.157  11.255  20.233  0.00  0.00    +0.000 NA
ATOM      3  C   UNL     1       0.436  10.824  19.144  0.00  0.00    +0.000 A 
ATOM      4  N   UNL     1       1.060   9.621  19.347  0.00  0.00    +0.000 N 
ATOM      5  C   UNL     1       1.793   8.885  18.437  0.00  0.00    +0.000 A 
ATOM      6  O   UNL     1       1.922   9.335  17.307  0.00  0.00    +0.000 OA
ATOM      7  N   UNL     1       2.243   7.697  19.004  0.00  0.00    +0.000 N 
ATOM      8  N   UNL     1       1.946   7.305  20.299  0.00  0.00    +0.000 NA
ATOM      9  N   UNL     1       1.298   8.053  21.068  0.00  0.00    +0.000 NA
ATOM     10  C   UNL     1       0.826   9.237  20.633  0.00  0.00    +0.000 A 
ENDROOT
BRANCH   7  11
ATOM     11  C   UNL     1       3.037   6.752  18.272  0.00  0.00    +0.000 A 
ATOM     12  C   UNL     1       4.202   7.144  17.589  0.00  0.00    +0.000 A 
ATOM     13  C   UNL     1       4.954   6.229  16.845  0.00  0.00    +0.000 A 
ATOM     14  C   UNL     1       4.551   4.902  16.766  0.00  0.00    +0.000 A 
ATOM     15 CL   UNL     1       5.459   3.787  15.825  0.00  0.00    +0.000 Cl
ATOM     16  C   UNL     1       3.413   4.481  17.446  0.00  0.00    +0.000 A 
ATOM     17  C   UNL     1       2.670   5.396  18.205  0.00  0.00    +0.000 A 
ENDBRANCH   7  11
BRANCH   1  19
ATOM     18  N   UNL     1      -0.685   9.164  23.122  0.00  0.00    +0.000 N 
ATOM     19  C   UNL     1      -0.402  10.374  22.555  0.00  0.00    +0.000 C 
ATOM     20  O   UNL     1      -0.557  11.425  23.164  0.00  0.00    +0.000 OA
ATOM     21  H   UNL     1      -1.015   9.126  24.074  0.00  0.00    +0.000 HD
ATOM     22  H   UNL     1      -0.525   8.315  22.592  0.00  0.00    +0.000 HD
ENDBRANCH   1  19
TORSDOF 2
ENDMDL
MODEL 4
REMARK VINA RESULT:      -7.4      5.945      8.104
REMARK  Name = 
REMARK  2 active torsions:
REMARK  status: ('A' for Active; 'I' for Inactive)
REMARK    1  A    between atoms: C_2  and  C_4
REMARK    2  A    between atoms: N_10  and  C_11
REMARK                            x       y       z     vdW  Elec       q    Type
REMARK                         _______ _______ _______ _____ _____    ______ ____
ROOT
ATOM      1  C   UNL     1       0.137  10.363  21.246  0.00  0.00    +0.000 A 
ATOM      2  N   UNL     1      -0.077  11.369  20.307  0.00  0.00    +0.000 NA
ATOM      3  C   UNL     1       0.491  10.929  19.208  0.00  0.00    +0.000 A 
ATOM      4  N   UNL     1       1.070   9.700  19.391  0.00  0.00    +0.000 N 
ATOM      5  C   UNL     1       1.768   8.948  18.467  0.00  0.00    +0.000 A 
ATOM      6  O   UNL     1       1.906   9.408  17.341  0.00  0.00    +0.000 OA
ATOM      7  N   UNL     1       2.175   7.737  19.016  0.00  0.00    +0.000 N 
ATOM      8  N   UNL     1       1.872   7.339  20.307  0.00  0.00    +0.000 NA
ATOM      9  N   UNL     1       1.258   8.102  21.090  0.00  0.00    +0.000 NA
ATOM     10  C   UNL     1       0.830   9.309  20.674  0.00  0.00    +0.000 A 
ENDROOT
BRANCH   7  11
ATOM     11  C   UNL     1       2.926   6.771  18.265  0.00  0.00    +0.000 A 
ATOM     12  C   UNL     1       2.538   5.421  18.209  0.00  0.00    +0.000 A 
ATOM     13  C   UNL     1       3.291   4.474  17.507  0.00  0.00    +0.000 A 
ATOM     14  C   UNL     1       4.453   4.860  16.851  0.00  0.00    +0.000 A 
ATOM     15 CL   UNL     1       5.393   3.688  16.017  0.00  0.00    +0.000 Cl
ATOM     16  C   UNL     1       4.852   6.192  16.873  0.00  0.00    +0.000 A 
ATOM     17  C   UNL     1       4.087   7.143  17.562  0.00  0.00    +0.000 A 
ENDBRANCH   7  11
BRANCH   1  19
ATOM     18  N   UNL     1      -0.489   9.258  23.235  0.00  0.00    +0.000 N 
ATOM     19  C   UNL     1      -0.340  10.468  22.619  0.00  0.00    +0.000 C 
ATOM     20  O   UNL     1      -0.591  11.520  23.193  0.00  0.00    +0.000 OA
ATOM     21  H   UNL     1      -0.799   9.222  24.193  0.00  0.00    +0.000 HD
ATOM     22  H   UNL     1      -0.252   8.410  22.732  0.00  0.00    +0.000 HD
ENDBRANCH   1  19
TORSDOF 2
ENDMDL
MODEL 5
REMARK VINA RESULT:      -7.2      4.163      5.026
REMARK  Name = 
REMARK  2 active torsions:
REMARK  status: ('A' for Active; 'I' for Inactive)
REMARK    1  A    between atoms: C_2  and  C_4
REMARK    2  A    between atoms: N_10  and  C_11
REMARK                            x       y       z     vdW  Elec       q    Type
REMARK                         _______ _______ _______ _____ _____    ______ ____
ROOT
ATOM      1  C   UNL     1       5.998   4.816  17.863  0.00  0.00    +0.000 A 
ATOM      2  N   UNL     1       5.682   3.761  18.716  0.00  0.00    +0.000 NA
ATOM      3  C   UNL     1       4.576   4.134  19.317  0.00  0.00    +0.000 A 
ATOM      4  N   UNL     1       4.169   5.377  18.908  0.00  0.00    +0.000 N 
ATOM      5  C   UNL     1       3.068   6.090  19.340  0.00  0.00    +0.000 A 
ATOM      6  O   UNL     1       2.352   5.581  20.190  0.00  0.00    +0.000 OA
ATOM      7  N   UNL     1       2.966   7.303  18.666  0.00  0.00    +0.000 N 
ATOM      8  N   UNL     1       3.838   7.703  17.668  0.00  0.00    +0.000 NA
ATOM      9  N   UNL     1       4.833   7.003  17.361  0.00  0.00    +0.000 NA
ATOM     10  C   UNL     1       5.045   5.816  17.961  0.00  0.00    +0.000 A 
ENDROOT
BRANCH   7  11
ATOM     11  C   UNL     1       1.911   8.239  18.933  0.00  0.00    +0.000 A 
ATOM     12  C   UNL     1       1.305   8.976  17.901  0.00  0.00    +0.000 A 
ATOM     13  C   UNL     1       0.302   9.915  18.166  0.00  0.00    +0.000 A 
ATOM     14  C   UNL     1      -0.111  10.137  19.473  0.00  0.00    +0.000 A 
ATOM     15 CL   UNL     1      -1.320  11.314  19.800  0.00  0.00    +0.000 Cl
ATOM     16  C   UNL     1       0.457   9.410  20.514  0.00  0.00    +0.000 A 
ATOM     17  C   UNL     1       1.450   8.457  20.244  0.00  0.00    +0.000 A 
ENDBRANCH   7  11
BRANCH   1  19
ATOM     18  N   UNL     1       7.037   5.548  15.876  0.00  0.00    +0.000 N 
ATOM     19  C   UNL     1       7.177   4.797  17.007  0.00  0.00    +0.000 C 
ATOM     20  O   UNL     1       8.206   4.179  17.249  0.00  0.00    +0.000 OA
ATOM     21  H   UNL     1       7.804   5.615  15.225  0.00  0.00    +0.000 HD
ATOM     22  H   UNL     1       6.176   6.061  15.720  0.00  0.00    +0.000 HD
ENDBRANCH   1  19
TORSDOF 2
ENDMDL
MODEL 6
REMARK VINA RESULT:      -7.0      3.796      4.637
REMARK  Name = 
REMARK  2 active torsions:
REMARK  status: ('A' for Active; 'I' for Inactive)
REMARK    1  A    between atoms: C_2  and  C_4
REMARK    2  A    between atoms: N_10  and  C_11
REMARK                            x       y       z     vdW  Elec       q    Type
REMARK                         _______ _______ _______ _____ _____    ______ ____
ROOT
ATOM      1  C   UNL     1       5.369   4.481  16.190  0.00  0.00    +0.000 A 
ATOM      2  N   UNL     1       4.849   3.252  16.587  0.00  0.00    +0.000 NA
ATOM      3  C   UNL     1       3.862   3.551  17.401  0.00  0.00    +0.000 A 
ATOM      4  N   UNL     1       3.726   4.905  17.559  0.00  0.00    +0.000 N 
ATOM      5  C   UNL     1       2.815   5.577  18.350  0.00  0.00    +0.000 A 
ATOM      6  O   UNL     1       2.023   4.912  19.002  0.00  0.00    +0.000 OA
ATOM      7  N   UNL     1       2.964   6.954  18.222  0.00  0.00    +0.000 N 
ATOM      8  N   UNL     1       3.883   7.551  17.374  0.00  0.00    +0.000 NA
ATOM      9  N   UNL     1       4.696   6.861  16.714  0.00  0.00    +0.000 NA
ATOM     10  C   UNL     1       4.657   5.516  16.773  0.00  0.00    +0.000 A 
ENDROOT
BRANCH   7  11
ATOM     11  C   UNL     1       2.143   7.883  18.945  0.00  0.00    +0.000 A 
ATOM     12  C   UNL     1       1.887   7.722  20.318  0.00  0.00    +0.000 A 
ATOM     13  C   UNL     1       1.057   8.608  21.013  0.00  0.00    +0.000 A 
ATOM     14  C   UNL     1       0.461   9.670  20.344  0.00  0.00    +0.000 A 
ATOM     15 CL   UNL     1      -0.585  10.737  21.194  0.00  0.00    +0.000 Cl
ATOM     16  C   UNL     1       0.710   9.865  18.990  0.00  0.00    +0.000 A 
ATOM     17  C   UNL     1       1.557   8.987  18.299  0.00  0.00    +0.000 A 
ENDBRANCH   7  11
BRANCH   1  19
ATOM     18  N   UNL     1       7.426   5.510  15.666  0.00  0.00    +0.000 N 
ATOM     19  C   UNL     1       6.499   4.588  15.275  0.00  0.00    +0.000 C 
ATOM     20  O   UNL     1       6.633   3.930  14.251  0.00  0.00    +0.000 OA
ATOM     21  H   UNL     1       8.256   5.649  15.110  0.00  0.00    +0.000 HD
ATOM     22  H   UNL     1       7.289   6.021  16.531  0.00  0.00    +0.000 HD
ENDBRANCH   1  19
TORSDOF 2
ENDMDL
MODEL 7
REMARK VINA RESULT:      -6.9      3.939      4.721
REMARK  Name = 
REMARK  2 active torsions:
REMARK  status: ('A' for Active; 'I' for Inactive)
REMARK    1  A    between atoms: C_2  and  C_4
REMARK    2  A    between atoms: N_10  and  C_11
REMARK                            x       y       z     vdW  Elec       q    Type
REMARK                         _______ _______ _______ _____ _____    ______ ____
ROOT
ATOM      1  C   UNL     1       5.522   4.520  16.431  0.00  0.00    +0.000 A 
ATOM      2  N   UNL     1       4.878   3.309  16.675  0.00  0.00    +0.000 NA
ATOM      3  C   UNL     1       3.784   3.634  17.323  0.00  0.00    +0.000 A 
ATOM      4  N   UNL     1       3.693   4.988  17.520  0.00  0.00    +0.000 N 
ATOM      5  C   UNL     1       2.695   5.681  18.176  0.00  0.00    +0.000 A 
ATOM      6  O   UNL     1       1.769   5.039  18.652  0.00  0.00    +0.000 OA
ATOM      7  N   UNL     1       2.935   7.051  18.142  0.00  0.00    +0.000 N 
ATOM      8  N   UNL     1       4.015   7.624  17.492  0.00  0.00    +0.000 NA
ATOM      9  N   UNL     1       4.893   6.913  16.947  0.00  0.00    +0.000 NA
ATOM     10  C   UNL     1       4.775   5.572  16.934  0.00  0.00    +0.000 A 
ENDROOT
BRANCH   7  11
ATOM     11  C   UNL     1       2.050   7.998  18.758  0.00  0.00    +0.000 A 
ATOM     12  C   UNL     1       1.438   9.022  18.016  0.00  0.00    +0.000 A 
ATOM     13  C   UNL     1       0.605   9.967  18.625  0.00  0.00    +0.000 A 
ATOM     14  C   UNL     1       0.372   9.906  19.993  0.00  0.00    +0.000 A 
ATOM     15 CL   UNL     1      -0.627  11.087  20.744  0.00  0.00    +0.000 Cl
ATOM     16  C   UNL     1       0.948   8.892  20.751  0.00  0.00    +0.000 A 
ATOM     17  C   UNL     1       1.769   7.936  20.136  0.00  0.00    +0.000 A 
ENDBRANCH   7  11
BRANCH   1  19
ATOM     18  N   UNL     1       7.878   4.517  16.558  0.00  0.00    +0.000 N 
ATOM     19  C   UNL     1       6.797   4.594  15.728  0.00  0.00    +0.000 C 
ATOM     20  O   UNL     1       6.920   4.715  14.516  0.00  0.00    +0.000 OA
ATOM     21  H   UNL     1       8.808   4.542  16.169  0.00  0.00    +0.000 HD
ATOM     22  H   UNL     1       7.735   4.397  17.555  0.00  0.00    +0.000 HD
ENDBRANCH   1  19
TORSDOF 2
ENDMDL
MODEL 8
REMARK VINA RESULT:      -6.9      4.236      5.246
REMARK  Name = 
REMARK  2 active torsions:
REMARK  status: ('A' for Active; 'I' for Inactive)
REMARK    1  A    between atoms: C_2  and  C_4
REMARK    2  A    between atoms: N_10  and  C_11
REMARK                            x       y       z     vdW  Elec       q    Type
REMARK                         _______ _______ _______ _____ _____    ______ ____
ROOT
ATOM      1  C   UNL     1       5.582   4.543  18.031  0.00  0.00    +0.000 A 
ATOM      2  N   UNL     1       5.214   3.559  18.946  0.00  0.00    +0.000 NA
ATOM      3  C   UNL     1       4.158   4.046  19.556  0.00  0.00    +0.000 A 
ATOM      4  N   UNL     1       3.834   5.295  19.093  0.00  0.00    +0.000 N 
ATOM      5  C   UNL     1       2.803   6.111  19.515  0.00  0.00    +0.000 A 
ATOM      6  O   UNL     1       2.077   5.701  20.409  0.00  0.00    +0.000 OA
ATOM      7  N   UNL     1       2.772   7.293  18.781  0.00  0.00    +0.000 N 
ATOM      8  N   UNL     1       3.641   7.573  17.741  0.00  0.00    +0.000 NA
ATOM      9  N   UNL     1       4.571   6.785  17.445  0.00  0.00    +0.000 NA
ATOM     10  C   UNL     1       4.711   5.616  18.101  0.00  0.00    +0.000 A 
ENDROOT
BRANCH   7  11
ATOM     11  C   UNL     1       1.799   8.319  19.026  0.00  0.00    +0.000 A 
ATOM     12  C   UNL     1       1.359   8.620  20.327  0.00  0.00    +0.000 A 
ATOM     13  C   UNL     1       0.384   9.595  20.561  0.00  0.00    +0.000 A 
ATOM     14  C   UNL     1      -0.175  10.286  19.493  0.00  0.00    +0.000 A 
ATOM     15 CL   UNL     1      -1.396  11.461  19.780  0.00  0.00    +0.000 Cl
ATOM     16  C   UNL     1       0.253  10.024  18.196  0.00  0.00    +0.000 A 
ATOM     17  C   UNL     1       1.243   9.058  17.965  0.00  0.00    +0.000 A 
ENDBRANCH   7  11
BRANCH   1  19
ATOM     18  N   UNL     1       7.926   4.374  17.808  0.00  0.00    +0.000 N 
ATOM     19  C   UNL     1       6.731   4.390  17.147  0.00  0.00    +0.000 C 
ATOM     20  O   UNL     1       6.665   4.285  15.928  0.00  0.00    +0.000 OA
ATOM     21  H   UNL     1       8.781   4.255  17.288  0.00  0.00    +0.000 HD
ATOM     22  H   UNL     1       7.937   4.444  18.820  0.00  0.00    +0.000 HD
ENDBRANCH   1  19
TORSDOF 2
ENDMDL
MODEL 9
REMARK VINA RESULT:      -6.8      3.661      6.908
REMARK  Name = 
REMARK  2 active torsions:
REMARK  status: ('A' for Active; 'I' for Inactive)
REMARK    1  A    between atoms: C_2  and  C_4
REMARK    2  A    between atoms: N_10  and  C_11
REMARK                            x       y       z     vdW  Elec       q    Type
REMARK                         _______ _______ _______ _____ _____    ______ ____
ROOT
ATOM      1  C   UNL     1       2.288   4.475  20.358  0.00  0.00    +0.000 A 
ATOM      2  N   UNL     1       2.081   5.838  20.554  0.00  0.00    +0.000 NA
ATOM      3  C   UNL     1       2.700   6.420  19.553  0.00  0.00    +0.000 A 
ATOM      4  N   UNL     1       3.304   5.506  18.728  0.00  0.00    +0.000 N 
ATOM      5  C   UNL     1       4.053   5.756  17.596  0.00  0.00    +0.000 A 
ATOM      6  O   UNL     1       4.220   6.922  17.264  0.00  0.00    +0.000 OA
ATOM      7  N   UNL     1       4.473   4.569  17.004  0.00  0.00    +0.000 N 
ATOM      8  N   UNL     1       4.134   3.313  17.480  0.00  0.00    +0.000 NA
ATOM      9  N   UNL     1       3.472   3.180  18.537  0.00  0.00    +0.000 NA
ATOM     10  C   UNL     1       3.028   4.261  19.207  0.00  0.00    +0.000 A 
ENDROOT
BRANCH   7  11
ATOM     11  C   UNL     1       5.275   4.549  15.815  0.00  0.00    +0.000 A 
ATOM     12  C   UNL     1       6.561   5.117  15.787  0.00  0.00    +0.000 A 
ATOM     13  C   UNL     1       7.328   5.130  14.616  0.00  0.00    +0.000 A 
ATOM     14  C   UNL     1       6.819   4.576  13.448  0.00  0.00    +0.000 A 
ATOM     15 CL   UNL     1       7.750   4.622  12.004  0.00  0.00    +0.000 Cl
ATOM     16  C   UNL     1       5.557   3.990  13.450  0.00  0.00    +0.000 A 
ATOM     17  C   UNL     1       4.797   3.963  14.628  0.00  0.00    +0.000 A 
ENDBRANCH   7  11
BRANCH   1  19
ATOM     18  N   UNL     1       0.714   2.760  20.749  0.00  0.00    +0.000 N 
ATOM     19  C   UNL     1       1.759   3.469  21.270  0.00  0.00    +0.000 C 
ATOM     20  O   UNL     1       2.186   3.255  22.398  0.00  0.00    +0.000 OA
ATOM     21  H   UNL     1       0.288   2.028  21.295  0.00  0.00    +0.000 HD
ATOM     22  H   UNL     1       0.402   2.954  19.804  0.00  0.00    +0.000 HD
ENDBRANCH   1  19
TORSDOF 2
ENDMDL
