MODEL 1
REMARK VINA RESULT:      -7.2      0.000      0.000
REMARK  Name = 
REMARK  10 active torsions:
REMARK  status: ('A' for Active; 'I' for Inactive)
REMARK    1  A    between atoms: C_1  and  S_2
REMARK    2  A    between atoms: S_2  and  N_5
REMARK    3  A    between atoms: N_5  and  C_6
REMARK    4  A    between atoms: C_9  and  C_10
REMARK    5  A    between atoms: N_15  and  C_16
REMARK    6  A    between atoms: C_16  and  C_17
REMARK    7  A    between atoms: C_17  and  O_18
REMARK    8  A    between atoms: C_17  and  C_19
REMARK    9  A    between atoms: C_19  and  O_20
REMARK   10  A    between atoms: O_20  and  C_21
REMARK                            x       y       z     vdW  Elec       q    Type
REMARK                         _______ _______ _______ _____ _____    ______ ____
ROOT
ATOM      1  C   UNL     1       0.883  10.085  19.845  0.00  0.00    +0.000 C 
ATOM      2  O   UNL     1       1.553  10.812  20.585  0.00  0.00    +0.000 OA
ATOM      3  N   UNL     1      -0.389  10.449  19.416  0.00  0.00    +0.000 N 
ATOM      4  C   UNL     1      -0.830  11.840  19.596  0.00  0.00    +0.000 C 
ATOM      5  C   UNL     1      -1.344  12.444  18.259  0.00  0.00    +0.000 C 
ATOM      6  N   UNL     1      -2.307  11.593  17.501  0.00  0.00    +0.000 NA
ATOM      7  C   UNL     1      -1.711  10.241  17.370  0.00  0.00    +0.000 C 
ATOM      8  C   UNL     1      -1.381   9.607  18.739  0.00  0.00    +0.000 C 
ENDROOT
BRANCH   1  12
ATOM      9  C   UNL     1       2.849   6.439  18.713  0.00  0.00    +0.000 A 
ATOM     10  C   UNL     1       2.251   6.559  19.967  0.00  0.00    +0.000 A 
ATOM     11  C   UNL     1       1.578   7.742  20.306  0.00  0.00    +0.000 A 
ATOM     12  C   UNL     1       1.514   8.809  19.398  0.00  0.00    +0.000 A 
ATOM     13  C   UNL     1       2.154   8.675  18.161  0.00  0.00    +0.000 A 
ATOM     14  C   UNL     1       2.773   7.480  17.797  0.00  0.00    +0.000 A 
BRANCH   9  15
ATOM     15  N   UNL     1       3.553   5.259  18.348  0.00  0.00    +0.000 N 
ATOM     16  H   UNL     1       4.348   5.022  18.946  0.00  0.00    +0.000 HD
BRANCH  15  18
ATOM     17  C   UNL     1       2.358   3.238  19.661  0.00  0.00    +0.000 C 
ATOM     18  S   UNL     1       2.648   3.871  18.025  0.00  0.00    +0.000 S 
ATOM     19  O   UNL     1       3.447   2.923  17.282  0.00  0.00    +0.000 OA
ATOM     20  O   UNL     1       1.384   4.354  17.515  0.00  0.00    +0.000 OA
ENDBRANCH  15  18
ENDBRANCH   9  15
ENDBRANCH   1  12
BRANCH   6  21
ATOM     21  C   UNL     1      -3.621  11.582  18.174  0.00  0.00    +0.000 C 
BRANCH  21  22
ATOM     22  C   UNL     1      -4.844  12.100  17.368  0.00  0.00    +0.000 C 
BRANCH  22  23
ATOM     23  O   UNL     1      -5.369  11.087  16.495  0.00  0.00    +0.000 OA
ATOM     24  H   UNL     1      -4.778  10.315  16.528  0.00  0.00    +0.000 HD
ENDBRANCH  22  23
BRANCH  22  25
ATOM     25  C   UNL     1      -5.922  12.483  18.386  0.00  0.00    +0.000 C 
BRANCH  25  26
ATOM     26  O   UNL     1      -5.375  13.254  19.443  0.00  0.00    +0.000 OA
BRANCH  26  27
ATOM     27  C   UNL     1      -5.829  13.035  20.720  0.00  0.00    +0.000 A 
ATOM     28  C   UNL     1      -7.231  13.113  20.758  0.00  0.00    +0.000 A 
ATOM     29  C   UNL     1      -7.917  13.014  21.957  0.00  0.00    +0.000 A 
ATOM     30  C   UNL     1      -7.204  12.892  23.140  0.00  0.00    +0.000 A 
ATOM     31  C   UNL     1      -5.802  12.823  23.143  0.00  0.00    +0.000 A 
ATOM     32  C   UNL     1      -5.123  12.776  24.372  0.00  0.00    +0.000 A 
ATOM     33  C   UNL     1      -3.735  12.675  24.437  0.00  0.00    +0.000 A 
ATOM     34  C   UNL     1      -3.017  12.531  23.269  0.00  0.00    +0.000 A 
ATOM     35  C   UNL     1      -3.680  12.573  22.042  0.00  0.00    +0.000 A 
ATOM     36  C   UNL     1      -5.082  12.808  21.922  0.00  0.00    +0.000 A 
ENDBRANCH  26  27
ENDBRANCH  25  26
ENDBRANCH  22  25
ENDBRANCH  21  22
ENDBRANCH   6  21
TORSDOF 9
ENDMDL
MODEL 2
REMARK VINA RESULT:      -7.2      2.642      4.324
REMARK  Name = 
REMARK  10 active torsions:
REMARK  status: ('A' for Active; 'I' for Inactive)
REMARK    1  A    between atoms: C_1  and  S_2
REMARK    2  A    between atoms: S_2  and  N_5
REMARK    3  A    between atoms: N_5  and  C_6
REMARK    4  A    between atoms: C_9  and  C_10
REMARK    5  A    between atoms: N_15  and  C_16
REMARK    6  A    between atoms: C_16  and  C_17
REMARK    7  A    between atoms: C_17  and  O_18
REMARK    8  A    between atoms: C_17  and  C_19
REMARK    9  A    between atoms: C_19  and  O_20
REMARK   10  A    between atoms: O_20  and  C_21
REMARK                            x       y       z     vdW  Elec       q    Type
REMARK                         _______ _______ _______ _____ _____    ______ ____
ROOT
ATOM      1  C   UNL     1       2.370   6.043  19.862  0.00  0.00    +0.000 C 
ATOM      2  O   UNL     1       2.193   5.487  20.950  0.00  0.00    +0.000 OA
ATOM      3  N   UNL     1       1.696   7.208  19.515  0.00  0.00    +0.000 N 
ATOM      4  C   UNL     1       0.988   7.959  20.562  0.00  0.00    +0.000 C 
ATOM      5  C   UNL     1       1.418   9.452  20.572  0.00  0.00    +0.000 C 
ATOM      6  N   UNL     1       1.427  10.125  19.242  0.00  0.00    +0.000 NA
ATOM      7  C   UNL     1       2.204   9.273  18.308  0.00  0.00    +0.000 C 
ATOM      8  C   UNL     1       1.628   7.844  18.195  0.00  0.00    +0.000 C 
ENDROOT
BRANCH   1  12
ATOM      9  C   UNL     1       5.293   4.469  17.138  0.00  0.00    +0.000 A 
ATOM     10  C   UNL     1       5.672   5.354  18.147  0.00  0.00    +0.000 A 
ATOM     11  C   UNL     1       4.713   5.827  19.052  0.00  0.00    +0.000 A 
ATOM     12  C   UNL     1       3.372   5.427  18.943  0.00  0.00    +0.000 A 
ATOM     13  C   UNL     1       3.013   4.566  17.900  0.00  0.00    +0.000 A 
ATOM     14  C   UNL     1       3.974   4.047  17.033  0.00  0.00    +0.000 A 
BRANCH   9  15
ATOM     15  N   UNL     1       6.241   3.985  16.194  0.00  0.00    +0.000 N 
ATOM     16  H   UNL     1       6.146   2.998  15.945  0.00  0.00    +0.000 HD
BRANCH  15  18
ATOM     17  C   UNL     1       6.051   3.752  13.521  0.00  0.00    +0.000 C 
ATOM     18  S   UNL     1       6.500   4.902  14.800  0.00  0.00    +0.000 S 
ATOM     19  O   UNL     1       7.904   5.227  14.677  0.00  0.00    +0.000 OA
ATOM     20  O   UNL     1       5.488   5.934  14.832  0.00  0.00    +0.000 OA
ENDBRANCH  15  18
ENDBRANCH   9  15
ENDBRANCH   1  12
BRANCH   6  21
ATOM     21  C   UNL     1       0.045  10.372  18.783  0.00  0.00    +0.000 C 
BRANCH  21  22
ATOM     22  C   UNL     1      -0.478  11.834  18.840  0.00  0.00    +0.000 C 
BRANCH  22  23
ATOM     23  O   UNL     1       0.277  12.700  17.977  0.00  0.00    +0.000 OA
ATOM     24  H   UNL     1      -0.189  12.770  17.126  0.00  0.00    +0.000 HD
ENDBRANCH  22  23
BRANCH  22  25
ATOM     25  C   UNL     1      -1.933  11.808  18.363  0.00  0.00    +0.000 C 
BRANCH  25  26
ATOM     26  O   UNL     1      -2.806  12.301  19.365  0.00  0.00    +0.000 OA
BRANCH  26  27
ATOM     27  C   UNL     1      -4.154  12.072  19.235  0.00  0.00    +0.000 A 
ATOM     28  C   UNL     1      -4.443  11.586  17.949  0.00  0.00    +0.000 A 
ATOM     29  C   UNL     1      -5.750  11.364  17.550  0.00  0.00    +0.000 A 
ATOM     30  C   UNL     1      -6.789  11.678  18.414  0.00  0.00    +0.000 A 
ATOM     31  C   UNL     1      -6.539  12.176  19.703  0.00  0.00    +0.000 A 
ATOM     32  C   UNL     1      -7.624  12.550  20.513  0.00  0.00    +0.000 A 
ATOM     33  C   UNL     1      -7.439  13.021  21.811  0.00  0.00    +0.000 A 
ATOM     34  C   UNL     1      -6.168  13.040  22.344  0.00  0.00    +0.000 A 
ATOM     35  C   UNL     1      -5.083  12.668  21.551  0.00  0.00    +0.000 A 
ATOM     36  C   UNL     1      -5.209  12.307  20.177  0.00  0.00    +0.000 A 
ENDBRANCH  26  27
ENDBRANCH  25  26
ENDBRANCH  22  25
ENDBRANCH  21  22
ENDBRANCH   6  21
TORSDOF 9
ENDMDL
MODEL 3
REMARK VINA RESULT:      -7.2      2.875      4.591
REMARK  Name = 
REMARK  10 active torsions:
REMARK  status: ('A' for Active; 'I' for Inactive)
REMARK    1  A    between atoms: C_1  and  S_2
REMARK    2  A    between atoms: S_2  and  N_5
REMARK    3  A    between atoms: N_5  and  C_6
REMARK    4  A    between atoms: C_9  and  C_10
REMARK    5  A    between atoms: N_15  and  C_16
REMARK    6  A    between atoms: C_16  and  C_17
REMARK    7  A    between atoms: C_17  and  O_18
REMARK    8  A    between atoms: C_17  and  C_19
REMARK    9  A    between atoms: C_19  and  O_20
REMARK   10  A    between atoms: O_20  and  C_21
REMARK                            x       y       z     vdW  Elec       q    Type
REMARK                         _______ _______ _______ _____ _____    ______ ____
ROOT
ATOM      1  C   UNL     1       2.802   5.266  19.949  0.00  0.00    +0.000 C 
ATOM      2  O   UNL     1       2.704   4.574  20.966  0.00  0.00    +0.000 OA
ATOM      3  N   UNL     1       2.001   6.384  19.743  0.00  0.00    +0.000 N 
ATOM      4  C   UNL     1       1.234   6.929  20.872  0.00  0.00    +0.000 C 
ATOM      5  C   UNL     1       1.502   8.449  21.053  0.00  0.00    +0.000 C 
ATOM      6  N   UNL     1       1.416   9.266  19.809  0.00  0.00    +0.000 NA
ATOM      7  C   UNL     1       2.264   8.616  18.780  0.00  0.00    +0.000 C 
ATOM      8  C   UNL     1       1.843   7.156  18.505  0.00  0.00    +0.000 C 
ENDROOT
BRANCH   1  12
ATOM      9  C   UNL     1       5.827   4.340  17.045  0.00  0.00    +0.000 A 
ATOM     10  C   UNL     1       6.119   5.164  18.131  0.00  0.00    +0.000 A 
ATOM     11  C   UNL     1       5.132   5.424  19.091  0.00  0.00    +0.000 A 
ATOM     12  C   UNL     1       3.849   4.872  18.961  0.00  0.00    +0.000 A 
ATOM     13  C   UNL     1       3.572   4.078  17.843  0.00  0.00    +0.000 A 
ATOM     14  C   UNL     1       4.567   3.769  16.917  0.00  0.00    +0.000 A 
BRANCH   9  15
ATOM     15  N   UNL     1       6.802   4.072  16.046  0.00  0.00    +0.000 N 
ATOM     16  H   UNL     1       6.927   3.085  15.810  0.00  0.00    +0.000 HD
BRANCH  15  18
ATOM     17  C   UNL     1       6.125   3.819  13.454  0.00  0.00    +0.000 C 
ATOM     18  S   UNL     1       6.754   4.993  14.632  0.00  0.00    +0.000 S 
ATOM     19  O   UNL     1       8.094   5.381  14.250  0.00  0.00    +0.000 OA
ATOM     20  O   UNL     1       5.720   5.979  14.858  0.00  0.00    +0.000 OA
ENDBRANCH  15  18
ENDBRANCH   9  15
ENDBRANCH   1  12
BRANCH   6  21
ATOM     21  C   UNL     1       0.008   9.413  19.388  0.00  0.00    +0.000 C 
BRANCH  21  22
ATOM     22  C   UNL     1      -0.352  10.641  18.508  0.00  0.00    +0.000 C 
BRANCH  22  23
ATOM     23  O   UNL     1      -0.975  10.243  17.275  0.00  0.00    +0.000 OA
ATOM     24  H   UNL     1      -0.311  10.289  16.565  0.00  0.00    +0.000 HD
ENDBRANCH  22  23
BRANCH  22  25
ATOM     25  C   UNL     1      -1.342  11.492  19.308  0.00  0.00    +0.000 C 
BRANCH  25  26
ATOM     26  O   UNL     1      -2.332  12.054  18.463  0.00  0.00    +0.000 OA
BRANCH  26  27
ATOM     27  C   UNL     1      -3.653  11.895  18.800  0.00  0.00    +0.000 A 
ATOM     28  C   UNL     1      -4.337  11.209  17.782  0.00  0.00    +0.000 A 
ATOM     29  C   UNL     1      -5.704  11.008  17.856  0.00  0.00    +0.000 A 
ATOM     30  C   UNL     1      -6.415  11.539  18.922  0.00  0.00    +0.000 A 
ATOM     31  C   UNL     1      -5.768  12.240  19.952  0.00  0.00    +0.000 A 
ATOM     32  C   UNL     1      -6.540  12.824  20.971  0.00  0.00    +0.000 A 
ATOM     33  C   UNL     1      -5.952  13.503  22.035  0.00  0.00    +0.000 A 
ATOM     34  C   UNL     1      -4.577  13.532  22.136  0.00  0.00    +0.000 A 
ATOM     35  C   UNL     1      -3.800  12.953  21.132  0.00  0.00    +0.000 A 
ATOM     36  C   UNL     1      -4.356  12.363  19.959  0.00  0.00    +0.000 A 
ENDBRANCH  26  27
ENDBRANCH  25  26
ENDBRANCH  22  25
ENDBRANCH  21  22
ENDBRANCH   6  21
TORSDOF 9
ENDMDL
MODEL 4
REMARK VINA RESULT:      -7.2      4.287      6.381
REMARK  Name = 
REMARK  10 active torsions:
REMARK  status: ('A' for Active; 'I' for Inactive)
REMARK    1  A    between atoms: C_1  and  S_2
REMARK    2  A    between atoms: S_2  and  N_5
REMARK    3  A    between atoms: N_5  and  C_6
REMARK    4  A    between atoms: C_9  and  C_10
REMARK    5  A    between atoms: N_15  and  C_16
REMARK    6  A    between atoms: C_16  and  C_17
REMARK    7  A    between atoms: C_17  and  O_18
REMARK    8  A    between atoms: C_17  and  C_19
REMARK    9  A    between atoms: C_19  and  O_20
REMARK   10  A    between atoms: O_20  and  C_21
REMARK                            x       y       z     vdW  Elec       q    Type
REMARK                         _______ _______ _______ _____ _____    ______ ____
ROOT
ATOM      1  C   UNL     1       2.525   5.437  20.061  0.00  0.00    +0.000 C 
ATOM      2  O   UNL     1       2.401   4.782  21.100  0.00  0.00    +0.000 OA
ATOM      3  N   UNL     1       1.792   6.596  19.833  0.00  0.00    +0.000 N 
ATOM      4  C   UNL     1       1.079   7.221  20.958  0.00  0.00    +0.000 C 
ATOM      5  C   UNL     1       1.444   8.725  21.089  0.00  0.00    +0.000 C 
ATOM      6  N   UNL     1       1.388   9.510  19.822  0.00  0.00    +0.000 NA
ATOM      7  C   UNL     1       2.177   8.778  18.800  0.00  0.00    +0.000 C 
ATOM      8  C   UNL     1       1.661   7.340  18.576  0.00  0.00    +0.000 C 
ENDROOT
BRANCH   1  12
ATOM      9  C   UNL     1       5.441   4.240  17.145  0.00  0.00    +0.000 A 
ATOM     10  C   UNL     1       5.806   5.055  18.215  0.00  0.00    +0.000 A 
ATOM     11  C   UNL     1       4.851   5.403  19.180  0.00  0.00    +0.000 A 
ATOM     12  C   UNL     1       3.529   4.949  19.070  0.00  0.00    +0.000 A 
ATOM     13  C   UNL     1       3.181   4.162  17.967  0.00  0.00    +0.000 A 
ATOM     14  C   UNL     1       4.140   3.764  17.037  0.00  0.00    +0.000 A 
BRANCH   9  15
ATOM     15  N   UNL     1       6.383   3.883  16.141  0.00  0.00    +0.000 N 
ATOM     16  H   UNL     1       6.337   2.912  15.823  0.00  0.00    +0.000 HD
BRANCH  15  18
ATOM     17  C   UNL     1       6.139   3.826  13.462  0.00  0.00    +0.000 C 
ATOM     18  S   UNL     1       6.542   4.911  14.811  0.00  0.00    +0.000 S 
ATOM     19  O   UNL     1       7.917   5.342  14.682  0.00  0.00    +0.000 OA
ATOM     20  O   UNL     1       5.463   5.866  14.939  0.00  0.00    +0.000 OA
ENDBRANCH  15  18
ENDBRANCH   9  15
ENDBRANCH   1  12
BRANCH   6  21
ATOM     21  C   UNL     1      -0.015   9.732  19.418  0.00  0.00    +0.000 C 
BRANCH  21  22
ATOM     22  C   UNL     1      -0.282  10.786  18.308  0.00  0.00    +0.000 C 
BRANCH  22  23
ATOM     23  O   UNL     1      -1.353  10.378  17.440  0.00  0.00    +0.000 OA
ATOM     24  H   UNL     1      -2.150  10.235  17.980  0.00  0.00    +0.000 HD
ENDBRANCH  22  23
BRANCH  22  25
ATOM     25  C   UNL     1      -0.684  12.085  19.011  0.00  0.00    +0.000 C 
BRANCH  25  26
ATOM     26  O   UNL     1       0.441  12.715  19.601  0.00  0.00    +0.000 OA
BRANCH  26  27
ATOM     27  C   UNL     1       0.707  14.023  19.279  0.00  0.00    +0.000 A 
ATOM     28  C   UNL     1      -0.461  14.797  19.382  0.00  0.00    +0.000 A 
ATOM     29  C   UNL     1      -0.461  16.134  19.021  0.00  0.00    +0.000 A 
ATOM     30  C   UNL     1       0.693  16.699  18.501  0.00  0.00    +0.000 A 
ATOM     31  C   UNL     1       1.876  15.954  18.373  0.00  0.00    +0.000 A 
ATOM     32  C   UNL     1       2.997  16.550  17.770  0.00  0.00    +0.000 A 
ATOM     33  C   UNL     1       4.206  15.871  17.645  0.00  0.00    +0.000 A 
ATOM     34  C   UNL     1       4.333  14.616  18.201  0.00  0.00    +0.000 A 
ATOM     35  C   UNL     1       3.228  14.015  18.805  0.00  0.00    +0.000 A 
ATOM     36  C   UNL     1       1.936  14.617  18.839  0.00  0.00    +0.000 A 
ENDBRANCH  26  27
ENDBRANCH  25  26
ENDBRANCH  22  25
ENDBRANCH  21  22
ENDBRANCH   6  21
TORSDOF 9
ENDMDL
MODEL 5
REMARK VINA RESULT:      -7.2      2.221      3.643
REMARK  Name = 
REMARK  10 active torsions:
REMARK  status: ('A' for Active; 'I' for Inactive)
REMARK    1  A    between atoms: C_1  and  S_2
REMARK    2  A    between atoms: S_2  and  N_5
REMARK    3  A    between atoms: N_5  and  C_6
REMARK    4  A    between atoms: C_9  and  C_10
REMARK    5  A    between atoms: N_15  and  C_16
REMARK    6  A    between atoms: C_16  and  C_17
REMARK    7  A    between atoms: C_17  and  O_18
REMARK    8  A    between atoms: C_17  and  C_19
REMARK    9  A    between atoms: C_19  and  O_20
REMARK   10  A    between atoms: O_20  and  C_21
REMARK                            x       y       z     vdW  Elec       q    Type
REMARK                         _______ _______ _______ _____ _____    ______ ____
ROOT
ATOM      1  C   UNL     1       1.725   9.319  18.521  0.00  0.00    +0.000 C 
ATOM      2  O   UNL     1       1.961   9.643  17.354  0.00  0.00    +0.000 OA
ATOM      3  N   UNL     1       1.094  10.183  19.409  0.00  0.00    +0.000 N 
ATOM      4  C   UNL     1       0.430  11.385  18.882  0.00  0.00    +0.000 C 
ATOM      5  C   UNL     1      -1.040  11.477  19.377  0.00  0.00    +0.000 C 
ATOM      6  N   UNL     1      -1.238  11.265  20.839  0.00  0.00    +0.000 NA
ATOM      7  C   UNL     1      -0.548  10.006  21.212  0.00  0.00    +0.000 C 
ATOM      8  C   UNL     1       0.957  10.032  20.862  0.00  0.00    +0.000 C 
ENDROOT
BRANCH   1  12
ATOM      9  C   UNL     1       2.704   5.268  19.556  0.00  0.00    +0.000 A 
ATOM     10  C   UNL     1       2.989   5.760  18.283  0.00  0.00    +0.000 A 
ATOM     11  C   UNL     1       2.700   7.096  17.974  0.00  0.00    +0.000 A 
ATOM     12  C   UNL     1       2.114   7.938  18.932  0.00  0.00    +0.000 A 
ATOM     13  C   UNL     1       1.806   7.408  20.190  0.00  0.00    +0.000 A 
ATOM     14  C   UNL     1       2.146   6.097  20.520  0.00  0.00    +0.000 A 
BRANCH   9  15
ATOM     15  N   UNL     1       2.970   3.912  19.893  0.00  0.00    +0.000 N 
ATOM     16  H   UNL     1       2.213   3.255  19.692  0.00  0.00    +0.000 HD
BRANCH  15  18
ATOM     17  C   UNL     1       4.097   2.816  17.711  0.00  0.00    +0.000 C 
ATOM     18  S   UNL     1       4.444   3.253  19.398  0.00  0.00    +0.000 S 
ATOM     19  O   UNL     1       4.726   2.052  20.154  0.00  0.00    +0.000 OA
ATOM     20  O   UNL     1       5.368   4.364  19.379  0.00  0.00    +0.000 OA
ENDBRANCH  15  18
ENDBRANCH   9  15
ENDBRANCH   1  12
BRANCH   6  21
ATOM     21  C   UNL     1      -0.752  12.436  21.598  0.00  0.00    +0.000 C 
BRANCH  21  22
ATOM     22  C   UNL     1      -1.158  12.539  23.093  0.00  0.00    +0.000 C 
BRANCH  22  23
ATOM     23  O   UNL     1      -1.002  13.879  23.591  0.00  0.00    +0.000 OA
ATOM     24  H   UNL     1      -0.257  13.891  24.216  0.00  0.00    +0.000 HD
ENDBRANCH  22  23
BRANCH  22  25
ATOM     25  C   UNL     1      -2.635  12.147  23.186  0.00  0.00    +0.000 C 
BRANCH  25  26
ATOM     26  O   UNL     1      -3.473  13.225  22.805  0.00  0.00    +0.000 OA
BRANCH  26  27
ATOM     27  C   UNL     1      -4.793  12.966  22.530  0.00  0.00    +0.000 A 
ATOM     28  C   UNL     1      -5.567  13.084  23.697  0.00  0.00    +0.000 A 
ATOM     29  C   UNL     1      -6.918  12.784  23.688  0.00  0.00    +0.000 A 
ATOM     30  C   UNL     1      -7.502  12.308  22.524  0.00  0.00    +0.000 A 
ATOM     31  C   UNL     1      -6.759  12.166  21.341  0.00  0.00    +0.000 A 
ATOM     32  C   UNL     1      -7.378  11.609  20.209  0.00  0.00    +0.000 A 
ATOM     33  C   UNL     1      -6.701  11.473  19.000  0.00  0.00    +0.000 A 
ATOM     34  C   UNL     1      -5.421  11.974  18.885  0.00  0.00    +0.000 A 
ATOM     35  C   UNL     1      -4.798  12.533  20.002  0.00  0.00    +0.000 A 
ATOM     36  C   UNL     1      -5.402  12.573  21.293  0.00  0.00    +0.000 A 
ENDBRANCH  26  27
ENDBRANCH  25  26
ENDBRANCH  22  25
ENDBRANCH  21  22
ENDBRANCH   6  21
TORSDOF 9
ENDMDL
MODEL 6
REMARK VINA RESULT:      -7.2      2.135      3.781
REMARK  Name = 
REMARK  10 active torsions:
REMARK  status: ('A' for Active; 'I' for Inactive)
REMARK    1  A    between atoms: C_1  and  S_2
REMARK    2  A    between atoms: S_2  and  N_5
REMARK    3  A    between atoms: N_5  and  C_6
REMARK    4  A    between atoms: C_9  and  C_10
REMARK    5  A    between atoms: N_15  and  C_16
REMARK    6  A    between atoms: C_16  and  C_17
REMARK    7  A    between atoms: C_17  and  O_18
REMARK    8  A    between atoms: C_17  and  C_19
REMARK    9  A    between atoms: C_19  and  O_20
REMARK   10  A    between atoms: O_20  and  C_21
REMARK                            x       y       z     vdW  Elec       q    Type
REMARK                         _______ _______ _______ _____ _____    ______ ____
ROOT
ATOM      1  C   UNL     1       1.010   9.195  21.323  0.00  0.00    +0.000 C 
ATOM      2  O   UNL     1       1.546   9.293  22.431  0.00  0.00    +0.000 OA
ATOM      3  N   UNL     1       0.020  10.077  20.907  0.00  0.00    +0.000 N 
ATOM      4  C   UNL     1      -0.190  11.321  21.662  0.00  0.00    +0.000 C 
ATOM      5  C   UNL     1      -0.152  12.560  20.726  0.00  0.00    +0.000 C 
ATOM      6  N   UNL     1      -0.978  12.454  19.489  0.00  0.00    +0.000 NA
ATOM      7  C   UNL     1      -0.630  11.175  18.821  0.00  0.00    +0.000 C 
ATOM      8  C   UNL     1      -0.856   9.951  19.736  0.00  0.00    +0.000 C 
ENDROOT
BRANCH   1  12
ATOM      9  C   UNL     1       2.579   6.017  18.898  0.00  0.00    +0.000 A 
ATOM     10  C   UNL     1       2.036   5.745  20.154  0.00  0.00    +0.000 A 
ATOM     11  C   UNL     1       1.492   6.788  20.915  0.00  0.00    +0.000 A 
ATOM     12  C   UNL     1       1.501   8.104  20.430  0.00  0.00    +0.000 A 
ATOM     13  C   UNL     1       2.084   8.354  19.183  0.00  0.00    +0.000 A 
ATOM     14  C   UNL     1       2.573   7.312  18.396  0.00  0.00    +0.000 A 
BRANCH   9  15
ATOM     15  N   UNL     1       3.154   4.982  18.110  0.00  0.00    +0.000 N 
ATOM     16  H   UNL     1       3.153   5.150  17.101  0.00  0.00    +0.000 HD
BRANCH  15  18
ATOM     17  C   UNL     1       5.517   4.280  17.033  0.00  0.00    +0.000 C 
ATOM     18  S   UNL     1       4.655   4.373  18.585  0.00  0.00    +0.000 S 
ATOM     19  O   UNL     1       4.499   3.040  19.124  0.00  0.00    +0.000 OA
ATOM     20  O   UNL     1       5.265   5.431  19.359  0.00  0.00    +0.000 OA
ENDBRANCH  15  18
ENDBRANCH   9  15
ENDBRANCH   1  12
BRANCH   6  21
ATOM     21  C   UNL     1      -2.413  12.561  19.819  0.00  0.00    +0.000 C 
BRANCH  21  22
ATOM     22  C   UNL     1      -2.816  13.539  20.957  0.00  0.00    +0.000 C 
BRANCH  22  23
ATOM     23  O   UNL     1      -3.063  14.862  20.453  0.00  0.00    +0.000 OA
ATOM     24  H   UNL     1      -3.655  15.322  21.073  0.00  0.00    +0.000 HD
ENDBRANCH  22  23
BRANCH  22  25
ATOM     25  C   UNL     1      -4.106  12.997  21.578  0.00  0.00    +0.000 C 
BRANCH  25  26
ATOM     26  O   UNL     1      -5.229  13.757  21.163  0.00  0.00    +0.000 OA
BRANCH  26  27
ATOM     27  C   UNL     1      -5.918  13.357  20.045  0.00  0.00    +0.000 A 
ATOM     28  C   UNL     1      -6.089  11.963  20.051  0.00  0.00    +0.000 A 
ATOM     29  C   UNL     1      -6.680  11.314  18.981  0.00  0.00    +0.000 A 
ATOM     30  C   UNL     1      -7.058  12.046  17.865  0.00  0.00    +0.000 A 
ATOM     31  C   UNL     1      -6.892  13.440  17.817  0.00  0.00    +0.000 A 
ATOM     32  C   UNL     1      -7.219  14.127  16.636  0.00  0.00    +0.000 A 
ATOM     33  C   UNL     1      -7.106  15.512  16.541  0.00  0.00    +0.000 A 
ATOM     34  C   UNL     1      -6.745  16.235  17.658  0.00  0.00    +0.000 A 
ATOM     35  C   UNL     1      -6.421  15.564  18.838  0.00  0.00    +0.000 A 
ATOM     36  C   UNL     1      -6.394  14.142  18.943  0.00  0.00    +0.000 A 
ENDBRANCH  26  27
ENDBRANCH  25  26
ENDBRANCH  22  25
ENDBRANCH  21  22
ENDBRANCH   6  21
TORSDOF 9
ENDMDL
MODEL 7
REMARK VINA RESULT:      -7.1      5.368      8.806
REMARK  Name = 
REMARK  10 active torsions:
REMARK  status: ('A' for Active; 'I' for Inactive)
REMARK    1  A    between atoms: C_1  and  S_2
REMARK    2  A    between atoms: S_2  and  N_5
REMARK    3  A    between atoms: N_5  and  C_6
REMARK    4  A    between atoms: C_9  and  C_10
REMARK    5  A    between atoms: N_15  and  C_16
REMARK    6  A    between atoms: C_16  and  C_17
REMARK    7  A    between atoms: C_17  and  O_18
REMARK    8  A    between atoms: C_17  and  C_19
REMARK    9  A    between atoms: C_19  and  O_20
REMARK   10  A    between atoms: O_20  and  C_21
REMARK                            x       y       z     vdW  Elec       q    Type
REMARK                         _______ _______ _______ _____ _____    ______ ____
ROOT
ATOM      1  C   UNL     1      -0.049  11.033  18.609  0.00  0.00    +0.000 C 
ATOM      2  O   UNL     1      -1.253  10.937  18.356  0.00  0.00    +0.000 OA
ATOM      3  N   UNL     1       0.595  12.264  18.654  0.00  0.00    +0.000 N 
ATOM      4  C   UNL     1      -0.215  13.491  18.696  0.00  0.00    +0.000 C 
ATOM      5  C   UNL     1       0.206  14.402  19.882  0.00  0.00    +0.000 C 
ATOM      6  N   UNL     1       1.672  14.637  20.020  0.00  0.00    +0.000 NA
ATOM      7  C   UNL     1       2.347  13.315  19.998  0.00  0.00    +0.000 C 
ATOM      8  C   UNL     1       2.039  12.518  18.711  0.00  0.00    +0.000 C 
ENDROOT
BRANCH   1  12
ATOM      9  C   UNL     1       2.188   7.500  19.590  0.00  0.00    +0.000 A 
ATOM     10  C   UNL     1       1.450   8.164  20.570  0.00  0.00    +0.000 A 
ATOM     11  C   UNL     1       0.694   9.292  20.224  0.00  0.00    +0.000 A 
ATOM     12  C   UNL     1       0.683   9.766  18.904  0.00  0.00    +0.000 A 
ATOM     13  C   UNL     1       1.461   9.102  17.948  0.00  0.00    +0.000 A 
ATOM     14  C   UNL     1       2.168   7.946  18.274  0.00  0.00    +0.000 A 
BRANCH   9  15
ATOM     15  N   UNL     1       2.979   6.364  19.913  0.00  0.00    +0.000 N 
ATOM     16  H   UNL     1       3.393   6.371  20.848  0.00  0.00    +0.000 HD
BRANCH  15  18
ATOM     17  C   UNL     1       3.794   3.824  19.560  0.00  0.00    +0.000 C 
ATOM     18  S   UNL     1       2.334   4.838  19.587  0.00  0.00    +0.000 S 
ATOM     19  O   UNL     1       1.724   4.830  18.276  0.00  0.00    +0.000 OA
ATOM     20  O   UNL     1       1.580   4.485  20.770  0.00  0.00    +0.000 OA
ENDBRANCH  15  18
ENDBRANCH   9  15
ENDBRANCH   1  12
BRANCH   6  21
ATOM     21  C   UNL     1       2.148  15.546  18.958  0.00  0.00    +0.000 C 
BRANCH  21  22
ATOM     22  C   UNL     1       3.640  15.438  18.538  0.00  0.00    +0.000 C 
BRANCH  22  23
ATOM     23  O   UNL     1       3.776  15.252  17.119  0.00  0.00    +0.000 OA
ATOM     24  H   UNL     1       4.724  15.210  16.904  0.00  0.00    +0.000 HD
ENDBRANCH  22  23
BRANCH  22  25
ATOM     25  C   UNL     1       4.313  16.756  18.930  0.00  0.00    +0.000 C 
BRANCH  25  26
ATOM     26  O   UNL     1       5.672  16.773  18.529  0.00  0.00    +0.000 OA
BRANCH  26  27
ATOM     27  C   UNL     1       6.569  15.987  19.208  0.00  0.00    +0.000 A 
ATOM     28  C   UNL     1       6.847  16.542  20.469  0.00  0.00    +0.000 A 
ATOM     29  C   UNL     1       7.792  15.972  21.303  0.00  0.00    +0.000 A 
ATOM     30  C   UNL     1       8.513  14.871  20.865  0.00  0.00    +0.000 A 
ATOM     31  C   UNL     1       8.272  14.296  19.607  0.00  0.00    +0.000 A 
ATOM     32  C   UNL     1       9.079  13.229  19.178  0.00  0.00    +0.000 A 
ATOM     33  C   UNL     1       8.866  12.598  17.954  0.00  0.00    +0.000 A 
ATOM     34  C   UNL     1       7.786  12.972  17.184  0.00  0.00    +0.000 A 
ATOM     35  C   UNL     1       6.975  14.028  17.602  0.00  0.00    +0.000 A 
ATOM     36  C   UNL     1       7.232  14.790  18.780  0.00  0.00    +0.000 A 
ENDBRANCH  26  27
ENDBRANCH  25  26
ENDBRANCH  22  25
ENDBRANCH  21  22
ENDBRANCH   6  21
TORSDOF 9
ENDMDL
MODEL 8
REMARK VINA RESULT:      -7.1      2.023      3.546
REMARK  Name = 
REMARK  10 active torsions:
REMARK  status: ('A' for Active; 'I' for Inactive)
REMARK    1  A    between atoms: C_1  and  S_2
REMARK    2  A    between atoms: S_2  and  N_5
REMARK    3  A    between atoms: N_5  and  C_6
REMARK    4  A    between atoms: C_9  and  C_10
REMARK    5  A    between atoms: N_15  and  C_16
REMARK    6  A    between atoms: C_16  and  C_17
REMARK    7  A    between atoms: C_17  and  O_18
REMARK    8  A    between atoms: C_17  and  C_19
REMARK    9  A    between atoms: C_19  and  O_20
REMARK   10  A    between atoms: O_20  and  C_21
REMARK                            x       y       z     vdW  Elec       q    Type
REMARK                         _______ _______ _______ _____ _____    ______ ____
ROOT
ATOM      1  C   UNL     1       1.784   9.384  18.498  0.00  0.00    +0.000 C 
ATOM      2  O   UNL     1       2.144   9.793  17.390  0.00  0.00    +0.000 OA
ATOM      3  N   UNL     1       1.187  10.224  19.431  0.00  0.00    +0.000 N 
ATOM      4  C   UNL     1       0.702  11.542  18.996  0.00  0.00    +0.000 C 
ATOM      5  C   UNL     1      -0.782  11.758  19.401  0.00  0.00    +0.000 C 
ATOM      6  N   UNL     1      -1.113  11.426  20.816  0.00  0.00    +0.000 NA
ATOM      7  C   UNL     1      -0.598  10.063  21.094  0.00  0.00    +0.000 C 
ATOM      8  C   UNL     1       0.923   9.945  20.847  0.00  0.00    +0.000 C 
ENDROOT
BRANCH   1  12
ATOM      9  C   UNL     1       2.543   5.260  19.423  0.00  0.00    +0.000 A 
ATOM     10  C   UNL     1       2.257   6.171  20.439  0.00  0.00    +0.000 A 
ATOM     11  C   UNL     1       1.972   7.505  20.117  0.00  0.00    +0.000 A 
ATOM     12  C   UNL     1       1.986   7.933  18.781  0.00  0.00    +0.000 A 
ATOM     13  C   UNL     1       2.311   7.006  17.784  0.00  0.00    +0.000 A 
ATOM     14  C   UNL     1       2.537   5.666  18.095  0.00  0.00    +0.000 A 
BRANCH   9  15
ATOM     15  N   UNL     1       2.853   3.904  19.721  0.00  0.00    +0.000 N 
ATOM     16  H   UNL     1       2.113   3.230  19.511  0.00  0.00    +0.000 HD
BRANCH  15  18
ATOM     17  C   UNL     1       4.591   1.933  20.295  0.00  0.00    +0.000 C 
ATOM     18  S   UNL     1       4.339   3.302  19.190  0.00  0.00    +0.000 S 
ATOM     19  O   UNL     1       5.376   4.287  19.407  0.00  0.00    +0.000 OA
ATOM     20  O   UNL     1       4.080   2.759  17.876  0.00  0.00    +0.000 OA
ENDBRANCH  15  18
ENDBRANCH   9  15
ENDBRANCH   1  12
BRANCH   6  21
ATOM     21  C   UNL     1      -0.561  12.449  21.727  0.00  0.00    +0.000 C 
BRANCH  21  22
ATOM     22  C   UNL     1      -1.271  12.652  23.093  0.00  0.00    +0.000 C 
BRANCH  22  23
ATOM     23  O   UNL     1      -1.284  14.035  23.481  0.00  0.00    +0.000 OA
ATOM     24  H   UNL     1      -1.407  14.084  24.445  0.00  0.00    +0.000 HD
ENDBRANCH  22  23
BRANCH  22  25
ATOM     25  C   UNL     1      -2.716  12.174  22.923  0.00  0.00    +0.000 C 
BRANCH  25  26
ATOM     26  O   UNL     1      -3.510  13.166  22.295  0.00  0.00    +0.000 OA
BRANCH  26  27
ATOM     27  C   UNL     1      -4.812  12.865  21.979  0.00  0.00    +0.000 A 
ATOM     28  C   UNL     1      -5.638  13.036  23.102  0.00  0.00    +0.000 A 
ATOM     29  C   UNL     1      -6.982  12.709  23.053  0.00  0.00    +0.000 A 
ATOM     30  C   UNL     1      -7.506  12.152  21.896  0.00  0.00    +0.000 A 
ATOM     31  C   UNL     1      -6.708  11.955  20.757  0.00  0.00    +0.000 A 
ATOM     32  C   UNL     1      -7.266  11.318  19.635  0.00  0.00    +0.000 A 
ATOM     33  C   UNL     1      -6.533  11.124  18.466  0.00  0.00    +0.000 A 
ATOM     34  C   UNL     1      -5.259  11.644  18.377  0.00  0.00    +0.000 A 
ATOM     35  C   UNL     1      -4.696  12.280  19.484  0.00  0.00    +0.000 A 
ATOM     36  C   UNL     1      -5.358  12.385  20.743  0.00  0.00    +0.000 A 
ENDBRANCH  26  27
ENDBRANCH  25  26
ENDBRANCH  22  25
ENDBRANCH  21  22
ENDBRANCH   6  21
TORSDOF 9
ENDMDL
MODEL 9
REMARK VINA RESULT:      -7.1      1.950      3.298
REMARK  Name = 
REMARK  10 active torsions:
REMARK  status: ('A' for Active; 'I' for Inactive)
REMARK    1  A    between atoms: C_1  and  S_2
REMARK    2  A    between atoms: S_2  and  N_5
REMARK    3  A    between atoms: N_5  and  C_6
REMARK    4  A    between atoms: C_9  and  C_10
REMARK    5  A    between atoms: N_15  and  C_16
REMARK    6  A    between atoms: C_16  and  C_17
REMARK    7  A    between atoms: C_17  and  O_18
REMARK    8  A    between atoms: C_17  and  C_19
REMARK    9  A    between atoms: C_19  and  O_20
REMARK   10  A    between atoms: O_20  and  C_21
REMARK                            x       y       z     vdW  Elec       q    Type
REMARK                         _______ _______ _______ _____ _____    ______ ____
ROOT
ATOM      1  C   UNL     1       1.339   8.998  21.209  0.00  0.00    +0.000 C 
ATOM      2  O   UNL     1       1.821   8.954  22.345  0.00  0.00    +0.000 OA
ATOM      3  N   UNL     1       0.604  10.092  20.767  0.00  0.00    +0.000 N 
ATOM      4  C   UNL     1       0.646  11.340  21.542  0.00  0.00    +0.000 C 
ATOM      5  C   UNL     1       1.021  12.549  20.642  0.00  0.00    +0.000 C 
ATOM      6  N   UNL     1       0.262  12.654  19.363  0.00  0.00    +0.000 NA
ATOM      7  C   UNL     1       0.340  11.339  18.680  0.00  0.00    +0.000 C 
ATOM      8  C   UNL     1      -0.212  10.189  19.551  0.00  0.00    +0.000 C 
ENDROOT
BRANCH   1  12
ATOM      9  C   UNL     1       2.285   5.595  18.767  0.00  0.00    +0.000 A 
ATOM     10  C   UNL     1       1.807   5.421  20.066  0.00  0.00    +0.000 A 
ATOM     11  C   UNL     1       1.465   6.542  20.835  0.00  0.00    +0.000 A 
ATOM     12  C   UNL     1       1.612   7.836  20.314  0.00  0.00    +0.000 A 
ATOM     13  C   UNL     1       2.128   7.982  19.021  0.00  0.00    +0.000 A 
ATOM     14  C   UNL     1       2.414   6.870  18.231  0.00  0.00    +0.000 A 
BRANCH   9  15
ATOM     15  N   UNL     1       2.657   4.478  17.969  0.00  0.00    +0.000 N 
ATOM     16  H   UNL     1       2.539   4.604  16.960  0.00  0.00    +0.000 HD
BRANCH  15  18
ATOM     17  C   UNL     1       5.036   4.076  16.779  0.00  0.00    +0.000 C 
ATOM     18  S   UNL     1       4.146   3.748  18.282  0.00  0.00    +0.000 S 
ATOM     19  O   UNL     1       3.973   2.319  18.432  0.00  0.00    +0.000 OA
ATOM     20  O   UNL     1       4.747   4.546  19.327  0.00  0.00    +0.000 OA
ENDBRANCH  15  18
ENDBRANCH   9  15
ENDBRANCH   1  12
BRANCH   6  21
ATOM     21  C   UNL     1      -1.126  13.088  19.624  0.00  0.00    +0.000 C 
BRANCH  21  22
ATOM     22  C   UNL     1      -1.329  14.331  20.533  0.00  0.00    +0.000 C 
BRANCH  22  23
ATOM     23  O   UNL     1      -1.921  15.423  19.809  0.00  0.00    +0.000 OA
ATOM     24  H   UNL     1      -1.765  15.284  18.859  0.00  0.00    +0.000 HD
ENDBRANCH  22  23
BRANCH  22  25
ATOM     25  C   UNL     1      -2.280  13.912  21.658  0.00  0.00    +0.000 C 
BRANCH  25  26
ATOM     26  O   UNL     1      -2.912  12.679  21.359  0.00  0.00    +0.000 OA
BRANCH  26  27
ATOM     27  C   UNL     1      -4.283  12.642  21.292  0.00  0.00    +0.000 A 
ATOM     28  C   UNL     1      -4.842  12.991  22.532  0.00  0.00    +0.000 A 
ATOM     29  C   UNL     1      -6.210  12.940  22.736  0.00  0.00    +0.000 A 
ATOM     30  C   UNL     1      -7.033  12.485  21.717  0.00  0.00    +0.000 A 
ATOM     31  C   UNL     1      -6.511  12.116  20.467  0.00  0.00    +0.000 A 
ATOM     32  C   UNL     1      -7.376  11.590  19.493  0.00  0.00    +0.000 A 
ATOM     33  C   UNL     1      -6.920  11.237  18.225  0.00  0.00    +0.000 A 
ATOM     34  C   UNL     1      -5.607  11.488  17.889  0.00  0.00    +0.000 A 
ATOM     35  C   UNL     1      -4.739  12.013  18.846  0.00  0.00    +0.000 A 
ATOM     36  C   UNL     1      -5.127  12.266  20.195  0.00  0.00    +0.000 A 
ENDBRANCH  26  27
ENDBRANCH  25  26
ENDBRANCH  22  25
ENDBRANCH  21  22
ENDBRANCH   6  21
TORSDOF 9
ENDMDL
