MODEL 1
REMARK VINA RESULT:      -7.9      0.000      0.000
REMARK  Name = 
REMARK  4 active torsions:
REMARK  status: ('A' for Active; 'I' for Inactive)
REMARK    1  A    between atoms: C_1  and  O_2
REMARK    2  A    between atoms: O_2  and  C_3
REMARK    3  A    between atoms: C_6  and  C_7
REMARK    4  A    between atoms: C_7  and  N_8
REMARK                            x       y       z     vdW  Elec       q    Type
REMARK                         _______ _______ _______ _____ _____    ______ ____
ROOT
ATOM      1  N   UNL     1       2.783   5.481  18.161  0.00  0.00    +0.000 N 
ATOM      2  C   UNL     1       3.875   5.306  17.249  0.00  0.00    +0.000 A 
ATOM      3  C   UNL     1       4.435   6.391  16.555  0.00  0.00    +0.000 A 
ATOM      4  C   UNL     1       5.479   6.203  15.640  0.00  0.00    +0.000 A 
ATOM      5  C   UNL     1       5.937   4.920  15.350  0.00  0.00    +0.000 A 
ATOM      6  C   UNL     1       5.396   3.828  16.024  0.00  0.00    +0.000 A 
ATOM      7  C   UNL     1       4.407   4.029  16.996  0.00  0.00    +0.000 A 
ATOM      8  C   UNL     1       3.988   2.899  17.858  0.00  0.00    +0.000 A 
ATOM      9  O   UNL     1       4.528   1.803  17.776  0.00  0.00    +0.000 OA
ATOM     10  C   UNL     1       2.902   3.129  18.825  0.00  0.00    +0.000 A 
ATOM     11  C   UNL     1       2.647   2.241  19.866  0.00  0.00    +0.000 A 
ATOM     12  C   UNL     1       1.568   2.479  20.718  0.00  0.00    +0.000 A 
ATOM     13  C   UNL     1       0.669   3.506  20.432  0.00  0.00    +0.000 A 
ATOM     14  C   UNL     1       0.943   4.396  19.397  0.00  0.00    +0.000 A 
ATOM     15  C   UNL     1       2.161   4.309  18.719  0.00  0.00    +0.000 A 
ENDROOT
BRANCH   1  16
ATOM     16  C   UNL     1       3.211   6.325  19.336  0.00  0.00    +0.000 C 
BRANCH  16  20
ATOM     17  C   UNL     1       0.540   9.708  19.759  0.00  0.00    +0.000 A 
ATOM     18  C   UNL     1       0.786   8.871  20.848  0.00  0.00    +0.000 A 
ATOM     19  C   UNL     1       1.697   7.820  20.735  0.00  0.00    +0.000 A 
ATOM     20  C   UNL     1       2.331   7.541  19.511  0.00  0.00    +0.000 A 
ATOM     21  C   UNL     1       2.110   8.424  18.448  0.00  0.00    +0.000 A 
ATOM     22  C   UNL     1       1.215   9.490  18.563  0.00  0.00    +0.000 A 
BRANCH  17  24
ATOM     23  C   UNL     1      -0.620  10.999  21.352  0.00  0.00    +0.000 C 
ATOM     24  O   UNL     1      -0.393  10.675  19.987  0.00  0.00    +0.000 OA
ENDBRANCH  17  24
ENDBRANCH  16  20
ENDBRANCH   1  16
TORSDOF 3
ENDMDL
MODEL 2
REMARK VINA RESULT:      -7.9      1.342      1.702
REMARK  Name = 
REMARK  4 active torsions:
REMARK  status: ('A' for Active; 'I' for Inactive)
REMARK    1  A    between atoms: C_1  and  O_2
REMARK    2  A    between atoms: O_2  and  C_3
REMARK    3  A    between atoms: C_6  and  C_7
REMARK    4  A    between atoms: C_7  and  N_8
REMARK                            x       y       z     vdW  Elec       q    Type
REMARK                         _______ _______ _______ _____ _____    ______ ____
ROOT
ATOM      1  N   UNL     1       3.126   5.754  18.671  0.00  0.00    +0.000 N 
ATOM      2  C   UNL     1       4.473   5.672  18.185  0.00  0.00    +0.000 A 
ATOM      3  C   UNL     1       5.083   6.753  17.527  0.00  0.00    +0.000 A 
ATOM      4  C   UNL     1       6.387   6.650  17.026  0.00  0.00    +0.000 A 
ATOM      5  C   UNL     1       7.080   5.445  17.111  0.00  0.00    +0.000 A 
ATOM      6  C   UNL     1       6.494   4.358  17.757  0.00  0.00    +0.000 A 
ATOM      7  C   UNL     1       5.221   4.490  18.326  0.00  0.00    +0.000 A 
ATOM      8  C   UNL     1       4.692   3.411  19.192  0.00  0.00    +0.000 A 
ATOM      9  O   UNL     1       5.367   2.426  19.465  0.00  0.00    +0.000 OA
ATOM     10  C   UNL     1       3.326   3.553  19.722  0.00  0.00    +0.000 A 
ATOM     11  C   UNL     1       2.858   2.759  20.766  0.00  0.00    +0.000 A 
ATOM     12  C   UNL     1       1.536   2.898  21.189  0.00  0.00    +0.000 A 
ATOM     13  C   UNL     1       0.656   3.707  20.472  0.00  0.00    +0.000 A 
ATOM     14  C   UNL     1       1.140   4.507  19.439  0.00  0.00    +0.000 A 
ATOM     15  C   UNL     1       2.514   4.561  19.196  0.00  0.00    +0.000 A 
ENDROOT
BRANCH   1  16
ATOM     16  C   UNL     1       3.025   6.790  19.763  0.00  0.00    +0.000 C 
BRANCH  16  20
ATOM     17  C   UNL     1       0.360  10.069  18.809  0.00  0.00    +0.000 A 
ATOM     18  C   UNL     1       1.108   9.460  17.801  0.00  0.00    +0.000 A 
ATOM     19  C   UNL     1       1.917   8.361  18.092  0.00  0.00    +0.000 A 
ATOM     20  C   UNL     1       2.049   7.889  19.411  0.00  0.00    +0.000 A 
ATOM     21  C   UNL     1       1.250   8.480  20.396  0.00  0.00    +0.000 A 
ATOM     22  C   UNL     1       0.423   9.568  20.105  0.00  0.00    +0.000 A 
BRANCH  17  24
ATOM     23  C   UNL     1      -1.679  10.875  17.948  0.00  0.00    +0.000 C 
ATOM     24  O   UNL     1      -0.362  11.152  18.404  0.00  0.00    +0.000 OA
ENDBRANCH  17  24
ENDBRANCH  16  20
ENDBRANCH   1  16
TORSDOF 3
ENDMDL
MODEL 3
REMARK VINA RESULT:      -7.8      0.880      3.850
REMARK  Name = 
REMARK  4 active torsions:
REMARK  status: ('A' for Active; 'I' for Inactive)
REMARK    1  A    between atoms: C_1  and  O_2
REMARK    2  A    between atoms: O_2  and  C_3
REMARK    3  A    between atoms: C_6  and  C_7
REMARK    4  A    between atoms: C_7  and  N_8
REMARK                            x       y       z     vdW  Elec       q    Type
REMARK                         _______ _______ _______ _____ _____    ______ ____
ROOT
ATOM      1  N   UNL     1       3.256   5.845  18.771  0.00  0.00    +0.000 N 
ATOM      2  C   UNL     1       2.680   4.712  19.436  0.00  0.00    +0.000 A 
ATOM      3  C   UNL     1       1.718   4.865  20.448  0.00  0.00    +0.000 A 
ATOM      4  C   UNL     1       1.188   3.753  21.115  0.00  0.00    +0.000 A 
ATOM      5  C   UNL     1       1.658   2.473  20.831  0.00  0.00    +0.000 A 
ATOM      6  C   UNL     1       2.613   2.297  19.832  0.00  0.00    +0.000 A 
ATOM      7  C   UNL     1       3.082   3.405  19.114  0.00  0.00    +0.000 A 
ATOM      8  C   UNL     1       3.930   3.194  17.917  0.00  0.00    +0.000 A 
ATOM      9  O   UNL     1       4.186   2.068  17.510  0.00  0.00    +0.000 OA
ATOM     10  C   UNL     1       4.458   4.379  17.224  0.00  0.00    +0.000 A 
ATOM     11  C   UNL     1       5.001   4.300  15.944  0.00  0.00    +0.000 A 
ATOM     12  C   UNL     1       5.540   5.445  15.358  0.00  0.00    +0.000 A 
ATOM     13  C   UNL     1       5.673   6.614  16.107  0.00  0.00    +0.000 A 
ATOM     14  C   UNL     1       5.113   6.685  17.380  0.00  0.00    +0.000 A 
ATOM     15  C   UNL     1       4.343   5.621  17.854  0.00  0.00    +0.000 A 
ENDROOT
BRANCH   1  16
ATOM     16  C   UNL     1       2.200   6.589  17.991  0.00  0.00    +0.000 C 
BRANCH  16  20
ATOM     17  C   UNL     1       1.183  10.466  19.633  0.00  0.00    +0.000 A 
ATOM     18  C   UNL     1       1.175   9.336  20.451  0.00  0.00    +0.000 A 
ATOM     19  C   UNL     1       1.566   8.096  19.943  0.00  0.00    +0.000 A 
ATOM     20  C   UNL     1       1.909   7.947  18.587  0.00  0.00    +0.000 A 
ATOM     21  C   UNL     1       1.962   9.102  17.798  0.00  0.00    +0.000 A 
ATOM     22  C   UNL     1       1.591  10.348  18.309  0.00  0.00    +0.000 A 
BRANCH  17  24
ATOM     23  C   UNL     1       0.028  11.423  21.449  0.00  0.00    +0.000 C 
ATOM     24  O   UNL     1       0.749  11.607  20.238  0.00  0.00    +0.000 OA
ENDBRANCH  17  24
ENDBRANCH  16  20
ENDBRANCH   1  16
TORSDOF 3
ENDMDL
MODEL 4
REMARK VINA RESULT:      -7.8      0.545      1.123
REMARK  Name = 
REMARK  4 active torsions:
REMARK  status: ('A' for Active; 'I' for Inactive)
REMARK    1  A    between atoms: C_1  and  O_2
REMARK    2  A    between atoms: O_2  and  C_3
REMARK    3  A    between atoms: C_6  and  C_7
REMARK    4  A    between atoms: C_7  and  N_8
REMARK                            x       y       z     vdW  Elec       q    Type
REMARK                         _______ _______ _______ _____ _____    ______ ____
ROOT
ATOM      1  N   UNL     1       2.861   5.390  17.989  0.00  0.00    +0.000 N 
ATOM      2  C   UNL     1       3.969   5.160  17.108  0.00  0.00    +0.000 A 
ATOM      3  C   UNL     1       4.556   6.206  16.377  0.00  0.00    +0.000 A 
ATOM      4  C   UNL     1       5.615   5.964  15.493  0.00  0.00    +0.000 A 
ATOM      5  C   UNL     1       6.063   4.664  15.271  0.00  0.00    +0.000 A 
ATOM      6  C   UNL     1       5.495   3.610  15.983  0.00  0.00    +0.000 A 
ATOM      7  C   UNL     1       4.489   3.867  16.924  0.00  0.00    +0.000 A 
ATOM      8  C   UNL     1       4.039   2.783  17.828  0.00  0.00    +0.000 A 
ATOM      9  O   UNL     1       4.566   1.677  17.807  0.00  0.00    +0.000 OA
ATOM     10  C   UNL     1       2.938   3.069  18.761  0.00  0.00    +0.000 A 
ATOM     11  C   UNL     1       2.650   2.232  19.836  0.00  0.00    +0.000 A 
ATOM     12  C   UNL     1       1.558   2.522  20.654  0.00  0.00    +0.000 A 
ATOM     13  C   UNL     1       0.678   3.545  20.304  0.00  0.00    +0.000 A 
ATOM     14  C   UNL     1       0.984   4.384  19.236  0.00  0.00    +0.000 A 
ATOM     15  C   UNL     1       2.214   4.252  18.587  0.00  0.00    +0.000 A 
ENDROOT
BRANCH   1  16
ATOM     16  C   UNL     1       3.278   6.281  19.134  0.00  0.00    +0.000 C 
BRANCH  16  20
ATOM     17  C   UNL     1       0.835   9.827  19.604  0.00  0.00    +0.000 A 
ATOM     18  C   UNL     1       1.416   9.537  18.369  0.00  0.00    +0.000 A 
ATOM     19  C   UNL     1       2.148   8.362  18.195  0.00  0.00    +0.000 A 
ATOM     20  C   UNL     1       2.373   7.484  19.271  0.00  0.00    +0.000 A 
ATOM     21  C   UNL     1       1.738   7.768  20.486  0.00  0.00    +0.000 A 
ATOM     22  C   UNL     1       0.987   8.933  20.657  0.00  0.00    +0.000 A 
BRANCH  17  24
ATOM     23  C   UNL     1      -1.118  11.029  19.065  0.00  0.00    +0.000 C 
ATOM     24  O   UNL     1       0.176  11.019  19.653  0.00  0.00    +0.000 OA
ENDBRANCH  17  24
ENDBRANCH  16  20
ENDBRANCH   1  16
TORSDOF 3
ENDMDL
MODEL 5
REMARK VINA RESULT:      -7.4      1.130      4.044
REMARK  Name = 
REMARK  4 active torsions:
REMARK  status: ('A' for Active; 'I' for Inactive)
REMARK    1  A    between atoms: C_1  and  O_2
REMARK    2  A    between atoms: O_2  and  C_3
REMARK    3  A    between atoms: C_6  and  C_7
REMARK    4  A    between atoms: C_7  and  N_8
REMARK                            x       y       z     vdW  Elec       q    Type
REMARK                         _______ _______ _______ _____ _____    ______ ____
ROOT
ATOM      1  N   UNL     1       3.216   5.873  18.754  0.00  0.00    +0.000 N 
ATOM      2  C   UNL     1       2.655   4.732  19.418  0.00  0.00    +0.000 A 
ATOM      3  C   UNL     1       1.680   4.870  20.418  0.00  0.00    +0.000 A 
ATOM      4  C   UNL     1       1.165   3.751  21.084  0.00  0.00    +0.000 A 
ATOM      5  C   UNL     1       1.663   2.479  20.812  0.00  0.00    +0.000 A 
ATOM      6  C   UNL     1       2.633   2.318  19.825  0.00  0.00    +0.000 A 
ATOM      7  C   UNL     1       3.088   3.431  19.107  0.00  0.00    +0.000 A 
ATOM      8  C   UNL     1       3.953   3.232  17.921  0.00  0.00    +0.000 A 
ATOM      9  O   UNL     1       4.237   2.110  17.522  0.00  0.00    +0.000 OA
ATOM     10  C   UNL     1       4.466   4.425  17.227  0.00  0.00    +0.000 A 
ATOM     11  C   UNL     1       5.025   4.351  15.955  0.00  0.00    +0.000 A 
ATOM     12  C   UNL     1       5.547   5.504  15.369  0.00  0.00    +0.000 A 
ATOM     13  C   UNL     1       5.647   6.679  16.114  0.00  0.00    +0.000 A 
ATOM     14  C   UNL     1       5.071   6.745  17.380  0.00  0.00    +0.000 A 
ATOM     15  C   UNL     1       4.318   5.667  17.851  0.00  0.00    +0.000 A 
ENDROOT
BRANCH   1  16
ATOM     16  C   UNL     1       2.154   6.591  17.959  0.00  0.00    +0.000 C 
BRANCH  16  20
ATOM     17  C   UNL     1       1.338  10.452  19.746  0.00  0.00    +0.000 A 
ATOM     18  C   UNL     1       1.559  10.350  18.371  0.00  0.00    +0.000 A 
ATOM     19  C   UNL     1       1.756   9.101  17.782  0.00  0.00    +0.000 A 
ATOM     20  C   UNL     1       1.804   7.932  18.563  0.00  0.00    +0.000 A 
ATOM     21  C   UNL     1       1.527   8.051  19.930  0.00  0.00    +0.000 A 
ATOM     22  C   UNL     1       1.308   9.298  20.520  0.00  0.00    +0.000 A 
BRANCH  17  24
ATOM     23  C   UNL     1       1.823  12.734  19.423  0.00  0.00    +0.000 C 
ATOM     24  O   UNL     1       1.193  11.727  20.203  0.00  0.00    +0.000 OA
ENDBRANCH  17  24
ENDBRANCH  16  20
ENDBRANCH   1  16
TORSDOF 3
ENDMDL
MODEL 6
REMARK VINA RESULT:      -7.0      1.097      1.121
REMARK  Name = 
REMARK  4 active torsions:
REMARK  status: ('A' for Active; 'I' for Inactive)
REMARK    1  A    between atoms: C_1  and  O_2
REMARK    2  A    between atoms: O_2  and  C_3
REMARK    3  A    between atoms: C_6  and  C_7
REMARK    4  A    between atoms: C_7  and  N_8
REMARK                            x       y       z     vdW  Elec       q    Type
REMARK                         _______ _______ _______ _____ _____    ______ ____
ROOT
ATOM      1  N   UNL     1       3.183   5.593  17.807  0.00  0.00    +0.000 N 
ATOM      2  C   UNL     1       4.532   5.578  17.320  0.00  0.00    +0.000 A 
ATOM      3  C   UNL     1       5.273   6.762  17.172  0.00  0.00    +0.000 A 
ATOM      4  C   UNL     1       6.577   6.739  16.662  0.00  0.00    +0.000 A 
ATOM      5  C   UNL     1       7.140   5.543  16.226  0.00  0.00    +0.000 A 
ATOM      6  C   UNL     1       6.424   4.356  16.360  0.00  0.00    +0.000 A 
ATOM      7  C   UNL     1       5.150   4.373  16.944  0.00  0.00    +0.000 A 
ATOM      8  C   UNL     1       4.483   3.094  17.281  0.00  0.00    +0.000 A 
ATOM      9  O   UNL     1       5.045   2.019  17.109  0.00  0.00    +0.000 OA
ATOM     10  C   UNL     1       3.120   3.147  17.834  0.00  0.00    +0.000 A 
ATOM     11  C   UNL     1       2.536   2.044  18.451  0.00  0.00    +0.000 A 
ATOM     12  C   UNL     1       1.220   2.134  18.906  0.00  0.00    +0.000 A 
ATOM     13  C   UNL     1       0.454   3.259  18.604  0.00  0.00    +0.000 A 
ATOM     14  C   UNL     1       1.054   4.361  17.999  0.00  0.00    +0.000 A 
ATOM     15  C   UNL     1       2.434   4.363  17.788  0.00  0.00    +0.000 A 
ENDROOT
BRANCH   1  16
ATOM     16  C   UNL     1       3.147   6.081  19.235  0.00  0.00    +0.000 C 
BRANCH  16  20
ATOM     17  C   UNL     1       0.765   9.684  19.554  0.00  0.00    +0.000 A 
ATOM     18  C   UNL     1       0.934   8.857  20.665  0.00  0.00    +0.000 A 
ATOM     19  C   UNL     1       1.755   7.731  20.585  0.00  0.00    +0.000 A 
ATOM     20  C   UNL     1       2.370   7.370  19.373  0.00  0.00    +0.000 A 
ATOM     21  C   UNL     1       2.230   8.241  18.287  0.00  0.00    +0.000 A 
ATOM     22  C   UNL     1       1.427   9.381  18.369  0.00  0.00    +0.000 A 
BRANCH  17  24
ATOM     23  C   UNL     1      -1.323  10.655  19.057  0.00  0.00    +0.000 C 
ATOM     24  O   UNL     1      -0.085  10.731  19.751  0.00  0.00    +0.000 OA
ENDBRANCH  17  24
ENDBRANCH  16  20
ENDBRANCH   1  16
TORSDOF 3
ENDMDL
MODEL 7
REMARK VINA RESULT:      -7.0      1.123      1.521
REMARK  Name = 
REMARK  4 active torsions:
REMARK  status: ('A' for Active; 'I' for Inactive)
REMARK    1  A    between atoms: C_1  and  O_2
REMARK    2  A    between atoms: O_2  and  C_3
REMARK    3  A    between atoms: C_6  and  C_7
REMARK    4  A    between atoms: C_7  and  N_8
REMARK                            x       y       z     vdW  Elec       q    Type
REMARK                         _______ _______ _______ _____ _____    ______ ____
ROOT
ATOM      1  N   UNL     1       3.183   5.640  17.887  0.00  0.00    +0.000 N 
ATOM      2  C   UNL     1       4.525   5.678  17.383  0.00  0.00    +0.000 A 
ATOM      3  C   UNL     1       5.242   6.882  17.291  0.00  0.00    +0.000 A 
ATOM      4  C   UNL     1       6.539   6.913  16.765  0.00  0.00    +0.000 A 
ATOM      5  C   UNL     1       7.119   5.753  16.257  0.00  0.00    +0.000 A 
ATOM      6  C   UNL     1       6.427   4.546  16.335  0.00  0.00    +0.000 A 
ATOM      7  C   UNL     1       5.161   4.508  16.934  0.00  0.00    +0.000 A 
ATOM      8  C   UNL     1       4.522   3.199  17.208  0.00  0.00    +0.000 A 
ATOM      9  O   UNL     1       5.101   2.147  16.971  0.00  0.00    +0.000 OA
ATOM     10  C   UNL     1       3.166   3.196  17.780  0.00  0.00    +0.000 A 
ATOM     11  C   UNL     1       2.611   2.050  18.343  0.00  0.00    +0.000 A 
ATOM     12  C   UNL     1       1.300   2.089  18.818  0.00  0.00    +0.000 A 
ATOM     13  C   UNL     1       0.509   3.214  18.588  0.00  0.00    +0.000 A 
ATOM     14  C   UNL     1       1.080   4.359  18.037  0.00  0.00    +0.000 A 
ATOM     15  C   UNL     1       2.457   4.399  17.810  0.00  0.00    +0.000 A 
ENDROOT
BRANCH   1  16
ATOM     16  C   UNL     1       3.157   6.049  19.340  0.00  0.00    +0.000 C 
BRANCH  16  20
ATOM     17  C   UNL     1       0.770   9.583  20.093  0.00  0.00    +0.000 A 
ATOM     18  C   UNL     1       1.347   9.383  18.838  0.00  0.00    +0.000 A 
ATOM     19  C   UNL     1       2.061   8.215  18.571  0.00  0.00    +0.000 A 
ATOM     20  C   UNL     1       2.272   7.251  19.573  0.00  0.00    +0.000 A 
ATOM     21  C   UNL     1       1.639   7.446  20.807  0.00  0.00    +0.000 A 
ATOM     22  C   UNL     1       0.906   8.605  21.071  0.00  0.00    +0.000 A 
BRANCH  17  24
ATOM     23  C   UNL     1      -0.538  11.260  19.079  0.00  0.00    +0.000 C 
ATOM     24  O   UNL     1       0.128  10.777  20.237  0.00  0.00    +0.000 OA
ENDBRANCH  17  24
ENDBRANCH  16  20
ENDBRANCH   1  16
TORSDOF 3
ENDMDL
MODEL 8
REMARK VINA RESULT:      -6.8      2.247      6.212
REMARK  Name = 
REMARK  4 active torsions:
REMARK  status: ('A' for Active; 'I' for Inactive)
REMARK    1  A    between atoms: C_1  and  O_2
REMARK    2  A    between atoms: O_2  and  C_3
REMARK    3  A    between atoms: C_6  and  C_7
REMARK    4  A    between atoms: C_7  and  N_8
REMARK                            x       y       z     vdW  Elec       q    Type
REMARK                         _______ _______ _______ _____ _____    ______ ____
ROOT
ATOM      1  N   UNL     1       3.997   5.607  18.497  0.00  0.00    +0.000 N 
ATOM      2  C   UNL     1       3.180   6.784  18.543  0.00  0.00    +0.000 A 
ATOM      3  C   UNL     1       3.343   7.829  17.620  0.00  0.00    +0.000 A 
ATOM      4  C   UNL     1       2.562   8.989  17.696  0.00  0.00    +0.000 A 
ATOM      5  C   UNL     1       1.651   9.157  18.736  0.00  0.00    +0.000 A 
ATOM      6  C   UNL     1       1.473   8.134  19.665  0.00  0.00    +0.000 A 
ATOM      7  C   UNL     1       2.200   6.943  19.539  0.00  0.00    +0.000 A 
ATOM      8  C   UNL     1       1.857   5.783  20.394  0.00  0.00    +0.000 A 
ATOM      9  O   UNL     1       0.914   5.825  21.174  0.00  0.00    +0.000 OA
ATOM     10  C   UNL     1       2.681   4.569  20.280  0.00  0.00    +0.000 A 
ATOM     11  C   UNL     1       2.267   3.349  20.806  0.00  0.00    +0.000 A 
ATOM     12  C   UNL     1       3.114   2.244  20.720  0.00  0.00    +0.000 A 
ATOM     13  C   UNL     1       4.419   2.403  20.254  0.00  0.00    +0.000 A 
ATOM     14  C   UNL     1       4.817   3.625  19.717  0.00  0.00    +0.000 A 
ATOM     15  C   UNL     1       3.879   4.647  19.564  0.00  0.00    +0.000 A 
ENDROOT
BRANCH   1  16
ATOM     16  C   UNL     1       3.745   4.843  17.220  0.00  0.00    +0.000 C 
BRANCH  16  20
ATOM     17  C   UNL     1       7.094   5.060  14.481  0.00  0.00    +0.000 A 
ATOM     18  C   UNL     1       7.151   5.720  15.709  0.00  0.00    +0.000 A 
ATOM     19  C   UNL     1       6.103   5.599  16.622  0.00  0.00    +0.000 A 
ATOM     20  C   UNL     1       4.944   4.869  16.300  0.00  0.00    +0.000 A 
ATOM     21  C   UNL     1       4.931   4.172  15.086  0.00  0.00    +0.000 A 
ATOM     22  C   UNL     1       5.987   4.274  14.178  0.00  0.00    +0.000 A 
BRANCH  17  24
ATOM     23  C   UNL     1       7.870   5.372  12.279  0.00  0.00    +0.000 C 
ATOM     24  O   UNL     1       8.163   5.286  13.667  0.00  0.00    +0.000 OA
ENDBRANCH  17  24
ENDBRANCH  16  20
ENDBRANCH   1  16
TORSDOF 3
ENDMDL
MODEL 9
REMARK VINA RESULT:      -6.8      2.182      6.300
REMARK  Name = 
REMARK  4 active torsions:
REMARK  status: ('A' for Active; 'I' for Inactive)
REMARK    1  A    between atoms: C_1  and  O_2
REMARK    2  A    between atoms: O_2  and  C_3
REMARK    3  A    between atoms: C_6  and  C_7
REMARK    4  A    between atoms: C_7  and  N_8
REMARK                            x       y       z     vdW  Elec       q    Type
REMARK                         _______ _______ _______ _____ _____    ______ ____
ROOT
ATOM      1  N   UNL     1       3.166   5.498  17.799  0.00  0.00    +0.000 N 
ATOM      2  C   UNL     1       3.118   4.120  18.191  0.00  0.00    +0.000 A 
ATOM      3  C   UNL     1       3.803   3.127  17.473  0.00  0.00    +0.000 A 
ATOM      4  C   UNL     1       3.721   1.779  17.845  0.00  0.00    +0.000 A 
ATOM      5  C   UNL     1       2.899   1.390  18.900  0.00  0.00    +0.000 A 
ATOM      6  C   UNL     1       2.208   2.357  19.627  0.00  0.00    +0.000 A 
ATOM      7  C   UNL     1       2.355   3.711  19.299  0.00  0.00    +0.000 A 
ATOM      8  C   UNL     1       1.795   4.746  20.200  0.00  0.00    +0.000 A 
ATOM      9  O   UNL     1       1.251   4.444  21.254  0.00  0.00    +0.000 OA
ATOM     10  C   UNL     1       1.912   6.156  19.795  0.00  0.00    +0.000 A 
ATOM     11  C   UNL     1       1.694   7.198  20.692  0.00  0.00    +0.000 A 
ATOM     12  C   UNL     1       1.762   8.515  20.239  0.00  0.00    +0.000 A 
ATOM     13  C   UNL     1       1.891   8.776  18.875  0.00  0.00    +0.000 A 
ATOM     14  C   UNL     1       2.123   7.727  17.990  0.00  0.00    +0.000 A 
ATOM     15  C   UNL     1       2.319   6.437  18.488  0.00  0.00    +0.000 A 
ENDROOT
BRANCH   1  16
ATOM     16  C   UNL     1       4.572   6.032  17.928  0.00  0.00    +0.000 C 
BRANCH  16  20
ATOM     17  C   UNL     1       6.935   4.869  14.489  0.00  0.00    +0.000 A 
ATOM     18  C   UNL     1       5.703   5.501  14.311  0.00  0.00    +0.000 A 
ATOM     19  C   UNL     1       4.970   5.937  15.414  0.00  0.00    +0.000 A 
ATOM     20  C   UNL     1       5.419   5.690  16.724  0.00  0.00    +0.000 A 
ATOM     21  C   UNL     1       6.680   5.102  16.880  0.00  0.00    +0.000 A 
ATOM     22  C   UNL     1       7.427   4.683  15.776  0.00  0.00    +0.000 A 
BRANCH  17  24
ATOM     23  C   UNL     1       6.693   3.790  12.409  0.00  0.00    +0.000 C 
ATOM     24  O   UNL     1       7.535   4.461  13.336  0.00  0.00    +0.000 OA
ENDBRANCH  17  24
ENDBRANCH  16  20
ENDBRANCH   1  16
TORSDOF 3
ENDMDL
