MODEL 1
REMARK VINA RESULT:      -8.9      0.000      0.000
REMARK  Name = 
REMARK  8 active torsions:
REMARK  status: ('A' for Active; 'I' for Inactive)
REMARK    1  A    between atoms: C_1  and  C_2
REMARK    2  A    between atoms: C_2  and  O_3
REMARK    3  A    between atoms: O_3  and  C_4
REMARK    4  A    between atoms: C_7  and  C_8
REMARK    5  A    between atoms: N_9  and  N_10
REMARK    6  A    between atoms: C_11  and  C_13
REMARK    7  A    between atoms: C_13  and  C_14
REMARK    8  A    between atoms: C_14  and  N_15
REMARK                            x       y       z     vdW  Elec       q    Type
REMARK                         _______ _______ _______ _____ _____    ______ ____
ROOT
ATOM      1  N   UNL     1       8.711   8.571  18.878  0.00  0.00    +0.000 N 
ATOM      2  C   UNL     1       7.956   7.600  18.106  0.00  0.00    +0.000 C 
ATOM      3  O   UNL     1       7.576   7.894  16.941  0.00  0.00    +0.000 OA
ATOM      4  H   UNL     1       9.009   8.434  19.841  0.00  0.00    +0.000 HD
ENDROOT
BRANCH   1   6
ATOM      5  C   UNL     1       9.849  10.755  18.869  0.00  0.00    +0.000 C 
ATOM      6  N   UNL     1       9.025   9.888  18.291  0.00  0.00    +0.000 NA
BRANCH   5  10
ATOM      7  C   UNL     1      10.762  14.731  17.096  0.00  0.00    +0.000 A 
ATOM      8  C   UNL     1       9.672  14.575  17.954  0.00  0.00    +0.000 A 
ATOM      9  C   UNL     1       9.389  13.312  18.557  0.00  0.00    +0.000 A 
ATOM     10  C   UNL     1      10.175  12.164  18.292  0.00  0.00    +0.000 A 
ATOM     11  C   UNL     1      11.277  12.359  17.452  0.00  0.00    +0.000 A 
ATOM     12  C   UNL     1      11.566  13.616  16.865  0.00  0.00    +0.000 A 
BRANCH   7  13
ATOM     13  O   UNL     1      11.012  15.995  16.616  0.00  0.00    +0.000 OA
BRANCH  13  15
ATOM     14  C   UNL     1      11.969  17.624  18.128  0.00  0.00    +0.000 C 
ATOM     15  C   UNL     1      10.694  17.090  17.487  0.00  0.00    +0.000 C 
ENDBRANCH  13  15
ENDBRANCH   7  13
ENDBRANCH   5  10
ENDBRANCH   1   6
BRANCH   2  16
ATOM     16  C   UNL     1       7.540   6.088  18.646  0.00  0.00    +0.000 C 
BRANCH  16  17
ATOM     17  C   UNL     1       6.084   5.324  17.890  0.00  0.00    +0.000 C 
BRANCH  17  18
ATOM     18  N   UNL     1       4.929   4.513  18.626  0.00  0.00    +0.000 N 
ATOM     19  N   UNL     1       5.560   3.710  19.466  0.00  0.00    +0.000 NA
ATOM     20  N   UNL     1       4.735   2.747  19.722  0.00  0.00    +0.000 NA
ATOM     21  C   UNL     1       3.548   3.364  19.813  0.00  0.00    +0.000 A 
ATOM     22  C   UNL     1       2.606   2.703  20.716  0.00  0.00    +0.000 A 
ATOM     23  C   UNL     1       1.367   3.111  21.114  0.00  0.00    +0.000 A 
ATOM     24  C   UNL     1       1.009   4.245  20.478  0.00  0.00    +0.000 A 
ATOM     25  C   UNL     1       1.963   4.899  19.512  0.00  0.00    +0.000 A 
ATOM     26  C   UNL     1       3.466   4.717  19.054  0.00  0.00    +0.000 A 
ENDBRANCH  17  18
ENDBRANCH  16  17
ENDBRANCH   2  16
TORSDOF 7
ENDMDL
MODEL 2
REMARK VINA RESULT:      -8.7      2.487      2.989
REMARK  Name = 
REMARK  8 active torsions:
REMARK  status: ('A' for Active; 'I' for Inactive)
REMARK    1  A    between atoms: C_1  and  C_2
REMARK    2  A    between atoms: C_2  and  O_3
REMARK    3  A    between atoms: O_3  and  C_4
REMARK    4  A    between atoms: C_7  and  C_8
REMARK    5  A    between atoms: N_9  and  N_10
REMARK    6  A    between atoms: C_11  and  C_13
REMARK    7  A    between atoms: C_13  and  C_14
REMARK    8  A    between atoms: C_14  and  N_15
REMARK                            x       y       z     vdW  Elec       q    Type
REMARK                         _______ _______ _______ _____ _____    ______ ____
ROOT
ATOM      1  N   UNL     1       7.493   7.428  17.021  0.00  0.00    +0.000 N 
ATOM      2  C   UNL     1       7.375   6.089  17.570  0.00  0.00    +0.000 C 
ATOM      3  O   UNL     1       7.537   5.909  18.807  0.00  0.00    +0.000 OA
ATOM      4  H   UNL     1       7.428   7.651  16.031  0.00  0.00    +0.000 HD
ENDROOT
BRANCH   1   6
ATOM      5  C   UNL     1       8.657   9.521  17.590  0.00  0.00    +0.000 C 
ATOM      6  N   UNL     1       7.799   8.561  17.914  0.00  0.00    +0.000 NA
BRANCH   5  10
ATOM      7  C   UNL     1       9.841  12.873  20.265  0.00  0.00    +0.000 A 
ATOM      8  C   UNL     1       9.375  13.131  18.974  0.00  0.00    +0.000 A 
ATOM      9  C   UNL     1       8.959  12.066  18.119  0.00  0.00    +0.000 A 
ATOM     10  C   UNL     1       9.027  10.711  18.524  0.00  0.00    +0.000 A 
ATOM     11  C   UNL     1       9.471  10.486  19.832  0.00  0.00    +0.000 A 
ATOM     12  C   UNL     1       9.870  11.545  20.686  0.00  0.00    +0.000 A 
BRANCH   7  13
ATOM     13  O   UNL     1      10.150  13.956  21.053  0.00  0.00    +0.000 OA
BRANCH  13  15
ATOM     14  C   UNL     1       9.739  15.466  22.899  0.00  0.00    +0.000 C 
ATOM     15  C   UNL     1       9.313  14.182  22.196  0.00  0.00    +0.000 C 
ENDBRANCH  13  15
ENDBRANCH   7  13
ENDBRANCH   5  10
ENDBRANCH   1   6
BRANCH   2  16
ATOM     16  C   UNL     1       7.034   4.733  16.678  0.00  0.00    +0.000 C 
BRANCH  16  17
ATOM     17  C   UNL     1       5.317   4.516  16.147  0.00  0.00    +0.000 C 
BRANCH  17  18
ATOM     18  N   UNL     1       4.026   4.422  17.073  0.00  0.00    +0.000 N 
ATOM     19  N   UNL     1       3.544   3.210  16.861  0.00  0.00    +0.000 NA
ATOM     20  N   UNL     1       2.298   3.259  17.204  0.00  0.00    +0.000 NA
ATOM     21  C   UNL     1       2.303   4.028  18.301  0.00  0.00    +0.000 A 
ATOM     22  C   UNL     1       1.230   3.717  19.246  0.00  0.00    +0.000 A 
ATOM     23  C   UNL     1       1.006   4.228  20.490  0.00  0.00    +0.000 A 
ATOM     24  C   UNL     1       1.892   5.203  20.774  0.00  0.00    +0.000 A 
ATOM     25  C   UNL     1       2.967   5.555  19.780  0.00  0.00    +0.000 A 
ATOM     26  C   UNL     1       3.516   4.991  18.407  0.00  0.00    +0.000 A 
ENDBRANCH  17  18
ENDBRANCH  16  17
ENDBRANCH   2  16
TORSDOF 7
ENDMDL
MODEL 3
REMARK VINA RESULT:      -8.5      2.481      3.184
REMARK  Name = 
REMARK  8 active torsions:
REMARK  status: ('A' for Active; 'I' for Inactive)
REMARK    1  A    between atoms: C_1  and  C_2
REMARK    2  A    between atoms: C_2  and  O_3
REMARK    3  A    between atoms: O_3  and  C_4
REMARK    4  A    between atoms: C_7  and  C_8
REMARK    5  A    between atoms: N_9  and  N_10
REMARK    6  A    between atoms: C_11  and  C_13
REMARK    7  A    between atoms: C_13  and  C_14
REMARK    8  A    between atoms: C_14  and  N_15
REMARK                            x       y       z     vdW  Elec       q    Type
REMARK                         _______ _______ _______ _____ _____    ______ ____
ROOT
ATOM      1  N   UNL     1       7.351   7.114  16.728  0.00  0.00    +0.000 N 
ATOM      2  C   UNL     1       5.975   6.647  16.735  0.00  0.00    +0.000 C 
ATOM      3  O   UNL     1       5.173   7.095  17.598  0.00  0.00    +0.000 OA
ATOM      4  H   UNL     1       8.073   6.766  16.101  0.00  0.00    +0.000 HD
ENDROOT
BRANCH   1   6
ATOM      5  C   UNL     1       8.346   9.266  17.391  0.00  0.00    +0.000 C 
ATOM      6  N   UNL     1       7.793   8.106  17.726  0.00  0.00    +0.000 NA
BRANCH   5  10
ATOM      7  C   UNL     1       9.676  12.342  20.317  0.00  0.00    +0.000 A 
ATOM      8  C   UNL     1       9.543  11.008  20.707  0.00  0.00    +0.000 A 
ATOM      9  C   UNL     1       9.151  10.006  19.769  0.00  0.00    +0.000 A 
ATOM     10  C   UNL     1       8.852  10.319  18.421  0.00  0.00    +0.000 A 
ATOM     11  C   UNL     1       9.023  11.659  18.053  0.00  0.00    +0.000 A 
ATOM     12  C   UNL     1       9.426  12.651  18.981  0.00  0.00    +0.000 A 
BRANCH   7  13
ATOM     13  O   UNL     1      10.130  13.233  21.260  0.00  0.00    +0.000 OA
BRANCH  13  15
ATOM     14  C   UNL     1       9.137  15.384  21.753  0.00  0.00    +0.000 C 
ATOM     15  C   UNL     1      10.133  14.619  20.889  0.00  0.00    +0.000 C 
ENDBRANCH  13  15
ENDBRANCH   7  13
ENDBRANCH   5  10
ENDBRANCH   1   6
BRANCH   2  16
ATOM     16  C   UNL     1       5.353   5.539  15.670  0.00  0.00    +0.000 C 
BRANCH  16  17
ATOM     17  C   UNL     1       4.666   4.022  16.379  0.00  0.00    +0.000 C 
BRANCH  17  18
ATOM     18  N   UNL     1       3.570   3.904  17.526  0.00  0.00    +0.000 N 
ATOM     19  N   UNL     1       2.483   3.469  16.913  0.00  0.00    +0.000 NA
ATOM     20  N   UNL     1       1.490   3.801  17.674  0.00  0.00    +0.000 NA
ATOM     21  C   UNL     1       1.954   3.580  18.912  0.00  0.00    +0.000 A 
ATOM     22  C   UNL     1       0.916   3.220  19.877  0.00  0.00    +0.000 A 
ATOM     23  C   UNL     1       1.049   2.835  21.179  0.00  0.00    +0.000 A 
ATOM     24  C   UNL     1       2.337   2.903  21.570  0.00  0.00    +0.000 A 
ATOM     25  C   UNL     1       3.400   3.321  20.586  0.00  0.00    +0.000 A 
ATOM     26  C   UNL     1       3.502   3.619  19.035  0.00  0.00    +0.000 A 
ENDBRANCH  17  18
ENDBRANCH  16  17
ENDBRANCH   2  16
TORSDOF 7
ENDMDL
MODEL 4
REMARK VINA RESULT:      -8.5      2.208      3.090
REMARK  Name = 
REMARK  8 active torsions:
REMARK  status: ('A' for Active; 'I' for Inactive)
REMARK    1  A    between atoms: C_1  and  C_2
REMARK    2  A    between atoms: C_2  and  O_3
REMARK    3  A    between atoms: O_3  and  C_4
REMARK    4  A    between atoms: C_7  and  C_8
REMARK    5  A    between atoms: N_9  and  N_10
REMARK    6  A    between atoms: C_11  and  C_13
REMARK    7  A    between atoms: C_13  and  C_14
REMARK    8  A    between atoms: C_14  and  N_15
REMARK                            x       y       z     vdW  Elec       q    Type
REMARK                         _______ _______ _______ _____ _____    ______ ____
ROOT
ATOM      1  N   UNL     1       7.459   6.379  16.811  0.00  0.00    +0.000 N 
ATOM      2  C   UNL     1       6.205   6.005  16.181  0.00  0.00    +0.000 C 
ATOM      3  O   UNL     1       5.406   6.905  15.807  0.00  0.00    +0.000 OA
ATOM      4  H   UNL     1       8.133   5.717  17.188  0.00  0.00    +0.000 HD
ENDROOT
BRANCH   1   6
ATOM      5  C   UNL     1       8.282   8.281  18.140  0.00  0.00    +0.000 C 
ATOM      6  N   UNL     1       7.785   7.804  17.004  0.00  0.00    +0.000 NA
BRANCH   5  10
ATOM      7  C   UNL     1       9.337  12.548  18.830  0.00  0.00    +0.000 A 
ATOM      8  C   UNL     1       8.530  12.186  17.749  0.00  0.00    +0.000 A 
ATOM      9  C   UNL     1       8.156  10.824  17.537  0.00  0.00    +0.000 A 
ATOM     10  C   UNL     1       8.605   9.785  18.386  0.00  0.00    +0.000 A 
ATOM     11  C   UNL     1       9.388  10.181  19.477  0.00  0.00    +0.000 A 
ATOM     12  C   UNL     1       9.748  11.535  19.695  0.00  0.00    +0.000 A 
BRANCH   7  13
ATOM     13  O   UNL     1       9.590  13.887  19.009  0.00  0.00    +0.000 OA
BRANCH  13  15
ATOM     14  C   UNL     1       9.080  16.056  18.065  0.00  0.00    +0.000 C 
ATOM     15  C   UNL     1       8.519  14.792  18.706  0.00  0.00    +0.000 C 
ENDBRANCH  13  15
ENDBRANCH   7  13
ENDBRANCH   5  10
ENDBRANCH   1   6
BRANCH   2  16
ATOM     16  C   UNL     1       5.720   4.443  15.905  0.00  0.00    +0.000 C 
BRANCH  16  17
ATOM     17  C   UNL     1       4.520   3.743  17.064  0.00  0.00    +0.000 C 
BRANCH  17  18
ATOM     18  N   UNL     1       3.550   4.538  18.044  0.00  0.00    +0.000 N 
ATOM     19  N   UNL     1       3.614   3.882  19.190  0.00  0.00    +0.000 NA
ATOM     20  N   UNL     1       2.535   4.189  19.834  0.00  0.00    +0.000 NA
ATOM     21  C   UNL     1       2.371   5.493  19.572  0.00  0.00    +0.000 A 
ATOM     22  C   UNL     1       1.692   6.230  20.638  0.00  0.00    +0.000 A 
ATOM     23  C   UNL     1       1.457   7.570  20.741  0.00  0.00    +0.000 A 
ATOM     24  C   UNL     1       1.867   8.215  19.630  0.00  0.00    +0.000 A 
ATOM     25  C   UNL     1       2.523   7.446  18.513  0.00  0.00    +0.000 A 
ATOM     26  C   UNL     1       3.050   5.976  18.261  0.00  0.00    +0.000 A 
ENDBRANCH  17  18
ENDBRANCH  16  17
ENDBRANCH   2  16
TORSDOF 7
ENDMDL
MODEL 5
REMARK VINA RESULT:      -8.5      5.884      9.214
REMARK  Name = 
REMARK  8 active torsions:
REMARK  status: ('A' for Active; 'I' for Inactive)
REMARK    1  A    between atoms: C_1  and  C_2
REMARK    2  A    between atoms: C_2  and  O_3
REMARK    3  A    between atoms: O_3  and  C_4
REMARK    4  A    between atoms: C_7  and  C_8
REMARK    5  A    between atoms: N_9  and  N_10
REMARK    6  A    between atoms: C_11  and  C_13
REMARK    7  A    between atoms: C_13  and  C_14
REMARK    8  A    between atoms: C_14  and  N_15
REMARK                            x       y       z     vdW  Elec       q    Type
REMARK                         _______ _______ _______ _____ _____    ______ ____
ROOT
ATOM      1  N   UNL     1       2.560   5.383  20.305  0.00  0.00    +0.000 N 
ATOM      2  C   UNL     1       2.208   4.020  20.666  0.00  0.00    +0.000 C 
ATOM      3  O   UNL     1       1.151   3.805  21.317  0.00  0.00    +0.000 OA
ATOM      4  H   UNL     1       3.419   5.647  19.828  0.00  0.00    +0.000 HD
ENDROOT
BRANCH   1   6
ATOM      5  C   UNL     1       1.832   7.734  20.246  0.00  0.00    +0.000 C 
ATOM      6  N   UNL     1       1.679   6.496  20.704  0.00  0.00    +0.000 NA
BRANCH   5  10
ATOM      7  C   UNL     1      -0.629  11.197  21.567  0.00  0.00    +0.000 A 
ATOM      8  C   UNL     1      -0.066  11.177  20.289  0.00  0.00    +0.000 A 
ATOM      9  C   UNL     1       0.696  10.056  19.841  0.00  0.00    +0.000 A 
ATOM     10  C   UNL     1       0.940   8.937  20.673  0.00  0.00    +0.000 A 
ATOM     11  C   UNL     1       0.339   8.972  21.937  0.00  0.00    +0.000 A 
ATOM     12  C   UNL     1      -0.429  10.079  22.376  0.00  0.00    +0.000 A 
BRANCH   7  13
ATOM     13  O   UNL     1      -1.412  12.277  21.896  0.00  0.00    +0.000 OA
BRANCH  13  15
ATOM     14  C   UNL     1      -3.216  12.373  23.506  0.00  0.00    +0.000 C 
ATOM     15  C   UNL     1      -1.710  12.459  23.288  0.00  0.00    +0.000 C 
ENDBRANCH  13  15
ENDBRANCH   7  13
ENDBRANCH   5  10
ENDBRANCH   1   6
BRANCH   2  16
ATOM     16  C   UNL     1       3.108   2.682  20.279  0.00  0.00    +0.000 C 
BRANCH  16  17
ATOM     17  C   UNL     1       4.037   2.745  18.727  0.00  0.00    +0.000 C 
BRANCH  17  18
ATOM     18  N   UNL     1       4.904   3.958  18.171  0.00  0.00    +0.000 N 
ATOM     19  N   UNL     1       4.041   4.721  17.522  0.00  0.00    +0.000 NA
ATOM     20  N   UNL     1       4.743   5.423  16.692  0.00  0.00    +0.000 NA
ATOM     21  C   UNL     1       5.842   5.733  17.393  0.00  0.00    +0.000 A 
ATOM     22  C   UNL     1       6.454   7.003  17.003  0.00  0.00    +0.000 A 
ATOM     23  C   UNL     1       7.508   7.659  17.568  0.00  0.00    +0.000 A 
ATOM     24  C   UNL     1       8.048   6.929  18.564  0.00  0.00    +0.000 A 
ATOM     25  C   UNL     1       7.445   5.599  18.933  0.00  0.00    +0.000 A 
ATOM     26  C   UNL     1       6.160   4.755  18.558  0.00  0.00    +0.000 A 
ENDBRANCH  17  18
ENDBRANCH  16  17
ENDBRANCH   2  16
TORSDOF 7
ENDMDL
MODEL 6
REMARK VINA RESULT:      -8.5      2.362      3.107
REMARK  Name = 
REMARK  8 active torsions:
REMARK  status: ('A' for Active; 'I' for Inactive)
REMARK    1  A    between atoms: C_1  and  C_2
REMARK    2  A    between atoms: C_2  and  O_3
REMARK    3  A    between atoms: O_3  and  C_4
REMARK    4  A    between atoms: C_7  and  C_8
REMARK    5  A    between atoms: N_9  and  N_10
REMARK    6  A    between atoms: C_11  and  C_13
REMARK    7  A    between atoms: C_13  and  C_14
REMARK    8  A    between atoms: C_14  and  N_15
REMARK                            x       y       z     vdW  Elec       q    Type
REMARK                         _______ _______ _______ _____ _____    ______ ____
ROOT
ATOM      1  N   UNL     1       7.664   7.342  16.970  0.00  0.00    +0.000 N 
ATOM      2  C   UNL     1       7.419   5.989  17.439  0.00  0.00    +0.000 C 
ATOM      3  O   UNL     1       7.563   5.720  18.662  0.00  0.00    +0.000 OA
ATOM      4  H   UNL     1       7.622   7.629  15.995  0.00  0.00    +0.000 HD
ENDROOT
BRANCH   1   6
ATOM      5  C   UNL     1       8.440   9.605  17.550  0.00  0.00    +0.000 C 
ATOM      6  N   UNL     1       8.076   8.385  17.928  0.00  0.00    +0.000 NA
BRANCH   5  10
ATOM      7  C   UNL     1       9.910  12.723  20.363  0.00  0.00    +0.000 A 
ATOM      8  C   UNL     1       9.462  13.076  19.088  0.00  0.00    +0.000 A 
ATOM      9  C   UNL     1       8.956  12.089  18.189  0.00  0.00    +0.000 A 
ATOM     10  C   UNL     1       8.911  10.717  18.533  0.00  0.00    +0.000 A 
ATOM     11  C   UNL     1       9.339  10.397  19.827  0.00  0.00    +0.000 A 
ATOM     12  C   UNL     1       9.829  11.379  20.724  0.00  0.00    +0.000 A 
BRANCH   7  13
ATOM     13  O   UNL     1      10.312  13.739  21.196  0.00  0.00    +0.000 OA
BRANCH  13  15
ATOM     14  C   UNL     1       8.434  14.037  22.693  0.00  0.00    +0.000 C 
ATOM     15  C   UNL     1       9.302  14.670  21.611  0.00  0.00    +0.000 C 
ENDBRANCH  13  15
ENDBRANCH   7  13
ENDBRANCH   5  10
ENDBRANCH   1   6
BRANCH   2  16
ATOM     16  C   UNL     1       6.951   4.728  16.469  0.00  0.00    +0.000 C 
BRANCH  16  17
ATOM     17  C   UNL     1       5.239   4.165  16.632  0.00  0.00    +0.000 C 
BRANCH  17  18
ATOM     18  N   UNL     1       4.312   4.259  17.922  0.00  0.00    +0.000 N 
ATOM     19  N   UNL     1       3.270   4.976  17.539  0.00  0.00    +0.000 NA
ATOM     20  N   UNL     1       2.754   5.458  18.623  0.00  0.00    +0.000 NA
ATOM     21  C   UNL     1       2.857   4.448  19.497  0.00  0.00    +0.000 A 
ATOM     22  C   UNL     1       1.811   4.443  20.520  0.00  0.00    +0.000 A 
ATOM     23  C   UNL     1       1.561   3.515  21.488  0.00  0.00    +0.000 A 
ATOM     24  C   UNL     1       2.501   2.549  21.480  0.00  0.00    +0.000 A 
ATOM     25  C   UNL     1       3.605   2.582  20.456  0.00  0.00    +0.000 A 
ATOM     26  C   UNL     1       3.976   3.423  19.167  0.00  0.00    +0.000 A 
ENDBRANCH  17  18
ENDBRANCH  16  17
ENDBRANCH   2  16
TORSDOF 7
ENDMDL
MODEL 7
REMARK VINA RESULT:      -8.5      2.115      2.585
REMARK  Name = 
REMARK  8 active torsions:
REMARK  status: ('A' for Active; 'I' for Inactive)
REMARK    1  A    between atoms: C_1  and  C_2
REMARK    2  A    between atoms: C_2  and  O_3
REMARK    3  A    between atoms: O_3  and  C_4
REMARK    4  A    between atoms: C_7  and  C_8
REMARK    5  A    between atoms: N_9  and  N_10
REMARK    6  A    between atoms: C_11  and  C_13
REMARK    7  A    between atoms: C_13  and  C_14
REMARK    8  A    between atoms: C_14  and  N_15
REMARK                            x       y       z     vdW  Elec       q    Type
REMARK                         _______ _______ _______ _____ _____    ______ ____
ROOT
ATOM      1  N   UNL     1       7.416   7.390  16.791  0.00  0.00    +0.000 N 
ATOM      2  C   UNL     1       6.033   6.948  16.782  0.00  0.00    +0.000 C 
ATOM      3  O   UNL     1       5.131   7.723  17.199  0.00  0.00    +0.000 OA
ATOM      4  H   UNL     1       8.207   6.809  16.522  0.00  0.00    +0.000 HD
ENDROOT
BRANCH   1   6
ATOM      5  C   UNL     1       8.645   8.951  18.245  0.00  0.00    +0.000 C 
ATOM      6  N   UNL     1       7.751   8.738  17.286  0.00  0.00    +0.000 NA
BRANCH   5  10
ATOM      7  C   UNL     1       9.514  13.006  19.856  0.00  0.00    +0.000 A 
ATOM      8  C   UNL     1       9.790  11.870  20.618  0.00  0.00    +0.000 A 
ATOM      9  C   UNL     1       9.548  10.562  20.099  0.00  0.00    +0.000 A 
ATOM     10  C   UNL     1       8.995  10.359  18.812  0.00  0.00    +0.000 A 
ATOM     11  C   UNL     1       8.757  11.515  18.059  0.00  0.00    +0.000 A 
ATOM     12  C   UNL     1       9.011  12.813  18.571  0.00  0.00    +0.000 A 
BRANCH   7  13
ATOM     13  O   UNL     1       9.846  14.225  20.397  0.00  0.00    +0.000 OA
BRANCH  13  15
ATOM     14  C   UNL     1       7.861  15.430  21.079  0.00  0.00    +0.000 C 
ATOM     15  C   UNL     1       8.994  15.331  20.064  0.00  0.00    +0.000 C 
ENDBRANCH  13  15
ENDBRANCH   7  13
ENDBRANCH   5  10
ENDBRANCH   1   6
BRANCH   2  16
ATOM     16  C   UNL     1       5.524   5.461  16.252  0.00  0.00    +0.000 C 
BRANCH  16  17
ATOM     17  C   UNL     1       5.730   4.072  17.394  0.00  0.00    +0.000 C 
BRANCH  17  18
ATOM     18  N   UNL     1       4.669   3.522  18.444  0.00  0.00    +0.000 N 
ATOM     19  N   UNL     1       5.367   3.290  19.542  0.00  0.00    +0.000 NA
ATOM     20  N   UNL     1       4.676   2.437  20.227  0.00  0.00    +0.000 NA
ATOM     21  C   UNL     1       3.411   2.844  20.055  0.00  0.00    +0.000 A 
ATOM     22  C   UNL     1       2.531   2.532  21.181  0.00  0.00    +0.000 A 
ATOM     23  C   UNL     1       1.229   2.887  21.378  0.00  0.00    +0.000 A 
ATOM     24  C   UNL     1       0.743   3.542  20.304  0.00  0.00    +0.000 A 
ATOM     25  C   UNL     1       1.639   3.821  19.125  0.00  0.00    +0.000 A 
ATOM     26  C   UNL     1       3.173   3.677  18.765  0.00  0.00    +0.000 A 
ENDBRANCH  17  18
ENDBRANCH  16  17
ENDBRANCH   2  16
TORSDOF 7
ENDMDL
MODEL 8
REMARK VINA RESULT:      -8.4      5.832      9.396
REMARK  Name = 
REMARK  8 active torsions:
REMARK  status: ('A' for Active; 'I' for Inactive)
REMARK    1  A    between atoms: C_1  and  C_2
REMARK    2  A    between atoms: C_2  and  O_3
REMARK    3  A    between atoms: O_3  and  C_4
REMARK    4  A    between atoms: C_7  and  C_8
REMARK    5  A    between atoms: N_9  and  N_10
REMARK    6  A    between atoms: C_11  and  C_13
REMARK    7  A    between atoms: C_13  and  C_14
REMARK    8  A    between atoms: C_14  and  N_15
REMARK                            x       y       z     vdW  Elec       q    Type
REMARK                         _______ _______ _______ _____ _____    ______ ____
ROOT
ATOM      1  N   UNL     1       2.695   5.966  20.127  0.00  0.00    +0.000 N 
ATOM      2  C   UNL     1       2.003   4.705  20.330  0.00  0.00    +0.000 C 
ATOM      3  O   UNL     1       0.771   4.709  20.593  0.00  0.00    +0.000 OA
ATOM      4  H   UNL     1       3.695   6.053  19.964  0.00  0.00    +0.000 HD
ENDROOT
BRANCH   1   6
ATOM      5  C   UNL     1       1.382   7.646  21.357  0.00  0.00    +0.000 C 
ATOM      6  N   UNL     1       1.950   7.235  20.229  0.00  0.00    +0.000 NA
BRANCH   5  10
ATOM      7  C   UNL     1      -1.065  11.350  21.661  0.00  0.00    +0.000 A 
ATOM      8  C   UNL     1      -0.687  10.657  22.813  0.00  0.00    +0.000 A 
ATOM      9  C   UNL     1       0.127   9.487  22.730  0.00  0.00    +0.000 A 
ATOM     10  C   UNL     1       0.560   8.963  21.489  0.00  0.00    +0.000 A 
ATOM     11  C   UNL     1       0.191   9.695  20.354  0.00  0.00    +0.000 A 
ATOM     12  C   UNL     1      -0.606  10.865  20.438  0.00  0.00    +0.000 A 
BRANCH   7  13
ATOM     13  O   UNL     1      -1.785  12.509  21.828  0.00  0.00    +0.000 OA
BRANCH  13  15
ATOM     14  C   UNL     1      -4.032  12.620  22.719  0.00  0.00    +0.000 C 
ATOM     15  C   UNL     1      -2.542  12.628  23.041  0.00  0.00    +0.000 C 
ENDBRANCH  13  15
ENDBRANCH   7  13
ENDBRANCH   5  10
ENDBRANCH   1   6
BRANCH   2  16
ATOM     16  C   UNL     1       2.722   3.213  20.242  0.00  0.00    +0.000 C 
BRANCH  16  17
ATOM     17  C   UNL     1       3.992   2.993  18.972  0.00  0.00    +0.000 C 
BRANCH  17  18
ATOM     18  N   UNL     1       4.935   4.112  18.347  0.00  0.00    +0.000 N 
ATOM     19  N   UNL     1       4.148   4.813  17.550  0.00  0.00    +0.000 NA
ATOM     20  N   UNL     1       4.932   5.397  16.702  0.00  0.00    +0.000 NA
ATOM     21  C   UNL     1       5.985   5.761  17.445  0.00  0.00    +0.000 A 
ATOM     22  C   UNL     1       6.665   6.962  16.959  0.00  0.00    +0.000 A 
ATOM     23  C   UNL     1       7.694   7.656  17.525  0.00  0.00    +0.000 A 
ATOM     24  C   UNL     1       8.136   7.035  18.637  0.00  0.00    +0.000 A 
ATOM     25  C   UNL     1       7.465   5.771  19.110  0.00  0.00    +0.000 A 
ATOM     26  C   UNL     1       6.184   4.920  18.736  0.00  0.00    +0.000 A 
ENDBRANCH  17  18
ENDBRANCH  16  17
ENDBRANCH   2  16
TORSDOF 7
ENDMDL
MODEL 9
REMARK VINA RESULT:      -8.3      2.744      3.810
REMARK  Name = 
REMARK  8 active torsions:
REMARK  status: ('A' for Active; 'I' for Inactive)
REMARK    1  A    between atoms: C_1  and  C_2
REMARK    2  A    between atoms: C_2  and  O_3
REMARK    3  A    between atoms: O_3  and  C_4
REMARK    4  A    between atoms: C_7  and  C_8
REMARK    5  A    between atoms: N_9  and  N_10
REMARK    6  A    between atoms: C_11  and  C_13
REMARK    7  A    between atoms: C_13  and  C_14
REMARK    8  A    between atoms: C_14  and  N_15
REMARK                            x       y       z     vdW  Elec       q    Type
REMARK                         _______ _______ _______ _____ _____    ______ ____
ROOT
ATOM      1  N   UNL     1       7.360   6.865  18.045  0.00  0.00    +0.000 N 
ATOM      2  C   UNL     1       7.049   5.732  18.900  0.00  0.00    +0.000 C 
ATOM      3  O   UNL     1       7.603   5.636  20.028  0.00  0.00    +0.000 OA
ATOM      4  H   UNL     1       6.998   6.990  17.103  0.00  0.00    +0.000 HD
ENDROOT
BRANCH   1   6
ATOM      5  C   UNL     1       8.215   9.170  18.172  0.00  0.00    +0.000 C 
ATOM      6  N   UNL     1       8.316   7.888  18.506  0.00  0.00    +0.000 NA
BRANCH   5  10
ATOM      7  C   UNL     1      11.174  12.213  19.505  0.00  0.00    +0.000 A 
ATOM      8  C   UNL     1      10.994  11.952  18.145  0.00  0.00    +0.000 A 
ATOM      9  C   UNL     1      10.023  11.003  17.703  0.00  0.00    +0.000 A 
ATOM     10  C   UNL     1       9.227  10.268  18.614  0.00  0.00    +0.000 A 
ATOM     11  C   UNL     1       9.409  10.572  19.969  0.00  0.00    +0.000 A 
ATOM     12  C   UNL     1      10.363  11.525  20.406  0.00  0.00    +0.000 A 
BRANCH   7  13
ATOM     13  O   UNL     1      12.074  13.194  19.846  0.00  0.00    +0.000 OA
BRANCH  13  15
ATOM     14  C   UNL     1      11.928  15.592  20.134  0.00  0.00    +0.000 C 
ATOM     15  C   UNL     1      11.971  14.438  19.139  0.00  0.00    +0.000 C 
ENDBRANCH  13  15
ENDBRANCH   7  13
ENDBRANCH   5  10
ENDBRANCH   1   6
BRANCH   2  16
ATOM     16  C   UNL     1       5.993   4.516  18.503  0.00  0.00    +0.000 C 
BRANCH  16  17
ATOM     17  C   UNL     1       4.238   4.825  18.817  0.00  0.00    +0.000 C 
BRANCH  17  18
ATOM     18  N   UNL     1       3.497   6.233  18.845  0.00  0.00    +0.000 N 
ATOM     19  N   UNL     1       3.306   6.541  17.574  0.00  0.00    +0.000 NA
ATOM     20  N   UNL     1       3.151   7.824  17.540  0.00  0.00    +0.000 NA
ATOM     21  C   UNL     1       2.416   8.082  18.630  0.00  0.00    +0.000 A 
ATOM     22  C   UNL     1       1.552   9.256  18.498  0.00  0.00    +0.000 A 
ATOM     23  C   UNL     1       0.614   9.735  19.364  0.00  0.00    +0.000 A 
ATOM     24  C   UNL     1       0.605   9.017  20.505  0.00  0.00    +0.000 A 
ATOM     25  C   UNL     1       1.529   7.837  20.658  0.00  0.00    +0.000 A 
ATOM     26  C   UNL     1       2.530   7.013  19.751  0.00  0.00    +0.000 A 
ENDBRANCH  17  18
ENDBRANCH  16  17
ENDBRANCH   2  16
TORSDOF 7
ENDMDL
