MODEL 1
REMARK VINA RESULT:      -5.9      0.000      0.000
REMARK  Name = 
REMARK  5 active torsions:
REMARK  status: ('A' for Active; 'I' for Inactive)
REMARK    1  A    between atoms: C_1  and  O_2
REMARK    2  A    between atoms: O_2  and  C_3
REMARK    3  A    between atoms: C_3  and  C_4
REMARK    4  A    between atoms: C_4  and  N_5
REMARK    5  A    between atoms: N_5  and  C_6
REMARK                            x       y       z     vdW  Elec       q    Type
REMARK                         _______ _______ _______ _____ _____    ______ ____
ROOT
ATOM      1  C   UNL     1       4.255   4.644  18.107  0.00  0.00    +0.000 A 
ATOM      2  N   UNL     1       4.052   5.858  17.566  0.00  0.00    +0.000 NA
ATOM      3  C   UNL     1       3.130   6.635  18.141  0.00  0.00    +0.000 A 
ATOM      4  N   UNL     1       2.406   6.335  19.221  0.00  0.00    +0.000 NA
ATOM      5  C   UNL     1       2.611   5.129  19.759  0.00  0.00    +0.000 A 
ATOM      6  C   UNL     1       1.886   4.788  20.892  0.00  0.00    +0.000 A 
ATOM      7  C   UNL     1       2.045   3.556  21.530  0.00  0.00    +0.000 A 
ATOM      8  C   UNL     1       2.943   2.629  21.020  0.00  0.00    +0.000 A 
ATOM      9  C   UNL     1       3.673   2.943  19.875  0.00  0.00    +0.000 A 
ATOM     10  C   UNL     1       3.528   4.203  19.235  0.00  0.00    +0.000 A 
ENDROOT
BRANCH   1  11
ATOM     11  N   UNL     1       5.141   3.770  17.443  0.00  0.00    +0.000 N 
ATOM     12  H   UNL     1       5.897   3.479  18.059  0.00  0.00    +0.000 HD
BRANCH  11  13
ATOM     13  C   UNL     1       5.758   4.311  16.222  0.00  0.00    +0.000 C 
BRANCH  13  14
ATOM     14  C   UNL     1       7.238   4.623  16.495  0.00  0.00    +0.000 C 
BRANCH  14  16
ATOM     15  C   UNL     1       7.408   6.818  17.368  0.00  0.00    +0.000 C 
ATOM     16  O   UNL     1       7.460   6.012  16.201  0.00  0.00    +0.000 OA
ENDBRANCH  14  16
ENDBRANCH  13  14
ENDBRANCH  11  13
ENDBRANCH   1  11
TORSDOF 4
ENDMDL
MODEL 2
REMARK VINA RESULT:      -5.9      1.419      1.473
REMARK  Name = 
REMARK  5 active torsions:
REMARK  status: ('A' for Active; 'I' for Inactive)
REMARK    1  A    between atoms: C_1  and  O_2
REMARK    2  A    between atoms: O_2  and  C_3
REMARK    3  A    between atoms: C_3  and  C_4
REMARK    4  A    between atoms: C_4  and  N_5
REMARK    5  A    between atoms: N_5  and  C_6
REMARK                            x       y       z     vdW  Elec       q    Type
REMARK                         _______ _______ _______ _____ _____    ______ ____
ROOT
ATOM      1  C   UNL     1       3.709   4.888  17.659  0.00  0.00    +0.000 A 
ATOM      2  N   UNL     1       3.926   6.188  17.928  0.00  0.00    +0.000 NA
ATOM      3  C   UNL     1       3.169   6.748  18.875  0.00  0.00    +0.000 A 
ATOM      4  N   UNL     1       2.232   6.136  19.603  0.00  0.00    +0.000 NA
ATOM      5  C   UNL     1       2.020   4.845  19.336  0.00  0.00    +0.000 A 
ATOM      6  C   UNL     1       1.063   4.172  20.083  0.00  0.00    +0.000 A 
ATOM      7  C   UNL     1       0.786   2.818  19.884  0.00  0.00    +0.000 A 
ATOM      8  C   UNL     1       1.469   2.113  18.904  0.00  0.00    +0.000 A 
ATOM      9  C   UNL     1       2.426   2.770  18.131  0.00  0.00    +0.000 A 
ATOM     10  C   UNL     1       2.725   4.142  18.344  0.00  0.00    +0.000 A 
ENDROOT
BRANCH   1  11
ATOM     11  N   UNL     1       4.420   4.314  16.585  0.00  0.00    +0.000 N 
ATOM     12  H   UNL     1       4.797   3.404  16.841  0.00  0.00    +0.000 HD
BRANCH  11  13
ATOM     13  C   UNL     1       5.540   5.118  16.072  0.00  0.00    +0.000 C 
BRANCH  13  14
ATOM     14  C   UNL     1       6.660   4.183  15.588  0.00  0.00    +0.000 C 
BRANCH  14  16
ATOM     15  C   UNL     1       7.601   4.668  17.707  0.00  0.00    +0.000 C 
ATOM     16  O   UNL     1       7.854   4.507  16.320  0.00  0.00    +0.000 OA
ENDBRANCH  14  16
ENDBRANCH  13  14
ENDBRANCH  11  13
ENDBRANCH   1  11
TORSDOF 4
ENDMDL
MODEL 3
REMARK VINA RESULT:      -5.8      2.821      4.300
REMARK  Name = 
REMARK  5 active torsions:
REMARK  status: ('A' for Active; 'I' for Inactive)
REMARK    1  A    between atoms: C_1  and  O_2
REMARK    2  A    between atoms: O_2  and  C_3
REMARK    3  A    between atoms: C_3  and  C_4
REMARK    4  A    between atoms: C_4  and  N_5
REMARK    5  A    between atoms: N_5  and  C_6
REMARK                            x       y       z     vdW  Elec       q    Type
REMARK                         _______ _______ _______ _____ _____    ______ ____
ROOT
ATOM      1  C   UNL     1       6.272   6.348  16.614  0.00  0.00    +0.000 A 
ATOM      2  N   UNL     1       7.183   5.657  15.906  0.00  0.00    +0.000 NA
ATOM      3  C   UNL     1       6.895   4.384  15.623  0.00  0.00    +0.000 A 
ATOM      4  N   UNL     1       5.777   3.734  15.952  0.00  0.00    +0.000 NA
ATOM      5  C   UNL     1       4.872   4.423  16.652  0.00  0.00    +0.000 A 
ATOM      6  C   UNL     1       3.690   3.784  16.999  0.00  0.00    +0.000 A 
ATOM      7  C   UNL     1       2.682   4.431  17.717  0.00  0.00    +0.000 A 
ATOM      8  C   UNL     1       2.858   5.748  18.114  0.00  0.00    +0.000 A 
ATOM      9  C   UNL     1       4.043   6.408  17.789  0.00  0.00    +0.000 A 
ATOM     10  C   UNL     1       5.062   5.759  17.042  0.00  0.00    +0.000 A 
ENDROOT
BRANCH   1  11
ATOM     11  N   UNL     1       6.612   7.656  17.018  0.00  0.00    +0.000 N 
ATOM     12  H   UNL     1       6.727   8.268  16.213  0.00  0.00    +0.000 HD
BRANCH  11  13
ATOM     13  C   UNL     1       7.836   7.766  17.826  0.00  0.00    +0.000 C 
BRANCH  13  14
ATOM     14  C   UNL     1       8.220   9.247  17.970  0.00  0.00    +0.000 C 
BRANCH  14  16
ATOM     15  C   UNL     1       9.422  10.724  19.378  0.00  0.00    +0.000 C 
ATOM     16  O   UNL     1       9.084   9.372  19.113  0.00  0.00    +0.000 OA
ENDBRANCH  14  16
ENDBRANCH  13  14
ENDBRANCH  11  13
ENDBRANCH   1  11
TORSDOF 4
ENDMDL
MODEL 4
REMARK VINA RESULT:      -5.8      1.509      2.501
REMARK  Name = 
REMARK  5 active torsions:
REMARK  status: ('A' for Active; 'I' for Inactive)
REMARK    1  A    between atoms: C_1  and  O_2
REMARK    2  A    between atoms: O_2  and  C_3
REMARK    3  A    between atoms: C_3  and  C_4
REMARK    4  A    between atoms: C_4  and  N_5
REMARK    5  A    between atoms: N_5  and  C_6
REMARK                            x       y       z     vdW  Elec       q    Type
REMARK                         _______ _______ _______ _____ _____    ______ ____
ROOT
ATOM      1  C   UNL     1       3.790   3.704  17.606  0.00  0.00    +0.000 A 
ATOM      2  N   UNL     1       3.756   2.361  17.676  0.00  0.00    +0.000 NA
ATOM      3  C   UNL     1       3.103   1.822  18.709  0.00  0.00    +0.000 A 
ATOM      4  N   UNL     1       2.455   2.487  19.668  0.00  0.00    +0.000 NA
ATOM      5  C   UNL     1       2.488   3.820  19.595  0.00  0.00    +0.000 A 
ATOM      6  C   UNL     1       1.812   4.544  20.567  0.00  0.00    +0.000 A 
ATOM      7  C   UNL     1       1.779   5.940  20.561  0.00  0.00    +0.000 A 
ATOM      8  C   UNL     1       2.448   6.639  19.568  0.00  0.00    +0.000 A 
ATOM      9  C   UNL     1       3.145   5.935  18.587  0.00  0.00    +0.000 A 
ATOM     10  C   UNL     1       3.164   4.514  18.578  0.00  0.00    +0.000 A 
ENDROOT
BRANCH   1  11
ATOM     11  N   UNL     1       4.572   4.287  16.586  0.00  0.00    +0.000 N 
ATOM     12  H   UNL     1       4.504   3.752  15.723  0.00  0.00    +0.000 HD
BRANCH  11  13
ATOM     13  C   UNL     1       6.002   4.432  16.897  0.00  0.00    +0.000 C 
BRANCH  13  14
ATOM     14  C   UNL     1       6.745   4.939  15.651  0.00  0.00    +0.000 C 
BRANCH  14  16
ATOM     15  C   UNL     1       7.284   6.461  17.384  0.00  0.00    +0.000 C 
ATOM     16  O   UNL     1       7.509   6.096  16.031  0.00  0.00    +0.000 OA
ENDBRANCH  14  16
ENDBRANCH  13  14
ENDBRANCH  11  13
ENDBRANCH   1  11
TORSDOF 4
ENDMDL
MODEL 5
REMARK VINA RESULT:      -5.8      1.043      1.043
REMARK  Name = 
REMARK  5 active torsions:
REMARK  status: ('A' for Active; 'I' for Inactive)
REMARK    1  A    between atoms: C_1  and  O_2
REMARK    2  A    between atoms: O_2  and  C_3
REMARK    3  A    between atoms: C_3  and  C_4
REMARK    4  A    between atoms: C_4  and  N_5
REMARK    5  A    between atoms: N_5  and  C_6
REMARK                            x       y       z     vdW  Elec       q    Type
REMARK                         _______ _______ _______ _____ _____    ______ ____
ROOT
ATOM      1  C   UNL     1       4.216   4.653  18.248  0.00  0.00    +0.000 A 
ATOM      2  N   UNL     1       4.245   5.947  17.884  0.00  0.00    +0.000 NA
ATOM      3  C   UNL     1       3.284   6.738  18.370  0.00  0.00    +0.000 A 
ATOM      4  N   UNL     1       2.309   6.375  19.206  0.00  0.00    +0.000 NA
ATOM      5  C   UNL     1       2.285   5.090  19.569  0.00  0.00    +0.000 A 
ATOM      6  C   UNL     1       1.294   4.679  20.450  0.00  0.00    +0.000 A 
ATOM      7  C   UNL     1       1.200   3.359  20.896  0.00  0.00    +0.000 A 
ATOM      8  C   UNL     1       2.110   2.415  20.443  0.00  0.00    +0.000 A 
ATOM      9  C   UNL     1       3.107   2.800  19.548  0.00  0.00    +0.000 A 
ATOM     10  C   UNL     1       3.217   4.146  19.107  0.00  0.00    +0.000 A 
ENDROOT
BRANCH   1  11
ATOM     11  N   UNL     1       5.155   3.784  17.653  0.00  0.00    +0.000 N 
ATOM     12  H   UNL     1       5.775   3.382  18.353  0.00  0.00    +0.000 HD
BRANCH  11  13
ATOM     13  C   UNL     1       6.004   4.392  16.617  0.00  0.00    +0.000 C 
BRANCH  13  14
ATOM     14  C   UNL     1       7.442   4.516  17.146  0.00  0.00    +0.000 C 
BRANCH  14  16
ATOM     15  C   UNL     1       7.852   5.824  19.077  0.00  0.00    +0.000 C 
ATOM     16  O   UNL     1       7.383   4.580  18.581  0.00  0.00    +0.000 OA
ENDBRANCH  14  16
ENDBRANCH  13  14
ENDBRANCH  11  13
ENDBRANCH   1  11
TORSDOF 4
ENDMDL
MODEL 6
REMARK VINA RESULT:      -5.8      2.676      5.559
REMARK  Name = 
REMARK  5 active torsions:
REMARK  status: ('A' for Active; 'I' for Inactive)
REMARK    1  A    between atoms: C_1  and  O_2
REMARK    2  A    between atoms: O_2  and  C_3
REMARK    3  A    between atoms: C_3  and  C_4
REMARK    4  A    between atoms: C_4  and  N_5
REMARK    5  A    between atoms: N_5  and  C_6
REMARK                            x       y       z     vdW  Elec       q    Type
REMARK                         _______ _______ _______ _____ _____    ______ ____
ROOT
ATOM      1  C   UNL     1       5.489   4.601  18.812  0.00  0.00    +0.000 A 
ATOM      2  N   UNL     1       6.358   5.181  19.659  0.00  0.00    +0.000 NA
ATOM      3  C   UNL     1       7.463   5.711  19.128  0.00  0.00    +0.000 A 
ATOM      4  N   UNL     1       7.779   5.746  17.832  0.00  0.00    +0.000 NA
ATOM      5  C   UNL     1       6.913   5.172  16.993  0.00  0.00    +0.000 A 
ATOM      6  C   UNL     1       7.202   5.202  15.636  0.00  0.00    +0.000 A 
ATOM      7  C   UNL     1       6.348   4.641  14.684  0.00  0.00    +0.000 A 
ATOM      8  C   UNL     1       5.177   4.019  15.093  0.00  0.00    +0.000 A 
ATOM      9  C   UNL     1       4.871   3.965  16.452  0.00  0.00    +0.000 A 
ATOM     10  C   UNL     1       5.728   4.551  17.421  0.00  0.00    +0.000 A 
ENDROOT
BRANCH   1  11
ATOM     11  N   UNL     1       4.375   3.937  19.369  0.00  0.00    +0.000 N 
ATOM     12  H   UNL     1       3.966   3.288  18.701  0.00  0.00    +0.000 HD
BRANCH  11  13
ATOM     13  C   UNL     1       3.293   4.815  19.841  0.00  0.00    +0.000 C 
BRANCH  13  14
ATOM     14  C   UNL     1       1.956   4.337  19.252  0.00  0.00    +0.000 C 
BRANCH  14  16
ATOM     15  C   UNL     1       1.351   3.042  21.140  0.00  0.00    +0.000 C 
ATOM     16  O   UNL     1       1.029   4.168  20.337  0.00  0.00    +0.000 OA
ENDBRANCH  14  16
ENDBRANCH  13  14
ENDBRANCH  11  13
ENDBRANCH   1  11
TORSDOF 4
ENDMDL
MODEL 7
REMARK VINA RESULT:      -5.7      2.651      4.906
REMARK  Name = 
REMARK  5 active torsions:
REMARK  status: ('A' for Active; 'I' for Inactive)
REMARK    1  A    between atoms: C_1  and  O_2
REMARK    2  A    between atoms: O_2  and  C_3
REMARK    3  A    between atoms: C_3  and  C_4
REMARK    4  A    between atoms: C_4  and  N_5
REMARK    5  A    between atoms: N_5  and  C_6
REMARK                            x       y       z     vdW  Elec       q    Type
REMARK                         _______ _______ _______ _____ _____    ______ ____
ROOT
ATOM      1  C   UNL     1       4.773   4.272  18.732  0.00  0.00    +0.000 A 
ATOM      2  N   UNL     1       3.993   5.084  19.468  0.00  0.00    +0.000 NA
ATOM      3  C   UNL     1       3.639   6.249  18.919  0.00  0.00    +0.000 A 
ATOM      4  N   UNL     1       3.962   6.678  17.697  0.00  0.00    +0.000 NA
ATOM      5  C   UNL     1       4.734   5.869  16.967  0.00  0.00    +0.000 A 
ATOM      6  C   UNL     1       5.077   6.275  15.686  0.00  0.00    +0.000 A 
ATOM      7  C   UNL     1       5.867   5.488  14.846  0.00  0.00    +0.000 A 
ATOM      8  C   UNL     1       6.342   4.265  15.297  0.00  0.00    +0.000 A 
ATOM      9  C   UNL     1       6.021   3.840  16.585  0.00  0.00    +0.000 A 
ATOM     10  C   UNL     1       5.201   4.629  17.435  0.00  0.00    +0.000 A 
ENDROOT
BRANCH   1  11
ATOM     11  N   UNL     1       5.247   3.091  19.341  0.00  0.00    +0.000 N 
ATOM     12  H   UNL     1       5.811   2.547  18.692  0.00  0.00    +0.000 HD
BRANCH  11  13
ATOM     13  C   UNL     1       4.207   2.196  19.869  0.00  0.00    +0.000 C 
BRANCH  13  14
ATOM     14  C   UNL     1       3.312   1.717  18.715  0.00  0.00    +0.000 C 
BRANCH  14  16
ATOM     15  C   UNL     1       1.259   2.881  18.517  0.00  0.00    +0.000 C 
ATOM     16  O   UNL     1       1.945   1.809  19.147  0.00  0.00    +0.000 OA
ENDBRANCH  14  16
ENDBRANCH  13  14
ENDBRANCH  11  13
ENDBRANCH   1  11
TORSDOF 4
ENDMDL
MODEL 8
REMARK VINA RESULT:      -5.7      1.587      1.819
REMARK  Name = 
REMARK  5 active torsions:
REMARK  status: ('A' for Active; 'I' for Inactive)
REMARK    1  A    between atoms: C_1  and  O_2
REMARK    2  A    between atoms: O_2  and  C_3
REMARK    3  A    between atoms: C_3  and  C_4
REMARK    4  A    between atoms: C_4  and  N_5
REMARK    5  A    between atoms: N_5  and  C_6
REMARK                            x       y       z     vdW  Elec       q    Type
REMARK                         _______ _______ _______ _____ _____    ______ ____
ROOT
ATOM      1  C   UNL     1       4.794   4.404  18.873  0.00  0.00    +0.000 A 
ATOM      2  N   UNL     1       4.758   5.718  19.158  0.00  0.00    +0.000 NA
ATOM      3  C   UNL     1       3.556   6.268  19.345  0.00  0.00    +0.000 A 
ATOM      4  N   UNL     1       2.382   5.635  19.304  0.00  0.00    +0.000 NA
ATOM      5  C   UNL     1       2.419   4.330  19.024  0.00  0.00    +0.000 A 
ATOM      6  C   UNL     1       1.218   3.635  18.988  0.00  0.00    +0.000 A 
ATOM      7  C   UNL     1       1.162   2.266  18.719  0.00  0.00    +0.000 A 
ATOM      8  C   UNL     1       2.333   1.567  18.465  0.00  0.00    +0.000 A 
ATOM      9  C   UNL     1       3.551   2.245  18.483  0.00  0.00    +0.000 A 
ATOM     10  C   UNL     1       3.614   3.634  18.776  0.00  0.00    +0.000 A 
ENDROOT
BRANCH   1  11
ATOM     11  N   UNL     1       6.046   3.834  18.561  0.00  0.00    +0.000 N 
ATOM     12  H   UNL     1       6.500   3.470  19.395  0.00  0.00    +0.000 HD
BRANCH  11  13
ATOM     13  C   UNL     1       7.002   4.741  17.907  0.00  0.00    +0.000 C 
BRANCH  13  14
ATOM     14  C   UNL     1       6.937   4.538  16.384  0.00  0.00    +0.000 C 
BRANCH  14  16
ATOM     15  C   UNL     1       5.335   6.099  15.605  0.00  0.00    +0.000 C 
ATOM     16  O   UNL     1       6.717   5.821  15.775  0.00  0.00    +0.000 OA
ENDBRANCH  14  16
ENDBRANCH  13  14
ENDBRANCH  11  13
ENDBRANCH   1  11
TORSDOF 4
ENDMDL
MODEL 9
REMARK VINA RESULT:      -5.7      1.085      1.328
REMARK  Name = 
REMARK  5 active torsions:
REMARK  status: ('A' for Active; 'I' for Inactive)
REMARK    1  A    between atoms: C_1  and  O_2
REMARK    2  A    between atoms: O_2  and  C_3
REMARK    3  A    between atoms: C_3  and  C_4
REMARK    4  A    between atoms: C_4  and  N_5
REMARK    5  A    between atoms: N_5  and  C_6
REMARK                            x       y       z     vdW  Elec       q    Type
REMARK                         _______ _______ _______ _____ _____    ______ ____
ROOT
ATOM      1  C   UNL     1       3.775   4.734  17.747  0.00  0.00    +0.000 A 
ATOM      2  N   UNL     1       3.898   6.061  17.566  0.00  0.00    +0.000 NA
ATOM      3  C   UNL     1       3.156   6.853  18.346  0.00  0.00    +0.000 A 
ATOM      4  N   UNL     1       2.320   6.456  19.308  0.00  0.00    +0.000 NA
ATOM      5  C   UNL     1       2.202   5.138  19.488  0.00  0.00    +0.000 A 
ATOM      6  C   UNL     1       1.354   4.689  20.490  0.00  0.00    +0.000 A 
ATOM      7  C   UNL     1       1.180   3.330  20.759  0.00  0.00    +0.000 A 
ATOM      8  C   UNL     1       1.859   2.387  20.002  0.00  0.00    +0.000 A 
ATOM      9  C   UNL     1       2.707   2.813  18.981  0.00  0.00    +0.000 A 
ATOM     10  C   UNL     1       2.902   4.195  18.717  0.00  0.00    +0.000 A 
ENDROOT
BRANCH   1  11
ATOM     11  N   UNL     1       4.465   3.885  16.856  0.00  0.00    +0.000 N 
ATOM     12  H   UNL     1       5.082   3.252  17.360  0.00  0.00    +0.000 HD
BRANCH  11  13
ATOM     13  C   UNL     1       5.279   4.570  15.841  0.00  0.00    +0.000 C 
BRANCH  13  14
ATOM     14  C   UNL     1       6.761   4.496  16.241  0.00  0.00    +0.000 C 
BRANCH  14  16
ATOM     15  C   UNL     1       7.043   4.861  13.918  0.00  0.00    +0.000 C 
ATOM     16  O   UNL     1       7.529   5.153  15.219  0.00  0.00    +0.000 OA
ENDBRANCH  14  16
ENDBRANCH  13  14
ENDBRANCH  11  13
ENDBRANCH   1  11
TORSDOF 4
ENDMDL
