MODEL 1
REMARK VINA RESULT:      -7.9      0.000      0.000
REMARK  Name = 
REMARK  1 active torsions:
REMARK  status: ('A' for Active; 'I' for Inactive)
REMARK    1  A    between atoms: N_8  and  C_9
REMARK                            x       y       z     vdW  Elec       q    Type
REMARK                         _______ _______ _______ _____ _____    ______ ____
ROOT
ATOM      1  O   UNL     1       1.077   2.893  22.044  0.00  0.00    +0.000 OA
ATOM      2  C   UNL     1       1.291   3.599  21.058  0.00  0.00    +0.000 C 
ATOM      3  C   UNL     1       0.900   3.156  19.667  0.00  0.00    +0.000 C 
ATOM      4  C   UNL     1       2.099   3.049  18.800  0.00  0.00    +0.000 A 
ATOM      5  C   UNL     1       2.579   1.843  18.337  0.00  0.00    +0.000 A 
ATOM      6  N   UNL     1       3.697   1.720  17.599  0.00  0.00    +0.000 NA
ATOM      7  C   UNL     1       4.340   2.852  17.291  0.00  0.00    +0.000 A 
ATOM      8  N   UNL     1       5.509   2.712  16.545  0.00  0.00    +0.000 N 
ATOM      9  N   UNL     1       3.933   4.071  17.676  0.00  0.00    +0.000 NA
ATOM     10  C   UNL     1       2.832   4.162  18.451  0.00  0.00    +0.000 A 
ATOM     11  C   UNL     1       2.465   5.524  18.901  0.00  0.00    +0.000 A 
ATOM     12  C   UNL     1       2.569   6.599  17.994  0.00  0.00    +0.000 A 
ATOM     13  C   UNL     1       2.261   7.908  18.370  0.00  0.00    +0.000 A 
ATOM     14  C   UNL     1       1.900   8.185  19.683  0.00  0.00    +0.000 A 
ATOM     15  C   UNL     1       1.826   7.150  20.611  0.00  0.00    +0.000 A 
ATOM     16  C   UNL     1       2.049   5.820  20.221  0.00  0.00    +0.000 A 
ATOM     17  N   UNL     1       1.813   4.854  21.219  0.00  0.00    +0.000 N 
ATOM     18  H   UNL     1       5.713   1.734  16.389  0.00  0.00    +0.000 HD
ATOM     19  H   UNL     1       1.843   5.147  22.189  0.00  0.00    +0.000 HD
ENDROOT
BRANCH   8  20
ATOM     20  C   UNL     1       6.045   3.588  15.586  0.00  0.00    +0.000 A 
ATOM     21  C   UNL     1       5.669   3.493  14.233  0.00  0.00    +0.000 A 
ATOM     22  C   UNL     1       6.189   4.359  13.273  0.00  0.00    +0.000 A 
ATOM     23  C   UNL     1       7.086   5.353  13.644  0.00  0.00    +0.000 A 
ATOM     24  C   UNL     1       7.471   5.475  14.980  0.00  0.00    +0.000 A 
ATOM     25  C   UNL     1       6.958   4.594  15.940  0.00  0.00    +0.000 A 
ATOM     26 BR   UNL     1       7.518   4.827  17.742  0.00  0.00    +0.000 Br
ENDBRANCH   8  20
TORSDOF 1
ENDMDL
MODEL 2
REMARK VINA RESULT:      -7.8      2.994      6.418
REMARK  Name = 
REMARK  1 active torsions:
REMARK  status: ('A' for Active; 'I' for Inactive)
REMARK    1  A    between atoms: N_8  and  C_9
REMARK                            x       y       z     vdW  Elec       q    Type
REMARK                         _______ _______ _______ _____ _____    ______ ____
ROOT
ATOM      1  O   UNL     1       3.425   1.220  18.577  0.00  0.00    +0.000 OA
ATOM      2  C   UNL     1       3.791   2.391  18.467  0.00  0.00    +0.000 C 
ATOM      3  C   UNL     1       4.281   3.182  19.657  0.00  0.00    +0.000 C 
ATOM      4  C   UNL     1       3.411   4.362  19.889  0.00  0.00    +0.000 A 
ATOM      5  C   UNL     1       2.585   4.474  20.987  0.00  0.00    +0.000 A 
ATOM      6  N   UNL     1       1.746   5.506  21.186  0.00  0.00    +0.000 NA
ATOM      7  C   UNL     1       1.759   6.476  20.263  0.00  0.00    +0.000 A 
ATOM      8  N   UNL     1       0.871   7.531  20.467  0.00  0.00    +0.000 N 
ATOM      9  N   UNL     1       2.547   6.463  19.177  0.00  0.00    +0.000 NA
ATOM     10  C   UNL     1       3.347   5.395  18.981  0.00  0.00    +0.000 A 
ATOM     11  C   UNL     1       4.147   5.402  17.735  0.00  0.00    +0.000 A 
ATOM     12  C   UNL     1       4.749   6.606  17.312  0.00  0.00    +0.000 A 
ATOM     13  C   UNL     1       5.494   6.679  16.133  0.00  0.00    +0.000 A 
ATOM     14  C   UNL     1       5.602   5.563  15.312  0.00  0.00    +0.000 A 
ATOM     15  C   UNL     1       4.985   4.371  15.683  0.00  0.00    +0.000 A 
ATOM     16  C   UNL     1       4.310   4.265  16.909  0.00  0.00    +0.000 A 
ATOM     17  N   UNL     1       3.846   2.974  17.230  0.00  0.00    +0.000 N 
ATOM     18  H   UNL     1       0.307   7.363  21.290  0.00  0.00    +0.000 HD
ATOM     19  H   UNL     1       3.707   2.311  16.475  0.00  0.00    +0.000 HD
ENDROOT
BRANCH   8  20
ATOM     20  C   UNL     1       1.026   8.883  20.122  0.00  0.00    +0.000 A 
ATOM     21  C   UNL     1       1.434   9.256  18.829  0.00  0.00    +0.000 A 
ATOM     22  C   UNL     1       1.585  10.595  18.472  0.00  0.00    +0.000 A 
ATOM     23  C   UNL     1       1.315  11.597  19.396  0.00  0.00    +0.000 A 
ATOM     24  C   UNL     1       0.902  11.256  20.685  0.00  0.00    +0.000 A 
ATOM     25  C   UNL     1       0.766   9.910  21.045  0.00  0.00    +0.000 A 
ATOM     26 BR   UNL     1       0.187   9.522  22.814  0.00  0.00    +0.000 Br
ENDBRANCH   8  20
TORSDOF 1
ENDMDL
MODEL 3
REMARK VINA RESULT:      -7.7      4.544      7.400
REMARK  Name = 
REMARK  1 active torsions:
REMARK  status: ('A' for Active; 'I' for Inactive)
REMARK    1  A    between atoms: N_8  and  C_9
REMARK                            x       y       z     vdW  Elec       q    Type
REMARK                         _______ _______ _______ _____ _____    ______ ____
ROOT
ATOM      1  O   UNL     1       0.092  13.867  21.566  0.00  0.00    +0.000 OA
ATOM      2  C   UNL     1      -0.352  12.855  21.022  0.00  0.00    +0.000 C 
ATOM      3  C   UNL     1      -0.906  11.702  21.826  0.00  0.00    +0.000 C 
ATOM      4  C   UNL     1      -0.121  10.468  21.574  0.00  0.00    +0.000 A 
ATOM      5  C   UNL     1       0.685   9.889  22.530  0.00  0.00    +0.000 A 
ATOM      6  N   UNL     1       1.450   8.806  22.304  0.00  0.00    +0.000 NA
ATOM      7  C   UNL     1       1.380   8.268  21.081  0.00  0.00    +0.000 A 
ATOM      8  N   UNL     1       2.192   7.159  20.849  0.00  0.00    +0.000 N 
ATOM      9  N   UNL     1       0.605   8.748  20.096  0.00  0.00    +0.000 NA
ATOM     10  C   UNL     1      -0.119   9.861  20.337  0.00  0.00    +0.000 A 
ATOM     11  C   UNL     1      -0.904  10.385  19.198  0.00  0.00    +0.000 A 
ATOM     12  C   UNL     1      -1.583   9.479  18.356  0.00  0.00    +0.000 A 
ATOM     13  C   UNL     1      -2.320   9.914  17.252  0.00  0.00    +0.000 A 
ATOM     14  C   UNL     1      -2.344  11.263  16.924  0.00  0.00    +0.000 A 
ATOM     15  C   UNL     1      -1.651  12.178  17.712  0.00  0.00    +0.000 A 
ATOM     16  C   UNL     1      -0.981  11.760  18.874  0.00  0.00    +0.000 A 
ATOM     17  N   UNL     1      -0.434  12.796  19.657  0.00  0.00    +0.000 N 
ATOM     18  H   UNL     1       2.758   6.960  21.664  0.00  0.00    +0.000 HD
ATOM     19  H   UNL     1      -0.243  13.686  19.212  0.00  0.00    +0.000 HD
ENDROOT
BRANCH   8  20
ATOM     20  C   UNL     1       1.949   6.055  20.015  0.00  0.00    +0.000 A 
ATOM     21  C   UNL     1       1.302   4.908  20.508  0.00  0.00    +0.000 A 
ATOM     22  C   UNL     1       1.049   3.809  19.689  0.00  0.00    +0.000 A 
ATOM     23  C   UNL     1       1.423   3.836  18.351  0.00  0.00    +0.000 A 
ATOM     24  C   UNL     1       2.061   4.964  17.833  0.00  0.00    +0.000 A 
ATOM     25  C   UNL     1       2.326   6.061  18.662  0.00  0.00    +0.000 A 
ATOM     26 BR   UNL     1       3.187   7.568  17.885  0.00  0.00    +0.000 Br
ENDBRANCH   8  20
TORSDOF 1
ENDMDL
MODEL 4
REMARK VINA RESULT:      -7.5      4.115      6.784
REMARK  Name = 
REMARK  1 active torsions:
REMARK  status: ('A' for Active; 'I' for Inactive)
REMARK    1  A    between atoms: N_8  and  C_9
REMARK                            x       y       z     vdW  Elec       q    Type
REMARK                         _______ _______ _______ _____ _____    ______ ____
ROOT
ATOM      1  O   UNL     1      -0.554  12.951  18.025  0.00  0.00    +0.000 OA
ATOM      2  C   UNL     1      -0.100  12.197  18.887  0.00  0.00    +0.000 C 
ATOM      3  C   UNL     1       1.380  11.913  18.991  0.00  0.00    +0.000 C 
ATOM      4  C   UNL     1       1.647  10.467  18.789  0.00  0.00    +0.000 A 
ATOM      5  C   UNL     1       2.301   9.979  17.679  0.00  0.00    +0.000 A 
ATOM      6  N   UNL     1       2.500   8.668  17.448  0.00  0.00    +0.000 NA
ATOM      7  C   UNL     1       2.053   7.821  18.382  0.00  0.00    +0.000 A 
ATOM      8  N   UNL     1       2.245   6.465  18.124  0.00  0.00    +0.000 N 
ATOM      9  N   UNL     1       1.429   8.207  19.505  0.00  0.00    +0.000 NA
ATOM     10  C   UNL     1       1.204   9.524  19.690  0.00  0.00    +0.000 A 
ATOM     11  C   UNL     1       0.454   9.890  20.913  0.00  0.00    +0.000 A 
ATOM     12  C   UNL     1       0.744   9.224  22.122  0.00  0.00    +0.000 A 
ATOM     13  C   UNL     1       0.052   9.509  23.301  0.00  0.00    +0.000 A 
ATOM     14  C   UNL     1      -0.992  10.426  23.287  0.00  0.00    +0.000 A 
ATOM     15  C   UNL     1      -1.327  11.072  22.100  0.00  0.00    +0.000 A 
ATOM     16  C   UNL     1      -0.580  10.856  20.931  0.00  0.00    +0.000 A 
ATOM     17  N   UNL     1      -0.933  11.667  19.835  0.00  0.00    +0.000 N 
ATOM     18  H   UNL     1       2.670   6.335  17.215  0.00  0.00    +0.000 HD
ATOM     19  H   UNL     1      -1.861  12.076  19.818  0.00  0.00    +0.000 HD
ENDROOT
BRANCH   8  20
ATOM     20  C   UNL     1       2.479   5.425  19.039  0.00  0.00    +0.000 A 
ATOM     21  C   UNL     1       1.743   5.337  20.235  0.00  0.00    +0.000 A 
ATOM     22  C   UNL     1       1.960   4.306  21.147  0.00  0.00    +0.000 A 
ATOM     23  C   UNL     1       2.909   3.327  20.879  0.00  0.00    +0.000 A 
ATOM     24  C   UNL     1       3.649   3.385  19.697  0.00  0.00    +0.000 A 
ATOM     25  C   UNL     1       3.438   4.430  18.789  0.00  0.00    +0.000 A 
ATOM     26 BR   UNL     1       4.475   4.438  17.195  0.00  0.00    +0.000 Br
ENDBRANCH   8  20
TORSDOF 1
ENDMDL
MODEL 5
REMARK VINA RESULT:      -7.4      3.530      7.390
REMARK  Name = 
REMARK  1 active torsions:
REMARK  status: ('A' for Active; 'I' for Inactive)
REMARK    1  A    between atoms: N_8  and  C_9
REMARK                            x       y       z     vdW  Elec       q    Type
REMARK                         _______ _______ _______ _____ _____    ______ ____
ROOT
ATOM      1  O   UNL     1       5.641   4.051  16.996  0.00  0.00    +0.000 OA
ATOM      2  C   UNL     1       4.634   4.150  17.697  0.00  0.00    +0.000 C 
ATOM      3  C   UNL     1       3.327   4.663  17.138  0.00  0.00    +0.000 C 
ATOM      4  C   UNL     1       2.911   5.901  17.843  0.00  0.00    +0.000 A 
ATOM      5  C   UNL     1       2.898   7.137  17.234  0.00  0.00    +0.000 A 
ATOM      6  N   UNL     1       2.582   8.278  17.871  0.00  0.00    +0.000 NA
ATOM      7  C   UNL     1       2.236   8.170  19.159  0.00  0.00    +0.000 A 
ATOM      8  N   UNL     1       1.930   9.360  19.817  0.00  0.00    +0.000 N 
ATOM      9  N   UNL     1       2.195   7.006  19.826  0.00  0.00    +0.000 NA
ATOM     10  C   UNL     1       2.559   5.883  19.174  0.00  0.00    +0.000 A 
ATOM     11  C   UNL     1       2.559   4.637  19.975  0.00  0.00    +0.000 A 
ATOM     12  C   UNL     1       1.508   4.408  20.888  0.00  0.00    +0.000 A 
ATOM     13  C   UNL     1       1.468   3.263  21.688  0.00  0.00    +0.000 A 
ATOM     14  C   UNL     1       2.512   2.348  21.640  0.00  0.00    +0.000 A 
ATOM     15  C   UNL     1       3.582   2.567  20.777  0.00  0.00    +0.000 A 
ATOM     16  C   UNL     1       3.588   3.669  19.907  0.00  0.00    +0.000 A 
ATOM     17  N   UNL     1       4.658   3.706  18.992  0.00  0.00    +0.000 N 
ATOM     18  H   UNL     1       2.067  10.149  19.199  0.00  0.00    +0.000 HD
ATOM     19  H   UNL     1       5.500   3.187  19.214  0.00  0.00    +0.000 HD
ENDROOT
BRANCH   8  20
ATOM     20  C   UNL     1       1.007   9.575  20.853  0.00  0.00    +0.000 A 
ATOM     21  C   UNL     1       1.257   9.097  22.152  0.00  0.00    +0.000 A 
ATOM     22  C   UNL     1       0.353   9.310  23.191  0.00  0.00    +0.000 A 
ATOM     23  C   UNL     1      -0.819  10.019  22.961  0.00  0.00    +0.000 A 
ATOM     24  C   UNL     1      -1.091  10.511  21.682  0.00  0.00    +0.000 A 
ATOM     25  C   UNL     1      -0.187  10.283  20.638  0.00  0.00    +0.000 A 
ATOM     26 BR   UNL     1      -0.617  10.993  18.927  0.00  0.00    +0.000 Br
ENDBRANCH   8  20
TORSDOF 1
ENDMDL
MODEL 6
REMARK VINA RESULT:      -7.3      3.380      6.682
REMARK  Name = 
REMARK  1 active torsions:
REMARK  status: ('A' for Active; 'I' for Inactive)
REMARK    1  A    between atoms: N_8  and  C_9
REMARK                            x       y       z     vdW  Elec       q    Type
REMARK                         _______ _______ _______ _____ _____    ______ ____
ROOT
ATOM      1  O   UNL     1       6.792   4.074  18.549  0.00  0.00    +0.000 OA
ATOM      2  C   UNL     1       5.565   4.182  18.569  0.00  0.00    +0.000 C 
ATOM      3  C   UNL     1       4.783   4.560  17.333  0.00  0.00    +0.000 C 
ATOM      4  C   UNL     1       4.053   5.833  17.550  0.00  0.00    +0.000 A 
ATOM      5  C   UNL     1       4.382   7.001  16.897  0.00  0.00    +0.000 A 
ATOM      6  N   UNL     1       3.772   8.179  17.123  0.00  0.00    +0.000 NA
ATOM      7  C   UNL     1       2.775   8.175  18.015  0.00  0.00    +0.000 A 
ATOM      8  N   UNL     1       2.163   9.404  18.258  0.00  0.00    +0.000 N 
ATOM      9  N   UNL     1       2.369   7.082  18.679  0.00  0.00    +0.000 NA
ATOM     10  C   UNL     1       3.027   5.924  18.464  0.00  0.00    +0.000 A 
ATOM     11  C   UNL     1       2.581   4.764  19.270  0.00  0.00    +0.000 A 
ATOM     12  C   UNL     1       1.201   4.563  19.479  0.00  0.00    +0.000 A 
ATOM     13  C   UNL     1       0.723   3.501  20.251  0.00  0.00    +0.000 A 
ATOM     14  C   UNL     1       1.617   2.649  20.885  0.00  0.00    +0.000 A 
ATOM     15  C   UNL     1       2.987   2.846  20.730  0.00  0.00    +0.000 A 
ATOM     16  C   UNL     1       3.475   3.856  19.886  0.00  0.00    +0.000 A 
ATOM     17  N   UNL     1       4.872   3.867  19.707  0.00  0.00    +0.000 N 
ATOM     18  H   UNL     1       2.620  10.136  17.732  0.00  0.00    +0.000 HD
ATOM     19  H   UNL     1       5.451   3.423  20.411  0.00  0.00    +0.000 HD
ENDROOT
BRANCH   8  20
ATOM     20  C   UNL     1       0.823   9.663  18.590  0.00  0.00    +0.000 A 
ATOM     21  C   UNL     1      -0.144   9.854  17.586  0.00  0.00    +0.000 A 
ATOM     22  C   UNL     1      -1.478  10.106  17.902  0.00  0.00    +0.000 A 
ATOM     23  C   UNL     1      -1.883  10.158  19.230  0.00  0.00    +0.000 A 
ATOM     24  C   UNL     1      -0.945   9.966  20.247  0.00  0.00    +0.000 A 
ATOM     25  C   UNL     1       0.396   9.728  19.926  0.00  0.00    +0.000 A 
ATOM     26 BR   UNL     1       1.614   9.463  21.363  0.00  0.00    +0.000 Br
ENDBRANCH   8  20
TORSDOF 1
ENDMDL
MODEL 7
REMARK VINA RESULT:      -7.3      5.030      7.890
REMARK  Name = 
REMARK  1 active torsions:
REMARK  status: ('A' for Active; 'I' for Inactive)
REMARK    1  A    between atoms: N_8  and  C_9
REMARK                            x       y       z     vdW  Elec       q    Type
REMARK                         _______ _______ _______ _____ _____    ______ ____
ROOT
ATOM      1  O   UNL     1      -0.941  14.456  20.317  0.00  0.00    +0.000 OA
ATOM      2  C   UNL     1      -1.228  13.320  19.937  0.00  0.00    +0.000 C 
ATOM      3  C   UNL     1      -1.674  12.250  20.906  0.00  0.00    +0.000 C 
ATOM      4  C   UNL     1      -0.730  11.105  20.886  0.00  0.00    +0.000 A 
ATOM      5  C   UNL     1       0.092  10.799  21.949  0.00  0.00    +0.000 A 
ATOM      6  N   UNL     1       0.996   9.803  21.928  0.00  0.00    +0.000 NA
ATOM      7  C   UNL     1       1.055   9.070  20.811  0.00  0.00    +0.000 A 
ATOM      8  N   UNL     1       2.009   8.054  20.791  0.00  0.00    +0.000 N 
ATOM      9  N   UNL     1       0.277   9.279  19.738  0.00  0.00    +0.000 NA
ATOM     10  C   UNL     1      -0.591  10.311  19.769  0.00  0.00    +0.000 A 
ATOM     11  C   UNL     1      -1.378  10.537  18.536  0.00  0.00    +0.000 A 
ATOM     12  C   UNL     1      -1.896   9.425  17.839  0.00  0.00    +0.000 A 
ATOM     13  C   UNL     1      -2.624   9.576  16.656  0.00  0.00    +0.000 A 
ATOM     14  C   UNL     1      -2.799  10.839  16.107  0.00  0.00    +0.000 A 
ATOM     15  C   UNL     1      -2.266  11.952  16.751  0.00  0.00    +0.000 A 
ATOM     16  C   UNL     1      -1.609  11.819  17.985  0.00  0.00    +0.000 A 
ATOM     17  N   UNL     1      -1.234  13.031  18.599  0.00  0.00    +0.000 N 
ATOM     18  H   UNL     1       2.554   8.066  21.644  0.00  0.00    +0.000 HD
ATOM     19  H   UNL     1      -1.134  13.854  18.017  0.00  0.00    +0.000 HD
ENDROOT
BRANCH   8  20
ATOM     20  C   UNL     1       1.947   6.808  20.147  0.00  0.00    +0.000 A 
ATOM     21  C   UNL     1       1.477   5.668  20.824  0.00  0.00    +0.000 A 
ATOM     22  C   UNL     1       1.405   4.427  20.194  0.00  0.00    +0.000 A 
ATOM     23  C   UNL     1       1.786   4.297  18.864  0.00  0.00    +0.000 A 
ATOM     24  C   UNL     1       2.250   5.413  18.165  0.00  0.00    +0.000 A 
ATOM     25  C   UNL     1       2.335   6.655  18.805  0.00  0.00    +0.000 A 
ATOM     26 BR   UNL     1       2.964   8.133  17.787  0.00  0.00    +0.000 Br
ENDBRANCH   8  20
TORSDOF 1
ENDMDL
MODEL 8
REMARK VINA RESULT:      -7.0      3.341      6.532
REMARK  Name = 
REMARK  1 active torsions:
REMARK  status: ('A' for Active; 'I' for Inactive)
REMARK    1  A    between atoms: N_8  and  C_9
REMARK                            x       y       z     vdW  Elec       q    Type
REMARK                         _______ _______ _______ _____ _____    ______ ____
ROOT
ATOM      1  O   UNL     1       2.285   2.057  19.110  0.00  0.00    +0.000 OA
ATOM      2  C   UNL     1       2.876   3.117  18.900  0.00  0.00    +0.000 C 
ATOM      3  C   UNL     1       3.397   3.970  20.033  0.00  0.00    +0.000 C 
ATOM      4  C   UNL     1       2.749   5.306  20.017  0.00  0.00    +0.000 A 
ATOM      5  C   UNL     1       1.864   5.716  20.990  0.00  0.00    +0.000 A 
ATOM      6  N   UNL     1       1.222   6.898  20.962  0.00  0.00    +0.000 NA
ATOM      7  C   UNL     1       1.503   7.709  19.936  0.00  0.00    +0.000 A 
ATOM      8  N   UNL     1       0.818   8.922  19.904  0.00  0.00    +0.000 N 
ATOM      9  N   UNL     1       2.370   7.404  18.958  0.00  0.00    +0.000 NA
ATOM     10  C   UNL     1       2.967   6.195  18.988  0.00  0.00    +0.000 A 
ATOM     11  C   UNL     1       3.863   5.884  17.851  0.00  0.00    +0.000 A 
ATOM     12  C   UNL     1       4.720   6.890  17.357  0.00  0.00    +0.000 A 
ATOM     13  C   UNL     1       5.569   6.662  16.271  0.00  0.00    +0.000 A 
ATOM     14  C   UNL     1       5.538   5.440  15.612  0.00  0.00    +0.000 A 
ATOM     15  C   UNL     1       4.674   4.440  16.052  0.00  0.00    +0.000 A 
ATOM     16  C   UNL     1       3.881   4.630  17.195  0.00  0.00    +0.000 A 
ATOM     17  N   UNL     1       3.154   3.500  17.616  0.00  0.00    +0.000 N 
ATOM     18  H   UNL     1       0.159   8.975  20.670  0.00  0.00    +0.000 HD
ATOM     19  H   UNL     1       2.960   2.772  16.937  0.00  0.00    +0.000 HD
ENDROOT
BRANCH   8  20
ATOM     20  C   UNL     1       1.257  10.164  19.417  0.00  0.00    +0.000 A 
ATOM     21  C   UNL     1       2.030  10.245  18.244  0.00  0.00    +0.000 A 
ATOM     22  C   UNL     1       2.467  11.471  17.746  0.00  0.00    +0.000 A 
ATOM     23  C   UNL     1       2.129  12.649  18.400  0.00  0.00    +0.000 A 
ATOM     24  C   UNL     1       1.357  12.599  19.563  0.00  0.00    +0.000 A 
ATOM     25  C   UNL     1       0.932  11.364  20.068  0.00  0.00    +0.000 A 
ATOM     26 BR   UNL     1      -0.126  11.374  21.649  0.00  0.00    +0.000 Br
ENDBRANCH   8  20
TORSDOF 1
ENDMDL
MODEL 9
REMARK VINA RESULT:      -6.9     10.118     13.359
REMARK  Name = 
REMARK  1 active torsions:
REMARK  status: ('A' for Active; 'I' for Inactive)
REMARK    1  A    between atoms: N_8  and  C_9
REMARK                            x       y       z     vdW  Elec       q    Type
REMARK                         _______ _______ _______ _____ _____    ______ ____
ROOT
ATOM      1  O   UNL     1      -2.687  10.756  15.178  0.00  0.00    +0.000 OA
ATOM      2  C   UNL     1      -2.660  10.932  16.397  0.00  0.00    +0.000 C 
ATOM      3  C   UNL     1      -3.354   9.986  17.349  0.00  0.00    +0.000 C 
ATOM      4  C   UNL     1      -4.401  10.702  18.120  0.00  0.00    +0.000 A 
ATOM      5  C   UNL     1      -5.748  10.466  17.944  0.00  0.00    +0.000 A 
ATOM      6  N   UNL     1      -6.713  11.146  18.590  0.00  0.00    +0.000 NA
ATOM      7  C   UNL     1      -6.310  12.074  19.465  0.00  0.00    +0.000 A 
ATOM      8  N   UNL     1      -7.317  12.787  20.113  0.00  0.00    +0.000 N 
ATOM      9  N   UNL     1      -5.022  12.354  19.719  0.00  0.00    +0.000 NA
ATOM     10  C   UNL     1      -4.076  11.687  19.026  0.00  0.00    +0.000 A 
ATOM     11  C   UNL     1      -2.675  12.080  19.298  0.00  0.00    +0.000 A 
ATOM     12  C   UNL     1      -2.279  12.341  20.627  0.00  0.00    +0.000 A 
ATOM     13  C   UNL     1      -0.978  12.739  20.940  0.00  0.00    +0.000 A 
ATOM     14  C   UNL     1      -0.054  12.947  19.924  0.00  0.00    +0.000 A 
ATOM     15  C   UNL     1      -0.425  12.736  18.599  0.00  0.00    +0.000 A 
ATOM     16  C   UNL     1      -1.704  12.252  18.282  0.00  0.00    +0.000 A 
ATOM     17  N   UNL     1      -1.913  11.952  16.921  0.00  0.00    +0.000 N 
ATOM     18  H   UNL     1      -8.226  12.505  19.769  0.00  0.00    +0.000 HD
ATOM     19  H   UNL     1      -1.316  12.397  16.234  0.00  0.00    +0.000 HD
ENDROOT
BRANCH   8  20
ATOM     20  C   UNL     1      -7.317  13.318  21.413  0.00  0.00    +0.000 A 
ATOM     21  C   UNL     1      -7.547  12.493  22.529  0.00  0.00    +0.000 A 
ATOM     22  C   UNL     1      -7.542  13.005  23.824  0.00  0.00    +0.000 A 
ATOM     23  C   UNL     1      -7.291  14.355  24.039  0.00  0.00    +0.000 A 
ATOM     24  C   UNL     1      -7.053  15.196  22.951  0.00  0.00    +0.000 A 
ATOM     25  C   UNL     1      -7.072  14.681  21.649  0.00  0.00    +0.000 A 
ATOM     26 BR   UNL     1      -6.727  15.883  20.217  0.00  0.00    +0.000 Br
ENDBRANCH   8  20
TORSDOF 1
ENDMDL
