MODEL 1
REMARK VINA RESULT:      -8.6      0.000      0.000
REMARK  Name = 
REMARK  7 active torsions:
REMARK  status: ('A' for Active; 'I' for Inactive)
REMARK    1  A    between atoms: C_1  and  C_2
REMARK    2  A    between atoms: N_4  and  C_5
REMARK    3  A    between atoms: C_8  and  C_9
REMARK    4  A    between atoms: C_11  and  C_12
REMARK    5  A    between atoms: C_15  and  N_16
REMARK    6  A    between atoms: C_17  and  C_18
REMARK    7  A    between atoms: C_23  and  C_24
REMARK                            x       y       z     vdW  Elec       q    Type
REMARK                         _______ _______ _______ _____ _____    ______ ____
ROOT
ATOM      1  C   UNL     1      -0.695  12.243  20.546  0.00  0.00    +0.000 A 
ATOM      2  C   UNL     1      -0.266  10.948  20.337  0.00  0.00    +0.000 A 
ATOM      3  C   UNL     1       0.892  10.764  19.609  0.00  0.00    +0.000 A 
ATOM      4  N   UNL     1       1.596  11.806  19.129  0.00  0.00    +0.000 NA
ATOM      5  C   UNL     1       1.103  13.038  19.356  0.00  0.00    +0.000 A 
ATOM      6  N   UNL     1      -0.026  13.296  20.045  0.00  0.00    +0.000 NA
ENDROOT
BRANCH   1  10
ATOM      7  C   UNL     1      -4.258  13.165  22.804  0.00  0.00    +0.000 A 
ATOM      8  C   UNL     1      -4.084  13.652  21.514  0.00  0.00    +0.000 A 
ATOM      9  C   UNL     1      -2.934  13.343  20.783  0.00  0.00    +0.000 A 
ATOM     10  C   UNL     1      -1.913  12.547  21.322  0.00  0.00    +0.000 A 
ATOM     11  C   UNL     1      -2.098  12.061  22.627  0.00  0.00    +0.000 A 
ATOM     12  C   UNL     1      -3.250  12.376  23.366  0.00  0.00    +0.000 A 
BRANCH   7  16
ATOM     13  C   UNL     1      -7.688  13.463  24.334  0.00  0.00    +0.000 C 
ATOM     14  C   UNL     1      -6.646  12.851  23.439  0.00  0.00    +0.000 C 
ATOM     15  O   UNL     1      -6.939  11.927  22.686  0.00  0.00    +0.000 OA
ATOM     16  N   UNL     1      -5.402  13.447  23.578  0.00  0.00    +0.000 N 
ATOM     17  H   UNL     1      -5.279  14.089  24.351  0.00  0.00    +0.000 HD
ENDBRANCH   7  16
ENDBRANCH   1  10
BRANCH   3  18
ATOM     18  C   UNL     1       1.395   9.422  19.260  0.00  0.00    +0.000 A 
ATOM     19  C   UNL     1       1.810   9.127  17.953  0.00  0.00    +0.000 A 
ATOM     20  C   UNL     1       2.343   7.879  17.618  0.00  0.00    +0.000 A 
ATOM     21  C   UNL     1       2.489   6.883  18.580  0.00  0.00    +0.000 A 
ATOM     22  C   UNL     1       2.046   7.145  19.881  0.00  0.00    +0.000 A 
ATOM     23  C   UNL     1       1.513   8.401  20.215  0.00  0.00    +0.000 A 
BRANCH  21  24
ATOM     24  N   UNL     1       3.096   5.635  18.312  0.00  0.00    +0.000 N 
ATOM     25  C   UNL     1       2.482   4.526  17.750  0.00  0.00    +0.000 C 
ATOM     26  C   UNL     1       3.426   3.377  17.514  0.00  0.00    +0.000 C 
ATOM     27  O   UNL     1       1.294   4.406  17.462  0.00  0.00    +0.000 OA
ATOM     28  H   UNL     1       4.087   5.570  18.503  0.00  0.00    +0.000 HD
ENDBRANCH  21  24
ENDBRANCH   3  18
BRANCH   5  29
ATOM     29  C   UNL     1       1.840  14.187  18.795  0.00  0.00    +0.000 A 
ATOM     30  C   UNL     1       1.295  15.487  18.813  0.00  0.00    +0.000 A 
ATOM     31  C   UNL     1       1.989  16.575  18.281  0.00  0.00    +0.000 A 
ATOM     32  C   UNL     1       3.248  16.391  17.719  0.00  0.00    +0.000 A 
ATOM     33  C   UNL     1       3.811  15.121  17.692  0.00  0.00    +0.000 A 
ATOM     34  C   UNL     1       3.116  14.032  18.225  0.00  0.00    +0.000 A 
ENDBRANCH   5  29
TORSDOF 5
ENDMDL
MODEL 2
REMARK VINA RESULT:      -8.5      0.526      8.545
REMARK  Name = 
REMARK  7 active torsions:
REMARK  status: ('A' for Active; 'I' for Inactive)
REMARK    1  A    between atoms: C_1  and  C_2
REMARK    2  A    between atoms: N_4  and  C_5
REMARK    3  A    between atoms: C_8  and  C_9
REMARK    4  A    between atoms: C_11  and  C_12
REMARK    5  A    between atoms: C_15  and  N_16
REMARK    6  A    between atoms: C_17  and  C_18
REMARK    7  A    between atoms: C_23  and  C_24
REMARK                            x       y       z     vdW  Elec       q    Type
REMARK                         _______ _______ _______ _____ _____    ______ ____
ROOT
ATOM      1  C   UNL     1       0.723  10.686  19.512  0.00  0.00    +0.000 A 
ATOM      2  C   UNL     1      -0.505  10.867  20.117  0.00  0.00    +0.000 A 
ATOM      3  C   UNL     1      -0.976  12.158  20.241  0.00  0.00    +0.000 A 
ATOM      4  N   UNL     1      -0.278  13.211  19.777  0.00  0.00    +0.000 NA
ATOM      5  C   UNL     1       0.921  12.957  19.218  0.00  0.00    +0.000 A 
ATOM      6  N   UNL     1       1.452  11.727  19.073  0.00  0.00    +0.000 NA
ENDROOT
BRANCH   1  10
ATOM      7  C   UNL     1       2.420   6.761  18.914  0.00  0.00    +0.000 A 
ATOM      8  C   UNL     1       2.341   7.673  17.867  0.00  0.00    +0.000 A 
ATOM      9  C   UNL     1       1.801   8.945  18.068  0.00  0.00    +0.000 A 
ATOM     10  C   UNL     1       1.308   9.345  19.319  0.00  0.00    +0.000 A 
ATOM     11  C   UNL     1       1.390   8.415  20.369  0.00  0.00    +0.000 A 
ATOM     12  C   UNL     1       1.927   7.134  20.168  0.00  0.00    +0.000 A 
BRANCH   7  16
ATOM     13  C   UNL     1       3.138   3.128  18.220  0.00  0.00    +0.000 C 
ATOM     14  C   UNL     1       2.357   4.408  18.100  0.00  0.00    +0.000 C 
ATOM     15  O   UNL     1       1.302   4.435  17.474  0.00  0.00    +0.000 OA
ATOM     16  N   UNL     1       2.960   5.468  18.759  0.00  0.00    +0.000 N 
ATOM     17  H   UNL     1       3.905   5.329  19.096  0.00  0.00    +0.000 HD
ENDBRANCH   7  16
ENDBRANCH   1  10
BRANCH   3  18
ATOM     18  C   UNL     1      -2.236  12.471  20.941  0.00  0.00    +0.000 A 
ATOM     19  C   UNL     1      -2.279  12.563  22.339  0.00  0.00    +0.000 A 
ATOM     20  C   UNL     1      -3.451  12.913  23.015  0.00  0.00    +0.000 A 
ATOM     21  C   UNL     1      -4.622  13.194  22.316  0.00  0.00    +0.000 A 
ATOM     22  C   UNL     1      -4.610  13.071  20.921  0.00  0.00    +0.000 A 
ATOM     23  C   UNL     1      -3.430  12.719  20.245  0.00  0.00    +0.000 A 
BRANCH  21  24
ATOM     24  N   UNL     1      -5.810  13.631  22.944  0.00  0.00    +0.000 N 
ATOM     25  C   UNL     1      -6.581  12.906  23.839  0.00  0.00    +0.000 C 
ATOM     26  C   UNL     1      -7.740  13.689  24.399  0.00  0.00    +0.000 C 
ATOM     27  O   UNL     1      -6.415  11.739  24.182  0.00  0.00    +0.000 OA
ATOM     28  H   UNL     1      -6.089  14.585  22.757  0.00  0.00    +0.000 HD
ENDBRANCH  21  24
ENDBRANCH   3  18
BRANCH   5  29
ATOM     29  C   UNL     1       1.717  14.106  18.747  0.00  0.00    +0.000 A 
ATOM     30  C   UNL     1       3.004  13.931  18.201  0.00  0.00    +0.000 A 
ATOM     31  C   UNL     1       3.762  15.017  17.757  0.00  0.00    +0.000 A 
ATOM     32  C   UNL     1       3.248  16.306  17.846  0.00  0.00    +0.000 A 
ATOM     33  C   UNL     1       1.980  16.508  18.376  0.00  0.00    +0.000 A 
ATOM     34  C   UNL     1       1.222  15.420  18.821  0.00  0.00    +0.000 A 
ENDBRANCH   5  29
TORSDOF 5
ENDMDL
MODEL 3
REMARK VINA RESULT:      -8.5      0.770      8.659
REMARK  Name = 
REMARK  7 active torsions:
REMARK  status: ('A' for Active; 'I' for Inactive)
REMARK    1  A    between atoms: C_1  and  C_2
REMARK    2  A    between atoms: N_4  and  C_5
REMARK    3  A    between atoms: C_8  and  C_9
REMARK    4  A    between atoms: C_11  and  C_12
REMARK    5  A    between atoms: C_15  and  N_16
REMARK    6  A    between atoms: C_17  and  C_18
REMARK    7  A    between atoms: C_23  and  C_24
REMARK                            x       y       z     vdW  Elec       q    Type
REMARK                         _______ _______ _______ _____ _____    ______ ____
ROOT
ATOM      1  C   UNL     1       0.832  10.688  19.356  0.00  0.00    +0.000 A 
ATOM      2  C   UNL     1      -0.386  10.815  19.992  0.00  0.00    +0.000 A 
ATOM      3  C   UNL     1      -0.881  12.089  20.185  0.00  0.00    +0.000 A 
ATOM      4  N   UNL     1      -0.214  13.176  19.756  0.00  0.00    +0.000 NA
ATOM      5  C   UNL     1       0.978  12.973  19.163  0.00  0.00    +0.000 A 
ATOM      6  N   UNL     1       1.531  11.763  18.952  0.00  0.00    +0.000 NA
ENDROOT
BRANCH   1  10
ATOM      7  C   UNL     1       2.626   6.831  18.611  0.00  0.00    +0.000 A 
ATOM      8  C   UNL     1       2.112   7.151  19.863  0.00  0.00    +0.000 A 
ATOM      9  C   UNL     1       1.524   8.396  20.097  0.00  0.00    +0.000 A 
ATOM     10  C   UNL     1       1.440   9.369  19.090  0.00  0.00    +0.000 A 
ATOM     11  C   UNL     1       1.964   9.037  17.830  0.00  0.00    +0.000 A 
ATOM     12  C   UNL     1       2.562   7.789  17.594  0.00  0.00    +0.000 A 
BRANCH   7  16
ATOM     13  C   UNL     1       3.475   3.263  17.752  0.00  0.00    +0.000 C 
ATOM     14  C   UNL     1       2.580   4.469  17.824  0.00  0.00    +0.000 C 
ATOM     15  O   UNL     1       1.409   4.395  17.463  0.00  0.00    +0.000 OA
ATOM     16  N   UNL     1       3.225   5.587  18.328  0.00  0.00    +0.000 N 
ATOM     17  H   UNL     1       4.231   5.535  18.433  0.00  0.00    +0.000 HD
ENDBRANCH   7  16
ENDBRANCH   1  10
BRANCH   3  18
ATOM     18  C   UNL     1      -2.133  12.342  20.922  0.00  0.00    +0.000 A 
ATOM     19  C   UNL     1      -3.319  12.653  20.240  0.00  0.00    +0.000 A 
ATOM     20  C   UNL     1      -4.526  12.840  20.918  0.00  0.00    +0.000 A 
ATOM     21  C   UNL     1      -4.595  12.714  22.304  0.00  0.00    +0.000 A 
ATOM     22  C   UNL     1      -3.415  12.442  23.006  0.00  0.00    +0.000 A 
ATOM     23  C   UNL     1      -2.203  12.253  22.321  0.00  0.00    +0.000 A 
BRANCH  21  24
ATOM     24  N   UNL     1      -5.804  12.813  23.028  0.00  0.00    +0.000 N 
ATOM     25  C   UNL     1      -6.270  13.931  23.701  0.00  0.00    +0.000 C 
ATOM     26  C   UNL     1      -7.637  13.739  24.302  0.00  0.00    +0.000 C 
ATOM     27  O   UNL     1      -5.685  15.000  23.852  0.00  0.00    +0.000 OA
ATOM     28  H   UNL     1      -6.405  12.000  23.005  0.00  0.00    +0.000 HD
ENDBRANCH  21  24
ENDBRANCH   3  18
BRANCH   5  29
ATOM     29  C   UNL     1       1.741  14.159  18.731  0.00  0.00    +0.000 A 
ATOM     30  C   UNL     1       3.042  14.040  18.201  0.00  0.00    +0.000 A 
ATOM     31  C   UNL     1       3.769  15.161  17.794  0.00  0.00    +0.000 A 
ATOM     32  C   UNL     1       3.209  16.430  17.903  0.00  0.00    +0.000 A 
ATOM     33  C   UNL     1       1.927  16.577  18.417  0.00  0.00    +0.000 A 
ATOM     34  C   UNL     1       1.200  15.454  18.825  0.00  0.00    +0.000 A 
ENDBRANCH   5  29
TORSDOF 5
ENDMDL
MODEL 4
REMARK VINA RESULT:      -8.5      0.764      8.579
REMARK  Name = 
REMARK  7 active torsions:
REMARK  status: ('A' for Active; 'I' for Inactive)
REMARK    1  A    between atoms: C_1  and  C_2
REMARK    2  A    between atoms: N_4  and  C_5
REMARK    3  A    between atoms: C_8  and  C_9
REMARK    4  A    between atoms: C_11  and  C_12
REMARK    5  A    between atoms: C_15  and  N_16
REMARK    6  A    between atoms: C_17  and  C_18
REMARK    7  A    between atoms: C_23  and  C_24
REMARK                            x       y       z     vdW  Elec       q    Type
REMARK                         _______ _______ _______ _____ _____    ______ ____
ROOT
ATOM      1  C   UNL     1       0.790  10.735  19.383  0.00  0.00    +0.000 A 
ATOM      2  C   UNL     1      -0.421  10.847  20.036  0.00  0.00    +0.000 A 
ATOM      3  C   UNL     1      -0.935  12.115  20.221  0.00  0.00    +0.000 A 
ATOM      4  N   UNL     1      -0.295  13.208  19.768  0.00  0.00    +0.000 NA
ATOM      5  C   UNL     1       0.891  13.020  19.159  0.00  0.00    +0.000 A 
ATOM      6  N   UNL     1       1.463  11.817  18.954  0.00  0.00    +0.000 NA
ENDROOT
BRANCH   1  10
ATOM      7  C   UNL     1       2.612   6.901  18.591  0.00  0.00    +0.000 A 
ATOM      8  C   UNL     1       2.505   7.862  17.591  0.00  0.00    +0.000 A 
ATOM      9  C   UNL     1       1.925   9.104  17.855  0.00  0.00    +0.000 A 
ATOM     10  C   UNL     1       1.418   9.424  19.123  0.00  0.00    +0.000 A 
ATOM     11  C   UNL     1       1.528   8.445  20.125  0.00  0.00    +0.000 A 
ATOM     12  C   UNL     1       2.105   7.193  19.861  0.00  0.00    +0.000 A 
BRANCH   7  16
ATOM     13  C   UNL     1       3.413   3.291  17.868  0.00  0.00    +0.000 C 
ATOM     14  C   UNL     1       2.547   4.521  17.861  0.00  0.00    +0.000 C 
ATOM     15  O   UNL     1       1.396   4.467  17.437  0.00  0.00    +0.000 OA
ATOM     16  N   UNL     1       3.193   5.635  18.372  0.00  0.00    +0.000 N 
ATOM     17  H   UNL     1       4.190   5.561  18.534  0.00  0.00    +0.000 HD
ENDBRANCH   7  16
ENDBRANCH   1  10
BRANCH   3  18
ATOM     18  C   UNL     1      -2.180  12.355  20.975  0.00  0.00    +0.000 A 
ATOM     19  C   UNL     1      -3.379  12.649  20.309  0.00  0.00    +0.000 A 
ATOM     20  C   UNL     1      -4.579  12.822  21.003  0.00  0.00    +0.000 A 
ATOM     21  C   UNL     1      -4.627  12.700  22.390  0.00  0.00    +0.000 A 
ATOM     22  C   UNL     1      -3.434  12.444  23.076  0.00  0.00    +0.000 A 
ATOM     23  C   UNL     1      -2.229  12.269  22.375  0.00  0.00    +0.000 A 
BRANCH  21  24
ATOM     24  N   UNL     1      -5.827  12.786  23.131  0.00  0.00    +0.000 N 
ATOM     25  C   UNL     1      -6.360  13.930  23.702  0.00  0.00    +0.000 C 
ATOM     26  C   UNL     1      -7.699  13.704  24.353  0.00  0.00    +0.000 C 
ATOM     27  O   UNL     1      -5.851  15.047  23.734  0.00  0.00    +0.000 OA
ATOM     28  H   UNL     1      -6.369  11.935  23.203  0.00  0.00    +0.000 HD
ENDBRANCH  21  24
ENDBRANCH   3  18
BRANCH   5  29
ATOM     29  C   UNL     1       1.625  14.214  18.700  0.00  0.00    +0.000 A 
ATOM     30  C   UNL     1       1.113  15.511  18.900  0.00  0.00    +0.000 A 
ATOM     31  C   UNL     1       1.804  16.643  18.464  0.00  0.00    +0.000 A 
ATOM     32  C   UNL     1       3.028  16.506  17.818  0.00  0.00    +0.000 A 
ATOM     33  C   UNL     1       3.560  15.239  17.611  0.00  0.00    +0.000 A 
ATOM     34  C   UNL     1       2.867  14.105  18.048  0.00  0.00    +0.000 A 
ENDBRANCH   5  29
TORSDOF 5
ENDMDL
MODEL 5
REMARK VINA RESULT:      -8.4      1.059      8.690
REMARK  Name = 
REMARK  7 active torsions:
REMARK  status: ('A' for Active; 'I' for Inactive)
REMARK    1  A    between atoms: C_1  and  C_2
REMARK    2  A    between atoms: N_4  and  C_5
REMARK    3  A    between atoms: C_8  and  C_9
REMARK    4  A    between atoms: C_11  and  C_12
REMARK    5  A    between atoms: C_15  and  N_16
REMARK    6  A    between atoms: C_17  and  C_18
REMARK    7  A    between atoms: C_23  and  C_24
REMARK                            x       y       z     vdW  Elec       q    Type
REMARK                         _______ _______ _______ _____ _____    ______ ____
ROOT
ATOM      1  C   UNL     1       0.782  10.493  19.737  0.00  0.00    +0.000 A 
ATOM      2  C   UNL     1      -0.423  10.701  20.376  0.00  0.00    +0.000 A 
ATOM      3  C   UNL     1      -0.876  12.000  20.485  0.00  0.00    +0.000 A 
ATOM      4  N   UNL     1      -0.183  13.034  19.975  0.00  0.00    +0.000 NA
ATOM      5  C   UNL     1       0.995  12.753  19.384  0.00  0.00    +0.000 A 
ATOM      6  N   UNL     1       1.508  11.515  19.251  0.00  0.00    +0.000 NA
ENDROOT
BRANCH   1  10
ATOM      7  C   UNL     1       2.446   6.539  19.241  0.00  0.00    +0.000 A 
ATOM      8  C   UNL     1       1.891   6.934  20.454  0.00  0.00    +0.000 A 
ATOM      9  C   UNL     1       1.344   8.210  20.606  0.00  0.00    +0.000 A 
ATOM     10  C   UNL     1       1.346   9.141  19.556  0.00  0.00    +0.000 A 
ATOM     11  C   UNL     1       1.912   8.732  18.337  0.00  0.00    +0.000 A 
ATOM     12  C   UNL     1       2.467   7.452  18.183  0.00  0.00    +0.000 A 
BRANCH   7  16
ATOM     13  C   UNL     1       4.635   3.505  18.797  0.00  0.00    +0.000 C 
ATOM     14  C   UNL     1       4.337   4.919  19.214  0.00  0.00    +0.000 C 
ATOM     15  O   UNL     1       5.231   5.639  19.647  0.00  0.00    +0.000 OA
ATOM     16  N   UNL     1       3.005   5.261  19.040  0.00  0.00    +0.000 N 
ATOM     17  H   UNL     1       2.358   4.513  18.823  0.00  0.00    +0.000 HD
ENDBRANCH   7  16
ENDBRANCH   1  10
BRANCH   3  18
ATOM     18  C   UNL     1      -2.110  12.343  21.217  0.00  0.00    +0.000 A 
ATOM     19  C   UNL     1      -2.202  12.150  22.603  0.00  0.00    +0.000 A 
ATOM     20  C   UNL     1      -3.342  12.521  23.321  0.00  0.00    +0.000 A 
ATOM     21  C   UNL     1      -4.430  13.108  22.680  0.00  0.00    +0.000 A 
ATOM     22  C   UNL     1      -4.373  13.275  21.291  0.00  0.00    +0.000 A 
ATOM     23  C   UNL     1      -3.225  12.901  20.573  0.00  0.00    +0.000 A 
BRANCH  21  24
ATOM     24  N   UNL     1      -5.572  13.575  23.370  0.00  0.00    +0.000 N 
ATOM     25  C   UNL     1      -6.763  12.890  23.547  0.00  0.00    +0.000 C 
ATOM     26  C   UNL     1      -7.755  13.629  24.406  0.00  0.00    +0.000 C 
ATOM     27  O   UNL     1      -7.065  11.798  23.074  0.00  0.00    +0.000 OA
ATOM     28  H   UNL     1      -5.483  14.478  23.819  0.00  0.00    +0.000 HD
ENDBRANCH  21  24
ENDBRANCH   3  18
BRANCH   5  29
ATOM     29  C   UNL     1       1.788  13.882  18.862  0.00  0.00    +0.000 A 
ATOM     30  C   UNL     1       1.274  15.195  18.850  0.00  0.00    +0.000 A 
ATOM     31  C   UNL     1       2.021  16.266  18.354  0.00  0.00    +0.000 A 
ATOM     32  C   UNL     1       3.303  16.049  17.859  0.00  0.00    +0.000 A 
ATOM     33  C   UNL     1       3.837  14.766  17.862  0.00  0.00    +0.000 A 
ATOM     34  C   UNL     1       3.088  13.695  18.359  0.00  0.00    +0.000 A 
ENDBRANCH   5  29
TORSDOF 5
ENDMDL
MODEL 6
REMARK VINA RESULT:      -8.3      0.807      1.426
REMARK  Name = 
REMARK  7 active torsions:
REMARK  status: ('A' for Active; 'I' for Inactive)
REMARK    1  A    between atoms: C_1  and  C_2
REMARK    2  A    between atoms: N_4  and  C_5
REMARK    3  A    between atoms: C_8  and  C_9
REMARK    4  A    between atoms: C_11  and  C_12
REMARK    5  A    between atoms: C_15  and  N_16
REMARK    6  A    between atoms: C_17  and  C_18
REMARK    7  A    between atoms: C_23  and  C_24
REMARK                            x       y       z     vdW  Elec       q    Type
REMARK                         _______ _______ _______ _____ _____    ______ ____
ROOT
ATOM      1  C   UNL     1      -0.971  12.165  20.382  0.00  0.00    +0.000 A 
ATOM      2  C   UNL     1      -0.440  10.906  20.189  0.00  0.00    +0.000 A 
ATOM      3  C   UNL     1       0.765  10.813  19.522  0.00  0.00    +0.000 A 
ATOM      4  N   UNL     1       1.416  11.907  19.086  0.00  0.00    +0.000 NA
ATOM      5  C   UNL     1       0.824  13.099  19.294  0.00  0.00    +0.000 A 
ATOM      6  N   UNL     1      -0.355  13.268  19.924  0.00  0.00    +0.000 NA
ENDROOT
BRANCH   1  10
ATOM      7  C   UNL     1      -4.694  12.747  22.491  0.00  0.00    +0.000 A 
ATOM      8  C   UNL     1      -3.522  12.447  23.178  0.00  0.00    +0.000 A 
ATOM      9  C   UNL     1      -2.319  12.270  22.493  0.00  0.00    +0.000 A 
ATOM     10  C   UNL     1      -2.247  12.373  21.095  0.00  0.00    +0.000 A 
ATOM     11  C   UNL     1      -3.437  12.673  20.411  0.00  0.00    +0.000 A 
ATOM     12  C   UNL     1      -4.649  12.845  21.098  0.00  0.00    +0.000 A 
BRANCH   7  16
ATOM     13  C   UNL     1      -7.724  13.994  24.351  0.00  0.00    +0.000 C 
ATOM     14  C   UNL     1      -6.437  14.148  23.587  0.00  0.00    +0.000 C 
ATOM     15  O   UNL     1      -5.942  15.258  23.422  0.00  0.00    +0.000 OA
ATOM     16  N   UNL     1      -5.931  12.937  23.141  0.00  0.00    +0.000 N 
ATOM     17  H   UNL     1      -6.531  12.125  23.218  0.00  0.00    +0.000 HD
ENDBRANCH   7  16
ENDBRANCH   1  10
BRANCH   3  18
ATOM     18  C   UNL     1       1.382   9.514  19.192  0.00  0.00    +0.000 A 
ATOM     19  C   UNL     1       1.923   9.277  17.920  0.00  0.00    +0.000 A 
ATOM     20  C   UNL     1       2.561   8.074  17.608  0.00  0.00    +0.000 A 
ATOM     21  C   UNL     1       2.690   7.065  18.560  0.00  0.00    +0.000 A 
ATOM     22  C   UNL     1       2.124   7.268  19.824  0.00  0.00    +0.000 A 
ATOM     23  C   UNL     1       1.484   8.480  20.135  0.00  0.00    +0.000 A 
BRANCH  21  24
ATOM     24  N   UNL     1       3.396   5.865  18.322  0.00  0.00    +0.000 N 
ATOM     25  C   UNL     1       2.868   4.686  17.819  0.00  0.00    +0.000 C 
ATOM     26  C   UNL     1       3.902   3.615  17.599  0.00  0.00    +0.000 C 
ATOM     27  O   UNL     1       1.689   4.453  17.568  0.00  0.00    +0.000 OA
ATOM     28  H   UNL     1       4.394   5.893  18.488  0.00  0.00    +0.000 HD
ENDBRANCH  21  24
ENDBRANCH   3  18
BRANCH   5  29
ATOM     29  C   UNL     1       1.504  14.302  18.779  0.00  0.00    +0.000 A 
ATOM     30  C   UNL     1       2.761  14.220  18.146  0.00  0.00    +0.000 A 
ATOM     31  C   UNL     1       3.409  15.357  17.661  0.00  0.00    +0.000 A 
ATOM     32  C   UNL     1       2.814  16.608  17.795  0.00  0.00    +0.000 A 
ATOM     33  C   UNL     1       1.574  16.719  18.411  0.00  0.00    +0.000 A 
ATOM     34  C   UNL     1       0.925  15.579  18.897  0.00  0.00    +0.000 A 
ENDBRANCH   5  29
TORSDOF 5
ENDMDL
MODEL 7
REMARK VINA RESULT:      -8.3      0.804      1.444
REMARK  Name = 
REMARK  7 active torsions:
REMARK  status: ('A' for Active; 'I' for Inactive)
REMARK    1  A    between atoms: C_1  and  C_2
REMARK    2  A    between atoms: N_4  and  C_5
REMARK    3  A    between atoms: C_8  and  C_9
REMARK    4  A    between atoms: C_11  and  C_12
REMARK    5  A    between atoms: C_15  and  N_16
REMARK    6  A    between atoms: C_17  and  C_18
REMARK    7  A    between atoms: C_23  and  C_24
REMARK                            x       y       z     vdW  Elec       q    Type
REMARK                         _______ _______ _______ _____ _____    ______ ____
ROOT
ATOM      1  C   UNL     1      -0.899  12.067  20.354  0.00  0.00    +0.000 A 
ATOM      2  C   UNL     1      -0.371  10.801  20.205  0.00  0.00    +0.000 A 
ATOM      3  C   UNL     1       0.850  10.685  19.572  0.00  0.00    +0.000 A 
ATOM      4  N   UNL     1       1.520  11.765  19.128  0.00  0.00    +0.000 NA
ATOM      5  C   UNL     1       0.930  12.965  19.292  0.00  0.00    +0.000 A 
ATOM      6  N   UNL     1      -0.263  13.156  19.887  0.00  0.00    +0.000 NA
ENDROOT
BRANCH   1  10
ATOM      7  C   UNL     1      -4.688  12.772  22.303  0.00  0.00    +0.000 A 
ATOM      8  C   UNL     1      -4.569  12.856  20.920  0.00  0.00    +0.000 A 
ATOM      9  C   UNL     1      -3.344  12.617  20.293  0.00  0.00    +0.000 A 
ATOM     10  C   UNL     1      -2.192  12.299  21.029  0.00  0.00    +0.000 A 
ATOM     11  C   UNL     1      -2.323  12.220  22.425  0.00  0.00    +0.000 A 
ATOM     12  C   UNL     1      -3.551  12.466  23.058  0.00  0.00    +0.000 A 
BRANCH   7  16
ATOM     13  C   UNL     1      -7.635  14.113  24.229  0.00  0.00    +0.000 C 
ATOM     14  C   UNL     1      -6.359  14.226  23.441  0.00  0.00    +0.000 C 
ATOM     15  O   UNL     1      -5.829  15.320  23.272  0.00  0.00    +0.000 OA
ATOM     16  N   UNL     1      -5.904  13.001  22.978  0.00  0.00    +0.000 N 
ATOM     17  H   UNL     1      -6.531  12.211  23.063  0.00  0.00    +0.000 HD
ENDBRANCH   7  16
ENDBRANCH   1  10
BRANCH   3  18
ATOM     18  C   UNL     1       1.467   9.376  19.289  0.00  0.00    +0.000 A 
ATOM     19  C   UNL     1       1.549   8.389  20.283  0.00  0.00    +0.000 A 
ATOM     20  C   UNL     1       2.079   7.124  20.017  0.00  0.00    +0.000 A 
ATOM     21  C   UNL     1       2.537   6.794  18.744  0.00  0.00    +0.000 A 
ATOM     22  C   UNL     1       2.499   7.777  17.748  0.00  0.00    +0.000 A 
ATOM     23  C   UNL     1       1.965   9.048  18.018  0.00  0.00    +0.000 A 
BRANCH  21  24
ATOM     24  N   UNL     1       3.006   5.505  18.403  0.00  0.00    +0.000 N 
ATOM     25  C   UNL     1       2.292   4.521  17.737  0.00  0.00    +0.000 C 
ATOM     26  C   UNL     1       3.106   3.288  17.446  0.00  0.00    +0.000 C 
ATOM     27  O   UNL     1       1.113   4.564  17.399  0.00  0.00    +0.000 OA
ATOM     28  H   UNL     1       3.973   5.309  18.623  0.00  0.00    +0.000 HD
ENDBRANCH  21  24
ENDBRANCH   3  18
BRANCH   5  29
ATOM     29  C   UNL     1       1.632  14.152  18.768  0.00  0.00    +0.000 A 
ATOM     30  C   UNL     1       2.899  14.046  18.161  0.00  0.00    +0.000 A 
ATOM     31  C   UNL     1       3.567  15.168  17.666  0.00  0.00    +0.000 A 
ATOM     32  C   UNL     1       2.981  16.426  17.765  0.00  0.00    +0.000 A 
ATOM     33  C   UNL     1       1.730  16.560  18.355  0.00  0.00    +0.000 A 
ATOM     34  C   UNL     1       1.063  15.436  18.850  0.00  0.00    +0.000 A 
ENDBRANCH   5  29
TORSDOF 5
ENDMDL
MODEL 8
REMARK VINA RESULT:      -8.2      0.637      1.062
REMARK  Name = 
REMARK  7 active torsions:
REMARK  status: ('A' for Active; 'I' for Inactive)
REMARK    1  A    between atoms: C_1  and  C_2
REMARK    2  A    between atoms: N_4  and  C_5
REMARK    3  A    between atoms: C_8  and  C_9
REMARK    4  A    between atoms: C_11  and  C_12
REMARK    5  A    between atoms: C_15  and  N_16
REMARK    6  A    between atoms: C_17  and  C_18
REMARK    7  A    between atoms: C_23  and  C_24
REMARK                            x       y       z     vdW  Elec       q    Type
REMARK                         _______ _______ _______ _____ _____    ______ ____
ROOT
ATOM      1  C   UNL     1      -0.752  12.203  20.186  0.00  0.00    +0.000 A 
ATOM      2  C   UNL     1      -0.275  10.914  20.060  0.00  0.00    +0.000 A 
ATOM      3  C   UNL     1       0.962  10.741  19.471  0.00  0.00    +0.000 A 
ATOM      4  N   UNL     1       1.692  11.788  19.046  0.00  0.00    +0.000 NA
ATOM      5  C   UNL     1       1.150  13.013  19.183  0.00  0.00    +0.000 A 
ATOM      6  N   UNL     1      -0.054  13.260  19.735  0.00  0.00    +0.000 NA
ENDROOT
BRANCH   1  10
ATOM      7  C   UNL     1      -4.576  13.075  21.992  0.00  0.00    +0.000 A 
ATOM      8  C   UNL     1      -4.479  12.761  20.641  0.00  0.00    +0.000 A 
ATOM      9  C   UNL     1      -3.241  12.470  20.063  0.00  0.00    +0.000 A 
ATOM     10  C   UNL     1      -2.055  12.495  20.813  0.00  0.00    +0.000 A 
ATOM     11  C   UNL     1      -2.165  12.815  22.177  0.00  0.00    +0.000 A 
ATOM     12  C   UNL     1      -3.407  13.115  22.758  0.00  0.00    +0.000 A 
BRANCH   7  16
ATOM     13  C   UNL     1      -7.687  13.229  24.112  0.00  0.00    +0.000 C 
ATOM     14  C   UNL     1      -6.292  12.779  23.772  0.00  0.00    +0.000 C 
ATOM     15  O   UNL     1      -5.713  11.964  24.484  0.00  0.00    +0.000 OA
ATOM     16  N   UNL     1      -5.803  13.372  22.619  0.00  0.00    +0.000 N 
ATOM     17  H   UNL     1      -6.335  14.141  22.230  0.00  0.00    +0.000 HD
ENDBRANCH   7  16
ENDBRANCH   1  10
BRANCH   3  18
ATOM     18  C   UNL     1       1.530   9.404  19.216  0.00  0.00    +0.000 A 
ATOM     19  C   UNL     1       1.567   8.433  20.227  0.00  0.00    +0.000 A 
ATOM     20  C   UNL     1       2.049   7.144  19.988  0.00  0.00    +0.000 A 
ATOM     21  C   UNL     1       2.505   6.775  18.725  0.00  0.00    +0.000 A 
ATOM     22  C   UNL     1       2.512   7.741  17.712  0.00  0.00    +0.000 A 
ATOM     23  C   UNL     1       2.025   9.036  17.956  0.00  0.00    +0.000 A 
BRANCH  21  24
ATOM     24  N   UNL     1       2.927   5.463  18.410  0.00  0.00    +0.000 N 
ATOM     25  C   UNL     1       2.187   4.501  17.741  0.00  0.00    +0.000 C 
ATOM     26  C   UNL     1       2.955   3.231  17.483  0.00  0.00    +0.000 C 
ATOM     27  O   UNL     1       1.019   4.588  17.376  0.00  0.00    +0.000 OA
ATOM     28  H   UNL     1       3.880   5.230  18.654  0.00  0.00    +0.000 HD
ENDBRANCH  21  24
ENDBRANCH   3  18
BRANCH   5  29
ATOM     29  C   UNL     1       1.920  14.166  18.678  0.00  0.00    +0.000 A 
ATOM     30  C   UNL     1       1.396  15.473  18.722  0.00  0.00    +0.000 A 
ATOM     31  C   UNL     1       2.121  16.566  18.242  0.00  0.00    +0.000 A 
ATOM     32  C   UNL     1       3.392  16.378  17.708  0.00  0.00    +0.000 A 
ATOM     33  C   UNL     1       3.936  15.100  17.656  0.00  0.00    +0.000 A 
ATOM     34  C   UNL     1       3.209  14.007  18.137  0.00  0.00    +0.000 A 
ENDBRANCH   5  29
TORSDOF 5
ENDMDL
MODEL 9
REMARK VINA RESULT:      -8.2      1.212      8.762
REMARK  Name = 
REMARK  7 active torsions:
REMARK  status: ('A' for Active; 'I' for Inactive)
REMARK    1  A    between atoms: C_1  and  C_2
REMARK    2  A    between atoms: N_4  and  C_5
REMARK    3  A    between atoms: C_8  and  C_9
REMARK    4  A    between atoms: C_11  and  C_12
REMARK    5  A    between atoms: C_15  and  N_16
REMARK    6  A    between atoms: C_17  and  C_18
REMARK    7  A    between atoms: C_23  and  C_24
REMARK                            x       y       z     vdW  Elec       q    Type
REMARK                         _______ _______ _______ _____ _____    ______ ____
ROOT
ATOM      1  C   UNL     1       0.839  10.637  19.509  0.00  0.00    +0.000 A 
ATOM      2  C   UNL     1      -0.362  10.772  20.175  0.00  0.00    +0.000 A 
ATOM      3  C   UNL     1      -0.860  12.047  20.349  0.00  0.00    +0.000 A 
ATOM      4  N   UNL     1      -0.214  13.128  19.875  0.00  0.00    +0.000 NA
ATOM      5  C   UNL     1       0.963  12.918  19.254  0.00  0.00    +0.000 A 
ATOM      6  N   UNL     1       1.519  11.706  19.058  0.00  0.00    +0.000 NA
ENDROOT
BRANCH   1  10
ATOM      7  C   UNL     1       2.612   6.774  18.745  0.00  0.00    +0.000 A 
ATOM      8  C   UNL     1       2.565   7.748  17.753  0.00  0.00    +0.000 A 
ATOM      9  C   UNL     1       2.000   9.000  18.008  0.00  0.00    +0.000 A 
ATOM     10  C   UNL     1       1.450   9.317  19.259  0.00  0.00    +0.000 A 
ATOM     11  C   UNL     1       1.500   8.325  20.253  0.00  0.00    +0.000 A 
ATOM     12  C   UNL     1       2.061   7.064  19.997  0.00  0.00    +0.000 A 
BRANCH   7  16
ATOM     13  C   UNL     1       4.780   3.705  18.468  0.00  0.00    +0.000 C 
ATOM     14  C   UNL     1       4.426   5.082  18.961  0.00  0.00    +0.000 C 
ATOM     15  O   UNL     1       5.215   5.714  19.657  0.00  0.00    +0.000 OA
ATOM     16  N   UNL     1       3.175   5.499  18.535  0.00  0.00    +0.000 N 
ATOM     17  H   UNL     1       2.577   4.807  18.100  0.00  0.00    +0.000 HD
ENDBRANCH   7  16
ENDBRANCH   1  10
BRANCH   3  18
ATOM     18  C   UNL     1      -2.093  12.311  21.115  0.00  0.00    +0.000 A 
ATOM     19  C   UNL     1      -3.282  12.671  20.462  0.00  0.00    +0.000 A 
ATOM     20  C   UNL     1      -4.473  12.868  21.166  0.00  0.00    +0.000 A 
ATOM     21  C   UNL     1      -4.522  12.704  22.548  0.00  0.00    +0.000 A 
ATOM     22  C   UNL     1      -3.338  12.382  23.222  0.00  0.00    +0.000 A 
ATOM     23  C   UNL     1      -2.142  12.183  22.511  0.00  0.00    +0.000 A 
BRANCH  21  24
ATOM     24  N   UNL     1      -5.716  12.813  23.296  0.00  0.00    +0.000 N 
ATOM     25  C   UNL     1      -6.370  13.987  23.635  0.00  0.00    +0.000 C 
ATOM     26  C   UNL     1      -7.668  13.758  24.364  0.00  0.00    +0.000 C 
ATOM     27  O   UNL     1      -5.990  15.134  23.417  0.00  0.00    +0.000 OA
ATOM     28  H   UNL     1      -6.157  11.942  23.561  0.00  0.00    +0.000 HD
ENDBRANCH  21  24
ENDBRANCH   3  18
BRANCH   5  29
ATOM     29  C   UNL     1       1.705  14.098  18.771  0.00  0.00    +0.000 A 
ATOM     30  C   UNL     1       2.990  13.974  18.204  0.00  0.00    +0.000 A 
ATOM     31  C   UNL     1       3.696  15.089  17.748  0.00  0.00    +0.000 A 
ATOM     32  C   UNL     1       3.132  16.357  17.846  0.00  0.00    +0.000 A 
ATOM     33  C   UNL     1       1.866  16.508  18.396  0.00  0.00    +0.000 A 
ATOM     34  C   UNL     1       1.159  15.391  18.852  0.00  0.00    +0.000 A 
ENDBRANCH   5  29
TORSDOF 5
ENDMDL
