MODEL 1
REMARK VINA RESULT:      -8.5      0.000      0.000
REMARK  Name = 
REMARK  7 active torsions:
REMARK  status: ('A' for Active; 'I' for Inactive)
REMARK    1  A    between atoms: C_1  and  N_2
REMARK    2  A    between atoms: N_5  and  C_6
REMARK    3  A    between atoms: C_6  and  C_7
REMARK    4  A    between atoms: C_6  and  C_25
REMARK    5  A    between atoms: C_7  and  N_8
REMARK    6  A    between atoms: N_11  and  C_12
REMARK    7  A    between atoms: C_12  and  C_13
REMARK                            x       y       z     vdW  Elec       q    Type
REMARK                         _______ _______ _______ _____ _____    ______ ____
ROOT
ATOM      1  N   UNL     1       2.531   7.799  18.606  0.00  0.00    +0.000 NA
ATOM      2  C   UNL     1       1.441   7.855  19.600  0.00  0.00    +0.000 C 
ATOM      3  C   UNL     1       1.092   9.296  20.079  0.00  0.00    +0.000 C 
ATOM      4  N   UNL     1       0.841  10.284  19.001  0.00  0.00    +0.000 NA
ATOM      5  C   UNL     1       2.022  10.252  18.125  0.00  0.00    +0.000 C 
ATOM      6  C   UNL     1       2.359   8.853  17.591  0.00  0.00    +0.000 C 
ENDROOT
BRANCH   1   7
ATOM      7  C   UNL     1       2.637   6.450  17.980  0.00  0.00    +0.000 C 
BRANCH   7   8
ATOM      8  C   UNL     1       3.694   5.389  18.595  0.00  0.00    +0.000 C 
BRANCH   8  13
ATOM      9  C   UNL     1       8.031   7.588  18.166  0.00  0.00    +0.000 C 
ATOM     10  N   UNL     1       7.173   6.561  17.589  0.00  0.00    +0.000 NA
ATOM     11  C   UNL     1       5.913   7.109  17.059  0.00  0.00    +0.000 C 
ATOM     12  C   UNL     1       4.954   5.995  16.542  0.00  0.00    +0.000 C 
ATOM     13  N   UNL     1       4.646   4.918  17.534  0.00  0.00    +0.000 NA
ATOM     14  C   UNL     1       5.973   4.435  17.977  0.00  0.00    +0.000 C 
ATOM     15  C   UNL     1       6.897   5.506  18.572  0.00  0.00    +0.000 C 
ENDBRANCH   8  13
BRANCH   8  16
ATOM     16  C   UNL     1       2.885   4.325  19.399  0.00  0.00    +0.000 A 
ATOM     17  C   UNL     1       1.489   4.166  19.315  0.00  0.00    +0.000 A 
ATOM     18  C   UNL     1       0.775   3.418  20.257  0.00  0.00    +0.000 A 
ATOM     19  C   UNL     1       1.444   2.843  21.323  0.00  0.00    +0.000 A 
ATOM     20  F   UNL     1       0.748   2.248  22.301  0.00  0.00    +0.000 F 
ATOM     21  C   UNL     1       2.825   2.918  21.410  0.00  0.00    +0.000 A 
ATOM     22  C   UNL     1       3.545   3.611  20.430  0.00  0.00    +0.000 A 
ENDBRANCH   8  16
ENDBRANCH   7   8
ENDBRANCH   1   7
BRANCH   4  23
ATOM     23  C   UNL     1      -0.414   9.979  18.287  0.00  0.00    +0.000 C 
BRANCH  23  24
ATOM     24  C   UNL     1      -1.608  10.831  18.685  0.00  0.00    +0.000 A 
ATOM     25  C   UNL     1      -1.525  11.730  19.753  0.00  0.00    +0.000 A 
ATOM     26  C   UNL     1      -2.637  12.475  20.145  0.00  0.00    +0.000 A 
ATOM     27  C   UNL     1      -3.868  12.342  19.477  0.00  0.00    +0.000 A 
ATOM     28  C   UNL     1      -4.997  13.085  19.866  0.00  0.00    +0.000 A 
ATOM     29  C   UNL     1      -6.210  12.945  19.189  0.00  0.00    +0.000 A 
ATOM     30  C   UNL     1      -6.312  12.065  18.116  0.00  0.00    +0.000 A 
ATOM     31  C   UNL     1      -5.198  11.324  17.716  0.00  0.00    +0.000 A 
ATOM     32  C   UNL     1      -3.965  11.450  18.386  0.00  0.00    +0.000 A 
ATOM     33  C   UNL     1      -2.835  10.700  18.010  0.00  0.00    +0.000 A 
ENDBRANCH  23  24
ENDBRANCH   4  23
TORSDOF 6
ENDMDL
MODEL 2
REMARK VINA RESULT:      -8.3      1.018      1.316
REMARK  Name = 
REMARK  7 active torsions:
REMARK  status: ('A' for Active; 'I' for Inactive)
REMARK    1  A    between atoms: C_1  and  N_2
REMARK    2  A    between atoms: N_5  and  C_6
REMARK    3  A    between atoms: C_6  and  C_7
REMARK    4  A    between atoms: C_6  and  C_25
REMARK    5  A    between atoms: C_7  and  N_8
REMARK    6  A    between atoms: N_11  and  C_12
REMARK    7  A    between atoms: C_12  and  C_13
REMARK                            x       y       z     vdW  Elec       q    Type
REMARK                         _______ _______ _______ _____ _____    ______ ____
ROOT
ATOM      1  N   UNL     1       2.179   8.823  18.574  0.00  0.00    +0.000 NA
ATOM      2  C   UNL     1       0.970   8.596  19.390  0.00  0.00    +0.000 C 
ATOM      3  C   UNL     1       0.451   9.868  20.123  0.00  0.00    +0.000 C 
ATOM      4  N   UNL     1       0.263  11.066  19.268  0.00  0.00    +0.000 NA
ATOM      5  C   UNL     1       1.546  11.293  18.584  0.00  0.00    +0.000 C 
ATOM      6  C   UNL     1       2.057  10.074  17.805  0.00  0.00    +0.000 C 
ENDROOT
BRANCH   1   7
ATOM      7  C   UNL     1       2.470   7.662  17.684  0.00  0.00    +0.000 C 
BRANCH   7   8
ATOM      8  C   UNL     1       3.404   6.466  18.248  0.00  0.00    +0.000 C 
BRANCH   8  13
ATOM      9  C   UNL     1       8.162   5.670  18.999  0.00  0.00    +0.000 C 
ATOM     10  N   UNL     1       7.099   5.586  18.005  0.00  0.00    +0.000 NA
ATOM     11  C   UNL     1       6.523   6.902  17.680  0.00  0.00    +0.000 C 
ATOM     12  C   UNL     1       5.317   6.794  16.698  0.00  0.00    +0.000 C 
ATOM     13  N   UNL     1       4.225   5.871  17.141  0.00  0.00    +0.000 NA
ATOM     14  C   UNL     1       4.914   4.591  17.417  0.00  0.00    +0.000 C 
ATOM     15  C   UNL     1       6.047   4.664  18.450  0.00  0.00    +0.000 C 
ENDBRANCH   8  13
BRANCH   8  16
ATOM     16  C   UNL     1       2.501   5.520  19.099  0.00  0.00    +0.000 A 
ATOM     17  C   UNL     1       2.571   5.414  20.501  0.00  0.00    +0.000 A 
ATOM     18  C   UNL     1       1.968   4.356  21.189  0.00  0.00    +0.000 A 
ATOM     19  C   UNL     1       1.312   3.364  20.481  0.00  0.00    +0.000 A 
ATOM     20  F   UNL     1       0.858   2.280  21.124  0.00  0.00    +0.000 F 
ATOM     21  C   UNL     1       1.162   3.463  19.107  0.00  0.00    +0.000 A 
ATOM     22  C   UNL     1       1.710   4.556  18.427  0.00  0.00    +0.000 A 
ENDBRANCH   8  16
ENDBRANCH   7   8
ENDBRANCH   1   7
BRANCH   4  23
ATOM     23  C   UNL     1      -0.863  10.876  18.334  0.00  0.00    +0.000 C 
BRANCH  23  24
ATOM     24  C   UNL     1      -2.186  11.470  18.786  0.00  0.00    +0.000 A 
ATOM     25  C   UNL     1      -2.256  12.295  19.913  0.00  0.00    +0.000 A 
ATOM     26  C   UNL     1      -3.479  12.799  20.353  0.00  0.00    +0.000 A 
ATOM     27  C   UNL     1      -4.673  12.492  19.674  0.00  0.00    +0.000 A 
ATOM     28  C   UNL     1      -5.913  12.992  20.111  0.00  0.00    +0.000 A 
ATOM     29  C   UNL     1      -7.088  12.682  19.423  0.00  0.00    +0.000 A 
ATOM     30  C   UNL     1      -7.040  11.872  18.291  0.00  0.00    +0.000 A 
ATOM     31  C   UNL     1      -5.816  11.373  17.844  0.00  0.00    +0.000 A 
ATOM     32  C   UNL     1      -4.618  11.673  18.524  0.00  0.00    +0.000 A 
ATOM     33  C   UNL     1      -3.376  11.166  18.100  0.00  0.00    +0.000 A 
ENDBRANCH  23  24
ENDBRANCH   4  23
TORSDOF 6
ENDMDL
MODEL 3
REMARK VINA RESULT:      -8.0      2.093      3.991
REMARK  Name = 
REMARK  7 active torsions:
REMARK  status: ('A' for Active; 'I' for Inactive)
REMARK    1  A    between atoms: C_1  and  N_2
REMARK    2  A    between atoms: N_5  and  C_6
REMARK    3  A    between atoms: C_6  and  C_7
REMARK    4  A    between atoms: C_6  and  C_25
REMARK    5  A    between atoms: C_7  and  N_8
REMARK    6  A    between atoms: N_11  and  C_12
REMARK    7  A    between atoms: C_12  and  C_13
REMARK                            x       y       z     vdW  Elec       q    Type
REMARK                         _______ _______ _______ _____ _____    ______ ____
ROOT
ATOM      1  N   UNL     1       2.509   7.639  19.212  0.00  0.00    +0.000 NA
ATOM      2  C   UNL     1       1.471   8.086  20.162  0.00  0.00    +0.000 C 
ATOM      3  C   UNL     1       1.186   9.617  20.116  0.00  0.00    +0.000 C 
ATOM      4  N   UNL     1       0.910  10.176  18.770  0.00  0.00    +0.000 NA
ATOM      5  C   UNL     1       2.045   9.788  17.919  0.00  0.00    +0.000 C 
ATOM      6  C   UNL     1       2.316   8.277  17.898  0.00  0.00    +0.000 C 
ENDROOT
BRANCH   1   7
ATOM      7  C   UNL     1       2.545   6.153  19.096  0.00  0.00    +0.000 C 
BRANCH   7   8
ATOM      8  C   UNL     1       3.249   5.493  17.795  0.00  0.00    +0.000 C 
BRANCH   8  13
ATOM      9  C   UNL     1       1.884   2.651  21.523  0.00  0.00    +0.000 C 
ATOM     10  N   UNL     1       1.992   2.712  20.071  0.00  0.00    +0.000 NA
ATOM     11  C   UNL     1       3.384   2.863  19.614  0.00  0.00    +0.000 C 
ATOM     12  C   UNL     1       3.485   3.035  18.068  0.00  0.00    +0.000 C 
ATOM     13  N   UNL     1       2.655   4.145  17.502  0.00  0.00    +0.000 NA
ATOM     14  C   UNL     1       1.290   3.879  18.008  0.00  0.00    +0.000 C 
ATOM     15  C   UNL     1       1.159   3.796  19.535  0.00  0.00    +0.000 C 
ENDBRANCH   8  13
BRANCH   8  16
ATOM     16  C   UNL     1       4.793   5.603  17.983  0.00  0.00    +0.000 A 
ATOM     17  C   UNL     1       5.470   5.262  19.169  0.00  0.00    +0.000 A 
ATOM     18  C   UNL     1       6.794   5.652  19.399  0.00  0.00    +0.000 A 
ATOM     19  C   UNL     1       7.454   6.422  18.458  0.00  0.00    +0.000 A 
ATOM     20  F   UNL     1       8.668   6.914  18.737  0.00  0.00    +0.000 F 
ATOM     21  C   UNL     1       6.849   6.725  17.248  0.00  0.00    +0.000 A 
ATOM     22  C   UNL     1       5.548   6.278  16.992  0.00  0.00    +0.000 A 
ENDBRANCH   8  16
ENDBRANCH   7   8
ENDBRANCH   1   7
BRANCH   4  23
ATOM     23  C   UNL     1      -0.387   9.696  18.255  0.00  0.00    +0.000 C 
BRANCH  23  24
ATOM     24  C   UNL     1      -1.579  10.580  18.579  0.00  0.00    +0.000 A 
ATOM     25  C   UNL     1      -1.519  11.516  19.618  0.00  0.00    +0.000 A 
ATOM     26  C   UNL     1      -2.631  12.291  19.943  0.00  0.00    +0.000 A 
ATOM     27  C   UNL     1      -3.839  12.154  19.235  0.00  0.00    +0.000 A 
ATOM     28  C   UNL     1      -4.969  12.929  19.558  0.00  0.00    +0.000 A 
ATOM     29  C   UNL     1      -6.159  12.783  18.843  0.00  0.00    +0.000 A 
ATOM     30  C   UNL     1      -6.237  11.868  17.797  0.00  0.00    +0.000 A 
ATOM     31  C   UNL     1      -5.124  11.096  17.464  0.00  0.00    +0.000 A 
ATOM     32  C   UNL     1      -3.912  11.225  18.174  0.00  0.00    +0.000 A 
ATOM     33  C   UNL     1      -2.783  10.445  17.865  0.00  0.00    +0.000 A 
ENDBRANCH  23  24
ENDBRANCH   4  23
TORSDOF 6
ENDMDL
MODEL 4
REMARK VINA RESULT:      -8.0      2.154      4.230
REMARK  Name = 
REMARK  7 active torsions:
REMARK  status: ('A' for Active; 'I' for Inactive)
REMARK    1  A    between atoms: C_1  and  N_2
REMARK    2  A    between atoms: N_5  and  C_6
REMARK    3  A    between atoms: C_6  and  C_7
REMARK    4  A    between atoms: C_6  and  C_25
REMARK    5  A    between atoms: C_7  and  N_8
REMARK    6  A    between atoms: N_11  and  C_12
REMARK    7  A    between atoms: C_12  and  C_13
REMARK                            x       y       z     vdW  Elec       q    Type
REMARK                         _______ _______ _______ _____ _____    ______ ____
ROOT
ATOM      1  N   UNL     1       2.512   7.638  19.238  0.00  0.00    +0.000 NA
ATOM      2  C   UNL     1       1.346   8.030  20.053  0.00  0.00    +0.000 C 
ATOM      3  C   UNL     1       0.990   9.544  19.966  0.00  0.00    +0.000 C 
ATOM      4  N   UNL     1       0.850  10.089  18.593  0.00  0.00    +0.000 NA
ATOM      5  C   UNL     1       2.098   9.761  17.887  0.00  0.00    +0.000 C 
ATOM      6  C   UNL     1       2.447   8.267  17.907  0.00  0.00    +0.000 C 
ENDROOT
BRANCH   1   7
ATOM      7  C   UNL     1       2.639   6.156  19.136  0.00  0.00    +0.000 C 
BRANCH   7   8
ATOM      8  C   UNL     1       3.338   5.526  17.818  0.00  0.00    +0.000 C 
BRANCH   8  13
ATOM      9  C   UNL     1       1.833   2.705  21.507  0.00  0.00    +0.000 C 
ATOM     10  N   UNL     1       1.999   2.756  20.060  0.00  0.00    +0.000 NA
ATOM     11  C   UNL     1       3.408   2.909  19.659  0.00  0.00    +0.000 C 
ATOM     12  C   UNL     1       3.571   3.071  18.117  0.00  0.00    +0.000 C 
ATOM     13  N   UNL     1       2.761   4.174  17.510  0.00  0.00    +0.000 NA
ATOM     14  C   UNL     1       1.377   3.907  17.962  0.00  0.00    +0.000 C 
ATOM     15  C   UNL     1       1.185   3.833  19.484  0.00  0.00    +0.000 C 
ENDBRANCH   8  13
BRANCH   8  16
ATOM     16  C   UNL     1       4.883   5.656  17.991  0.00  0.00    +0.000 A 
ATOM     17  C   UNL     1       5.581   5.272  19.151  0.00  0.00    +0.000 A 
ATOM     18  C   UNL     1       6.901   5.675  19.382  0.00  0.00    +0.000 A 
ATOM     19  C   UNL     1       7.534   6.501  18.471  0.00  0.00    +0.000 A 
ATOM     20  F   UNL     1       8.742   7.002  18.758  0.00  0.00    +0.000 F 
ATOM     21  C   UNL     1       6.908   6.850  17.285  0.00  0.00    +0.000 A 
ATOM     22  C   UNL     1       5.612   6.391  17.024  0.00  0.00    +0.000 A 
ENDBRANCH   8  16
ENDBRANCH   7   8
ENDBRANCH   1   7
BRANCH   4  23
ATOM     23  C   UNL     1      -0.349   9.543  17.929  0.00  0.00    +0.000 C 
BRANCH  23  24
ATOM     24  C   UNL     1      -1.648  10.268  18.239  0.00  0.00    +0.000 A 
ATOM     25  C   UNL     1      -2.829   9.946  17.561  0.00  0.00    +0.000 A 
ATOM     26  C   UNL     1      -4.008  10.646  17.814  0.00  0.00    +0.000 A 
ATOM     27  C   UNL     1      -4.040  11.691  18.756  0.00  0.00    +0.000 A 
ATOM     28  C   UNL     1      -5.223  12.406  19.016  0.00  0.00    +0.000 A 
ATOM     29  C   UNL     1      -5.240  13.437  19.957  0.00  0.00    +0.000 A 
ATOM     30  C   UNL     1      -4.079  13.766  20.652  0.00  0.00    +0.000 A 
ATOM     31  C   UNL     1      -2.899  13.061  20.407  0.00  0.00    +0.000 A 
ATOM     32  C   UNL     1      -2.860  12.018  19.460  0.00  0.00    +0.000 A 
ATOM     33  C   UNL     1      -1.677  11.307  19.185  0.00  0.00    +0.000 A 
ENDBRANCH  23  24
ENDBRANCH   4  23
TORSDOF 6
ENDMDL
MODEL 5
REMARK VINA RESULT:      -8.0      2.218      3.848
REMARK  Name = 
REMARK  7 active torsions:
REMARK  status: ('A' for Active; 'I' for Inactive)
REMARK    1  A    between atoms: C_1  and  N_2
REMARK    2  A    between atoms: N_5  and  C_6
REMARK    3  A    between atoms: C_6  and  C_7
REMARK    4  A    between atoms: C_6  and  C_25
REMARK    5  A    between atoms: C_7  and  N_8
REMARK    6  A    between atoms: N_11  and  C_12
REMARK    7  A    between atoms: C_12  and  C_13
REMARK                            x       y       z     vdW  Elec       q    Type
REMARK                         _______ _______ _______ _____ _____    ______ ____
ROOT
ATOM      1  N   UNL     1       2.253   8.132  19.435  0.00  0.00    +0.000 NA
ATOM      2  C   UNL     1       0.970   8.420  20.105  0.00  0.00    +0.000 C 
ATOM      3  C   UNL     1       0.422   9.853  19.839  0.00  0.00    +0.000 C 
ATOM      4  N   UNL     1       0.345  10.253  18.412  0.00  0.00    +0.000 NA
ATOM      5  C   UNL     1       1.690  10.050  17.850  0.00  0.00    +0.000 C 
ATOM      6  C   UNL     1       2.235   8.629  18.048  0.00  0.00    +0.000 C 
ENDROOT
BRANCH   1   7
ATOM      7  C   UNL     1       2.590   6.681  19.490  0.00  0.00    +0.000 C 
BRANCH   7   8
ATOM      8  C   UNL     1       2.765   5.871  18.098  0.00  0.00    +0.000 C 
BRANCH   8  13
ATOM      9  C   UNL     1       4.392   1.835  20.312  0.00  0.00    +0.000 C 
ATOM     10  N   UNL     1       3.293   2.382  19.525  0.00  0.00    +0.000 NA
ATOM     11  C   UNL     1       3.720   2.818  18.185  0.00  0.00    +0.000 C 
ATOM     12  C   UNL     1       2.567   3.498  17.388  0.00  0.00    +0.000 C 
ATOM     13  N   UNL     1       1.903   4.641  18.092  0.00  0.00    +0.000 NA
ATOM     14  C   UNL     1       1.505   4.084  19.404  0.00  0.00    +0.000 C 
ATOM     15  C   UNL     1       2.647   3.489  20.240  0.00  0.00    +0.000 C 
ENDBRANCH   8  13
BRANCH   8  16
ATOM     16  C   UNL     1       4.293   5.713  17.830  0.00  0.00    +0.000 A 
ATOM     17  C   UNL     1       4.851   5.475  16.560  0.00  0.00    +0.000 A 
ATOM     18  C   UNL     1       6.174   5.046  16.406  0.00  0.00    +0.000 A 
ATOM     19  C   UNL     1       6.953   4.814  17.525  0.00  0.00    +0.000 A 
ATOM     20  F   UNL     1       8.168   4.270  17.387  0.00  0.00    +0.000 F 
ATOM     21  C   UNL     1       6.467   5.099  18.792  0.00  0.00    +0.000 A 
ATOM     22  C   UNL     1       5.165   5.590  18.940  0.00  0.00    +0.000 A 
ENDBRANCH   8  16
ENDBRANCH   7   8
ENDBRANCH   1   7
BRANCH   4  23
ATOM     23  C   UNL     1      -0.697   9.485  17.704  0.00  0.00    +0.000 C 
BRANCH  23  24
ATOM     24  C   UNL     1      -2.023  10.205  17.525  0.00  0.00    +0.000 A 
ATOM     25  C   UNL     1      -2.658  10.239  16.279  0.00  0.00    +0.000 A 
ATOM     26  C   UNL     1      -3.851  10.942  16.107  0.00  0.00    +0.000 A 
ATOM     27  C   UNL     1      -4.444  11.632  17.180  0.00  0.00    +0.000 A 
ATOM     28  C   UNL     1      -5.644  12.348  17.017  0.00  0.00    +0.000 A 
ATOM     29  C   UNL     1      -6.222  13.024  18.093  0.00  0.00    +0.000 A 
ATOM     30  C   UNL     1      -5.613  12.993  19.344  0.00  0.00    +0.000 A 
ATOM     31  C   UNL     1      -4.425  12.283  19.521  0.00  0.00    +0.000 A 
ATOM     32  C   UNL     1      -3.823  11.595  18.448  0.00  0.00    +0.000 A 
ATOM     33  C   UNL     1      -2.616  10.889  18.602  0.00  0.00    +0.000 A 
ENDBRANCH  23  24
ENDBRANCH   4  23
TORSDOF 6
ENDMDL
MODEL 6
REMARK VINA RESULT:      -8.0      2.132      3.901
REMARK  Name = 
REMARK  7 active torsions:
REMARK  status: ('A' for Active; 'I' for Inactive)
REMARK    1  A    between atoms: C_1  and  N_2
REMARK    2  A    between atoms: N_5  and  C_6
REMARK    3  A    between atoms: C_6  and  C_7
REMARK    4  A    between atoms: C_6  and  C_25
REMARK    5  A    between atoms: C_7  and  N_8
REMARK    6  A    between atoms: N_11  and  C_12
REMARK    7  A    between atoms: C_12  and  C_13
REMARK                            x       y       z     vdW  Elec       q    Type
REMARK                         _______ _______ _______ _____ _____    ______ ____
ROOT
ATOM      1  N   UNL     1       2.517   7.435  19.238  0.00  0.00    +0.000 NA
ATOM      2  C   UNL     1       1.469   7.955  20.138  0.00  0.00    +0.000 C 
ATOM      3  C   UNL     1       1.244   9.492  20.028  0.00  0.00    +0.000 C 
ATOM      4  N   UNL     1       1.030  10.010  18.655  0.00  0.00    +0.000 NA
ATOM      5  C   UNL     1       2.175   9.550  17.854  0.00  0.00    +0.000 C 
ATOM      6  C   UNL     1       2.389   8.031  17.897  0.00  0.00    +0.000 C 
ENDROOT
BRANCH   1   7
ATOM      7  C   UNL     1       2.501   5.945  19.177  0.00  0.00    +0.000 C 
BRANCH   7   8
ATOM      8  C   UNL     1       2.878   5.222  17.778  0.00  0.00    +0.000 C 
BRANCH   8  13
ATOM      9  C   UNL     1       1.978   2.580  21.784  0.00  0.00    +0.000 C 
ATOM     10  N   UNL     1       1.831   2.602  20.334  0.00  0.00    +0.000 NA
ATOM     11  C   UNL     1       3.127   2.627  19.635  0.00  0.00    +0.000 C 
ATOM     12  C   UNL     1       2.964   2.758  18.090  0.00  0.00    +0.000 C 
ATOM     13  N   UNL     1       2.137   3.923  17.641  0.00  0.00    +0.000 NA
ATOM     14  C   UNL     1       0.867   3.782  18.387  0.00  0.00    +0.000 C 
ATOM     15  C   UNL     1       1.004   3.740  19.916  0.00  0.00    +0.000 C 
ENDBRANCH   8  13
BRANCH   8  16
ATOM     16  C   UNL     1       4.432   5.211  17.652  0.00  0.00    +0.000 A 
ATOM     17  C   UNL     1       5.128   4.793  16.502  0.00  0.00    +0.000 A 
ATOM     18  C   UNL     1       6.499   4.517  16.531  0.00  0.00    +0.000 A 
ATOM     19  C   UNL     1       7.193   4.621  17.724  0.00  0.00    +0.000 A 
ATOM     20  F   UNL     1       8.470   4.222  17.786  0.00  0.00    +0.000 F 
ATOM     21  C   UNL     1       6.563   5.093  18.865  0.00  0.00    +0.000 A 
ATOM     22  C   UNL     1       5.206   5.432  18.818  0.00  0.00    +0.000 A 
ENDBRANCH   8  16
ENDBRANCH   7   8
ENDBRANCH   1   7
BRANCH   4  23
ATOM     23  C   UNL     1      -0.268   9.560  18.117  0.00  0.00    +0.000 C 
BRANCH  23  24
ATOM     24  C   UNL     1      -1.453  10.448  18.456  0.00  0.00    +0.000 A 
ATOM     25  C   UNL     1      -1.348  11.443  19.433  0.00  0.00    +0.000 A 
ATOM     26  C   UNL     1      -2.452  12.224  19.776  0.00  0.00    +0.000 A 
ATOM     27  C   UNL     1      -3.696  12.031  19.148  0.00  0.00    +0.000 A 
ATOM     28  C   UNL     1      -4.817  12.810  19.489  0.00  0.00    +0.000 A 
ATOM     29  C   UNL     1      -6.043  12.609  18.853  0.00  0.00    +0.000 A 
ATOM     30  C   UNL     1      -6.167  11.632  17.868  0.00  0.00    +0.000 A 
ATOM     31  C   UNL     1      -5.062  10.855  17.518  0.00  0.00    +0.000 A 
ATOM     32  C   UNL     1      -3.815  11.040  18.148  0.00  0.00    +0.000 A 
ATOM     33  C   UNL     1      -2.694  10.256  17.821  0.00  0.00    +0.000 A 
ENDBRANCH  23  24
ENDBRANCH   4  23
TORSDOF 6
ENDMDL
MODEL 7
REMARK VINA RESULT:      -7.8      1.589      2.499
REMARK  Name = 
REMARK  7 active torsions:
REMARK  status: ('A' for Active; 'I' for Inactive)
REMARK    1  A    between atoms: C_1  and  N_2
REMARK    2  A    between atoms: N_5  and  C_6
REMARK    3  A    between atoms: C_6  and  C_7
REMARK    4  A    between atoms: C_6  and  C_25
REMARK    5  A    between atoms: C_7  and  N_8
REMARK    6  A    between atoms: N_11  and  C_12
REMARK    7  A    between atoms: C_12  and  C_13
REMARK                            x       y       z     vdW  Elec       q    Type
REMARK                         _______ _______ _______ _____ _____    ______ ____
ROOT
ATOM      1  N   UNL     1       2.142   8.681  18.741  0.00  0.00    +0.000 NA
ATOM      2  C   UNL     1       1.338   8.632  19.978  0.00  0.00    +0.000 C 
ATOM      3  C   UNL     1       1.101  10.023  20.637  0.00  0.00    +0.000 C 
ATOM      4  N   UNL     1       0.573  11.076  19.735  0.00  0.00    +0.000 NA
ATOM      5  C   UNL     1       1.495  11.143  18.590  0.00  0.00    +0.000 C 
ATOM      6  C   UNL     1       1.705   9.797  17.884  0.00  0.00    +0.000 C 
ENDROOT
BRANCH   1   7
ATOM      7  C   UNL     1       2.105   7.383  18.008  0.00  0.00    +0.000 C 
BRANCH   7   8
ATOM      8  C   UNL     1       3.124   6.208  18.457  0.00  0.00    +0.000 C 
BRANCH   8  13
ATOM      9  C   UNL     1       7.976   5.689  18.608  0.00  0.00    +0.000 C 
ATOM     10  N   UNL     1       6.804   5.527  17.758  0.00  0.00    +0.000 NA
ATOM     11  C   UNL     1       6.117   6.803  17.493  0.00  0.00    +0.000 C 
ATOM     12  C   UNL     1       4.805   6.611  16.673  0.00  0.00    +0.000 C 
ATOM     13  N   UNL     1       3.831   5.638  17.262  0.00  0.00    +0.000 NA
ATOM     14  C   UNL     1       4.621   4.403  17.464  0.00  0.00    +0.000 C 
ATOM     15  C   UNL     1       5.870   4.558  18.344  0.00  0.00    +0.000 C 
ENDBRANCH   8  13
BRANCH   8  16
ATOM     16  C   UNL     1       2.344   5.237  19.396  0.00  0.00    +0.000 A 
ATOM     17  C   UNL     1       2.573   5.124  20.780  0.00  0.00    +0.000 A 
ATOM     18  C   UNL     1       2.074   4.048  21.523  0.00  0.00    +0.000 A 
ATOM     19  C   UNL     1       1.366   3.046  20.885  0.00  0.00    +0.000 A 
ATOM     20  F   UNL     1       1.010   1.948  21.565  0.00  0.00    +0.000 F 
ATOM     21  C   UNL     1       1.060   3.149  19.537  0.00  0.00    +0.000 A 
ATOM     22  C   UNL     1       1.503   4.259  18.809  0.00  0.00    +0.000 A 
ENDBRANCH   8  16
ENDBRANCH   7   8
ENDBRANCH   1   7
BRANCH   4  23
ATOM     23  C   UNL     1      -0.818  10.782  19.338  0.00  0.00    +0.000 C 
BRANCH  23  24
ATOM     24  C   UNL     1      -1.882  11.588  20.062  0.00  0.00    +0.000 A 
ATOM     25  C   UNL     1      -3.007  12.066  19.381  0.00  0.00    +0.000 A 
ATOM     26  C   UNL     1      -3.958  12.847  20.038  0.00  0.00    +0.000 A 
ATOM     27  C   UNL     1      -3.811  13.173  21.399  0.00  0.00    +0.000 A 
ATOM     28  C   UNL     1      -4.762  13.963  22.070  0.00  0.00    +0.000 A 
ATOM     29  C   UNL     1      -4.603  14.273  23.422  0.00  0.00    +0.000 A 
ATOM     30  C   UNL     1      -3.497  13.798  24.121  0.00  0.00    +0.000 A 
ATOM     31  C   UNL     1      -2.548  13.009  23.469  0.00  0.00    +0.000 A 
ATOM     32  C   UNL     1      -2.688  12.685  22.104  0.00  0.00    +0.000 A 
ATOM     33  C   UNL     1      -1.734  11.906  21.424  0.00  0.00    +0.000 A 
ENDBRANCH  23  24
ENDBRANCH   4  23
TORSDOF 6
ENDMDL
MODEL 8
REMARK VINA RESULT:      -7.8      3.890      8.919
REMARK  Name = 
REMARK  7 active torsions:
REMARK  status: ('A' for Active; 'I' for Inactive)
REMARK    1  A    between atoms: C_1  and  N_2
REMARK    2  A    between atoms: N_5  and  C_6
REMARK    3  A    between atoms: C_6  and  C_7
REMARK    4  A    between atoms: C_6  and  C_25
REMARK    5  A    between atoms: C_7  and  N_8
REMARK    6  A    between atoms: N_11  and  C_12
REMARK    7  A    between atoms: C_12  and  C_13
REMARK                            x       y       z     vdW  Elec       q    Type
REMARK                         _______ _______ _______ _____ _____    ______ ____
ROOT
ATOM      1  N   UNL     1       5.023   5.351  17.683  0.00  0.00    +0.000 NA
ATOM      2  C   UNL     1       5.657   6.007  18.844  0.00  0.00    +0.000 C 
ATOM      3  C   UNL     1       7.183   6.264  18.671  0.00  0.00    +0.000 C 
ATOM      4  N   UNL     1       7.577   6.962  17.423  0.00  0.00    +0.000 NA
ATOM      5  C   UNL     1       7.008   6.181  16.313  0.00  0.00    +0.000 C 
ATOM      6  C   UNL     1       5.493   5.958  16.426  0.00  0.00    +0.000 C 
ENDROOT
BRANCH   1   7
ATOM      7  C   UNL     1       3.535   5.381  17.779  0.00  0.00    +0.000 C 
BRANCH   7   8
ATOM      8  C   UNL     1       2.856   5.705  19.213  0.00  0.00    +0.000 C 
BRANCH   8  13
ATOM      9  C   UNL     1       3.975   0.997  18.573  0.00  0.00    +0.000 C 
ATOM     10  N   UNL     1       2.912   1.906  18.980  0.00  0.00    +0.000 NA
ATOM     11  C   UNL     1       2.496   2.811  17.895  0.00  0.00    +0.000 C 
ATOM     12  C   UNL     1       1.435   3.852  18.366  0.00  0.00    +0.000 C 
ATOM     13  N   UNL     1       1.834   4.662  19.560  0.00  0.00    +0.000 NA
ATOM     14  C   UNL     1       2.208   3.656  20.579  0.00  0.00    +0.000 C 
ATOM     15  C   UNL     1       3.316   2.678  20.161  0.00  0.00    +0.000 C 
ENDBRANCH   8  13
BRANCH   8  16
ATOM     16  C   UNL     1       2.420   7.203  19.203  0.00  0.00    +0.000 A 
ATOM     17  C   UNL     1       1.755   7.838  20.270  0.00  0.00    +0.000 A 
ATOM     18  C   UNL     1       1.124   9.076  20.109  0.00  0.00    +0.000 A 
ATOM     19  C   UNL     1       1.117   9.685  18.867  0.00  0.00    +0.000 A 
ATOM     20  F   UNL     1       0.395  10.797  18.678  0.00  0.00    +0.000 F 
ATOM     21  C   UNL     1       1.815   9.129  17.807  0.00  0.00    +0.000 A 
ATOM     22  C   UNL     1       2.502   7.923  17.986  0.00  0.00    +0.000 A 
ENDBRANCH   8  16
ENDBRANCH   7   8
ENDBRANCH   1   7
BRANCH   4  23
ATOM     23  C   UNL     1       7.118   8.364  17.435  0.00  0.00    +0.000 C 
BRANCH  23  24
ATOM     24  C   UNL     1       8.100   9.362  18.027  0.00  0.00    +0.000 A 
ATOM     25  C   UNL     1       8.890   9.023  19.131  0.00  0.00    +0.000 A 
ATOM     26  C   UNL     1       9.754   9.956  19.701  0.00  0.00    +0.000 A 
ATOM     27  C   UNL     1       9.854  11.260  19.182  0.00  0.00    +0.000 A 
ATOM     28  C   UNL     1      10.720  12.211  19.752  0.00  0.00    +0.000 A 
ATOM     29  C   UNL     1      10.811  13.500  19.221  0.00  0.00    +0.000 A 
ATOM     30  C   UNL     1      10.043  13.854  18.115  0.00  0.00    +0.000 A 
ATOM     31  C   UNL     1       9.183  12.919  17.538  0.00  0.00    +0.000 A 
ATOM     32  C   UNL     1       9.074  11.614  18.058  0.00  0.00    +0.000 A 
ATOM     33  C   UNL     1       8.201  10.662  17.501  0.00  0.00    +0.000 A 
ENDBRANCH  23  24
ENDBRANCH   4  23
TORSDOF 6
ENDMDL
MODEL 9
REMARK VINA RESULT:      -7.7      2.220      3.964
REMARK  Name = 
REMARK  7 active torsions:
REMARK  status: ('A' for Active; 'I' for Inactive)
REMARK    1  A    between atoms: C_1  and  N_2
REMARK    2  A    between atoms: N_5  and  C_6
REMARK    3  A    between atoms: C_6  and  C_7
REMARK    4  A    between atoms: C_6  and  C_25
REMARK    5  A    between atoms: C_7  and  N_8
REMARK    6  A    between atoms: N_11  and  C_12
REMARK    7  A    between atoms: C_12  and  C_13
REMARK                            x       y       z     vdW  Elec       q    Type
REMARK                         _______ _______ _______ _____ _____    ______ ____
ROOT
ATOM      1  N   UNL     1       2.142   8.069  19.549  0.00  0.00    +0.000 NA
ATOM      2  C   UNL     1       0.957   8.526  20.301  0.00  0.00    +0.000 C 
ATOM      3  C   UNL     1       0.595  10.023  20.068  0.00  0.00    +0.000 C 
ATOM      4  N   UNL     1       0.480  10.438  18.648  0.00  0.00    +0.000 NA
ATOM      5  C   UNL     1       1.743  10.056  18.000  0.00  0.00    +0.000 C 
ATOM      6  C   UNL     1       2.100   8.572  18.165  0.00  0.00    +0.000 C 
ENDROOT
BRANCH   1   7
ATOM      7  C   UNL     1       2.279   6.585  19.586  0.00  0.00    +0.000 C 
BRANCH   7   8
ATOM      8  C   UNL     1       2.627   5.803  18.211  0.00  0.00    +0.000 C 
BRANCH   8  13
ATOM      9  C   UNL     1       4.487   1.727  20.152  0.00  0.00    +0.000 C 
ATOM     10  N   UNL     1       3.359   2.261  19.398  0.00  0.00    +0.000 NA
ATOM     11  C   UNL     1       3.762   2.812  18.093  0.00  0.00    +0.000 C 
ATOM     12  C   UNL     1       2.571   3.477  17.339  0.00  0.00    +0.000 C 
ATOM     13  N   UNL     1       1.840   4.528  18.116  0.00  0.00    +0.000 NA
ATOM     14  C   UNL     1       1.473   3.859  19.384  0.00  0.00    +0.000 C 
ATOM     15  C   UNL     1       2.647   3.276  20.184  0.00  0.00    +0.000 C 
ENDBRANCH   8  13
BRANCH   8  16
ATOM     16  C   UNL     1       4.180   5.732  18.086  0.00  0.00    +0.000 A 
ATOM     17  C   UNL     1       5.047   5.458  19.161  0.00  0.00    +0.000 A 
ATOM     18  C   UNL     1       6.423   5.696  19.076  0.00  0.00    +0.000 A 
ATOM     19  C   UNL     1       6.952   6.247  17.922  0.00  0.00    +0.000 A 
ATOM     20  F   UNL     1       8.242   6.607  17.889  0.00  0.00    +0.000 F 
ATOM     21  C   UNL     1       6.147   6.471  16.816  0.00  0.00    +0.000 A 
ATOM     22  C   UNL     1       4.782   6.170  16.880  0.00  0.00    +0.000 A 
ENDBRANCH   8  16
ENDBRANCH   7   8
ENDBRANCH   1   7
BRANCH   4  23
ATOM     23  C   UNL     1      -0.703   9.825  18.013  0.00  0.00    +0.000 C 
BRANCH  23  24
ATOM     24  C   UNL     1      -2.023  10.525  18.288  0.00  0.00    +0.000 A 
ATOM     25  C   UNL     1      -3.169  10.211  17.551  0.00  0.00    +0.000 A 
ATOM     26  C   UNL     1      -4.367  10.890  17.773  0.00  0.00    +0.000 A 
ATOM     27  C   UNL     1      -4.452  11.906  18.742  0.00  0.00    +0.000 A 
ATOM     28  C   UNL     1      -5.654  12.601  18.971  0.00  0.00    +0.000 A 
ATOM     29  C   UNL     1      -5.723  13.604  19.940  0.00  0.00    +0.000 A 
ATOM     30  C   UNL     1      -4.597  13.924  20.693  0.00  0.00    +0.000 A 
ATOM     31  C   UNL     1      -3.399  13.241  20.479  0.00  0.00    +0.000 A 
ATOM     32  C   UNL     1      -3.307  12.226  19.505  0.00  0.00    +0.000 A 
ATOM     33  C   UNL     1      -2.105  11.536  19.262  0.00  0.00    +0.000 A 
ENDBRANCH  23  24
ENDBRANCH   4  23
TORSDOF 6
ENDMDL
