MODEL 1
REMARK VINA RESULT:      -8.3      0.000      0.000
REMARK  Name = 
REMARK  8 active torsions:
REMARK  status: ('A' for Active; 'I' for Inactive)
REMARK    1  A    between atoms: C_1  and  C_2
REMARK    2  A    between atoms: C_2  and  C_3
REMARK    3  A    between atoms: C_3  and  N_4
REMARK    4  A    between atoms: N_4  and  C_5
REMARK    5  A    between atoms: C_5  and  C_6
REMARK    6  A    between atoms: N_8  and  C_9
REMARK    7  A    between atoms: C_18  and  C_20
REMARK    8  A    between atoms: C_20  and  N_21
REMARK                            x       y       z     vdW  Elec       q    Type
REMARK                         _______ _______ _______ _____ _____    ______ ____
ROOT
ATOM      1  N   UNL     1       3.236   5.794  18.733  0.00  0.00    +0.000 N 
ATOM      2  C   UNL     1       4.552   5.333  18.866  0.00  0.00    +0.000 C 
ATOM      3  O   UNL     1       4.788   4.226  19.363  0.00  0.00    +0.000 OA
ENDROOT
BRANCH   1   4
ATOM      4  C   UNL     1       2.171   4.909  19.213  0.00  0.00    +0.000 C 
BRANCH   4   6
ATOM      5  C   UNL     1       1.123   2.663  18.565  0.00  0.00    +0.000 C 
ATOM      6  C   UNL     1       1.530   4.055  18.115  0.00  0.00    +0.000 C 
ENDBRANCH   4   6
ENDBRANCH   1   4
BRANCH   1   7
ATOM      7  C   UNL     1       2.902   7.063  18.070  0.00  0.00    +0.000 C 
BRANCH   7   8
ATOM      8  C   UNL     1       2.113   8.186  18.749  0.00  0.00    +0.000 C 
ATOM      9  O   UNL     1       1.932   8.187  19.969  0.00  0.00    +0.000 OA
ATOM     10  N   UNL     1       1.613   9.152  17.888  0.00  0.00    +0.000 N 
ATOM     11  H   UNL     1       1.351   8.825  16.962  0.00  0.00    +0.000 HD
BRANCH  10  12
ATOM     12  C   UNL     1       0.864  10.240  18.399  0.00  0.00    +0.000 A 
ATOM     13  C   UNL     1      -0.482  10.089  18.758  0.00  0.00    +0.000 A 
ATOM     14  C   UNL     1      -1.233  11.206  19.134  0.00  0.00    +0.000 A 
ATOM     15  C   UNL     1      -0.635  12.463  19.140  0.00  0.00    +0.000 A 
ATOM     16  F   UNL     1      -1.378  13.538  19.437  0.00  0.00    +0.000 F 
ATOM     17  C   UNL     1       0.712  12.610  18.829  0.00  0.00    +0.000 A 
ATOM     18  F   UNL     1       1.272  13.826  18.819  0.00  0.00    +0.000 F 
ATOM     19  C   UNL     1       1.468  11.493  18.491  0.00  0.00    +0.000 A 
ATOM     20  F   UNL     1       2.762  11.629  18.165  0.00  0.00    +0.000 F 
ENDBRANCH  10  12
ENDBRANCH   7   8
ENDBRANCH   1   7
BRANCH   2  21
ATOM     21  C   UNL     1       5.719   6.163  18.304  0.00  0.00    +0.000 C 
BRANCH  21  22
ATOM     22  N   UNL     1       6.191   5.563  17.073  0.00  0.00    +0.000 N 
ATOM     23  C   UNL     1       7.192   4.643  17.009  0.00  0.00    +0.000 C 
ATOM     24  O   UNL     1       7.904   4.243  17.913  0.00  0.00    +0.000 OA
ATOM     25  N   UNL     1       7.343   4.254  15.698  0.00  0.00    +0.000 N 
ATOM     26  C   UNL     1       6.518   5.019  14.792  0.00  0.00    +0.000 C 
ATOM     27  C   UNL     1       7.360   5.850  13.824  0.00  0.00    +0.000 C 
ATOM     28  C   UNL     1       8.043   4.972  12.775  0.00  0.00    +0.000 C 
ATOM     29  C   UNL     1       7.040   4.087  12.036  0.00  0.00    +0.000 C 
ATOM     30  C   UNL     1       6.179   3.265  12.992  0.00  0.00    +0.000 C 
ATOM     31  C   UNL     1       5.507   4.138  14.052  0.00  0.00    +0.000 C 
ATOM     32  C   UNL     1       5.805   5.920  15.812  0.00  0.00    +0.000 C 
ATOM     33  O   UNL     1       5.028   6.820  15.522  0.00  0.00    +0.000 OA
ATOM     34  H   UNL     1       8.076   3.606  15.440  0.00  0.00    +0.000 HD
ENDBRANCH  21  22
ENDBRANCH   2  21
TORSDOF 7
ENDMDL
MODEL 2
REMARK VINA RESULT:      -8.1      1.810      2.040
REMARK  Name = 
REMARK  8 active torsions:
REMARK  status: ('A' for Active; 'I' for Inactive)
REMARK    1  A    between atoms: C_1  and  C_2
REMARK    2  A    between atoms: C_2  and  C_3
REMARK    3  A    between atoms: C_3  and  N_4
REMARK    4  A    between atoms: N_4  and  C_5
REMARK    5  A    between atoms: C_5  and  C_6
REMARK    6  A    between atoms: N_8  and  C_9
REMARK    7  A    between atoms: C_18  and  C_20
REMARK    8  A    between atoms: C_20  and  N_21
REMARK                            x       y       z     vdW  Elec       q    Type
REMARK                         _______ _______ _______ _____ _____    ______ ____
ROOT
ATOM      1  N   UNL     1       3.504   4.780  19.367  0.00  0.00    +0.000 N 
ATOM      2  C   UNL     1       4.867   4.504  19.199  0.00  0.00    +0.000 C 
ATOM      3  O   UNL     1       5.316   3.374  19.419  0.00  0.00    +0.000 OA
ENDROOT
BRANCH   1   4
ATOM      4  C   UNL     1       2.653   3.674  19.816  0.00  0.00    +0.000 C 
BRANCH   4   6
ATOM      5  C   UNL     1       2.340   2.216  17.734  0.00  0.00    +0.000 C 
ATOM      6  C   UNL     1       1.695   3.150  18.742  0.00  0.00    +0.000 C 
ENDBRANCH   4   6
ENDBRANCH   1   4
BRANCH   1   7
ATOM      7  C   UNL     1       2.911   6.084  19.034  0.00  0.00    +0.000 C 
BRANCH   7   8
ATOM      8  C   UNL     1       2.002   6.863  19.987  0.00  0.00    +0.000 C 
ATOM      9  O   UNL     1       1.348   6.284  20.858  0.00  0.00    +0.000 OA
ATOM     10  N   UNL     1       1.962   8.232  19.767  0.00  0.00    +0.000 N 
ATOM     11  H   UNL     1       2.069   8.528  18.800  0.00  0.00    +0.000 HD
BRANCH  10  12
ATOM     12  C   UNL     1       1.154   9.060  20.585  0.00  0.00    +0.000 A 
ATOM     13  C   UNL     1       1.165   8.933  21.981  0.00  0.00    +0.000 A 
ATOM     14  C   UNL     1       0.265   9.669  22.755  0.00  0.00    +0.000 A 
ATOM     15  C   UNL     1      -0.644  10.517  22.128  0.00  0.00    +0.000 A 
ATOM     16  F   UNL     1      -1.549  11.169  22.872  0.00  0.00    +0.000 F 
ATOM     17  C   UNL     1      -0.627  10.681  20.748  0.00  0.00    +0.000 A 
ATOM     18  F   UNL     1      -1.518  11.484  20.154  0.00  0.00    +0.000 F 
ATOM     19  C   UNL     1       0.294   9.976  19.981  0.00  0.00    +0.000 A 
ATOM     20  F   UNL     1       0.300  10.109  18.646  0.00  0.00    +0.000 F 
ENDBRANCH  10  12
ENDBRANCH   7   8
ENDBRANCH   1   7
BRANCH   2  21
ATOM     21  C   UNL     1       5.809   5.586  18.643  0.00  0.00    +0.000 C 
BRANCH  21  22
ATOM     22  N   UNL     1       6.289   5.185  17.336  0.00  0.00    +0.000 N 
ATOM     23  C   UNL     1       7.432   4.477  17.129  0.00  0.00    +0.000 C 
ATOM     24  O   UNL     1       8.270   4.146  17.949  0.00  0.00    +0.000 OA
ATOM     25  N   UNL     1       7.552   4.230  15.781  0.00  0.00    +0.000 N 
ATOM     26  C   UNL     1       6.538   4.897  15.000  0.00  0.00    +0.000 C 
ATOM     27  C   UNL     1       7.140   5.946  14.065  0.00  0.00    +0.000 C 
ATOM     28  C   UNL     1       7.890   5.298  12.901  0.00  0.00    +0.000 C 
ATOM     29  C   UNL     1       7.012   4.303  12.144  0.00  0.00    +0.000 C 
ATOM     30  C   UNL     1       6.389   3.260  13.068  0.00  0.00    +0.000 C 
ATOM     31  C   UNL     1       5.650   3.904  14.242  0.00  0.00    +0.000 C 
ATOM     32  C   UNL     1       5.751   5.564  16.139  0.00  0.00    +0.000 C 
ATOM     33  O   UNL     1       4.804   6.322  15.980  0.00  0.00    +0.000 OA
ATOM     34  H   UNL     1       8.370   3.753  15.421  0.00  0.00    +0.000 HD
ENDBRANCH  21  22
ENDBRANCH   2  21
TORSDOF 7
ENDMDL
MODEL 3
REMARK VINA RESULT:      -8.1      1.275      1.659
REMARK  Name = 
REMARK  8 active torsions:
REMARK  status: ('A' for Active; 'I' for Inactive)
REMARK    1  A    between atoms: C_1  and  C_2
REMARK    2  A    between atoms: C_2  and  C_3
REMARK    3  A    between atoms: C_3  and  N_4
REMARK    4  A    between atoms: N_4  and  C_5
REMARK    5  A    between atoms: C_5  and  C_6
REMARK    6  A    between atoms: N_8  and  C_9
REMARK    7  A    between atoms: C_18  and  C_20
REMARK    8  A    between atoms: C_20  and  N_21
REMARK                            x       y       z     vdW  Elec       q    Type
REMARK                         _______ _______ _______ _____ _____    ______ ____
ROOT
ATOM      1  N   UNL     1       3.295   5.670  18.787  0.00  0.00    +0.000 N 
ATOM      2  C   UNL     1       4.610   5.196  18.881  0.00  0.00    +0.000 C 
ATOM      3  O   UNL     1       4.846   4.066  19.323  0.00  0.00    +0.000 OA
ENDROOT
BRANCH   1   4
ATOM      4  C   UNL     1       2.231   4.769  19.239  0.00  0.00    +0.000 C 
BRANCH   4   6
ATOM      5  C   UNL     1       2.129   3.586  21.509  0.00  0.00    +0.000 C 
ATOM      6  C   UNL     1       1.919   4.876  20.735  0.00  0.00    +0.000 C 
ENDBRANCH   4   6
ENDBRANCH   1   4
BRANCH   1   7
ATOM      7  C   UNL     1       2.960   6.970  18.188  0.00  0.00    +0.000 C 
BRANCH   7   8
ATOM      8  C   UNL     1       2.114   8.031  18.896  0.00  0.00    +0.000 C 
ATOM      9  O   UNL     1       1.983   8.024  20.123  0.00  0.00    +0.000 OA
ATOM     10  N   UNL     1       1.505   8.951  18.055  0.00  0.00    +0.000 N 
ATOM     11  H   UNL     1       1.232   8.600  17.141  0.00  0.00    +0.000 HD
BRANCH  10  12
ATOM     12  C   UNL     1       0.695   9.980  18.594  0.00  0.00    +0.000 A 
ATOM     13  C   UNL     1       1.165  10.809  19.623  0.00  0.00    +0.000 A 
ATOM     14  C   UNL     1       0.302  11.728  20.225  0.00  0.00    +0.000 A 
ATOM     15  C   UNL     1      -1.022  11.804  19.803  0.00  0.00    +0.000 A 
ATOM     16  F   UNL     1      -1.861  12.640  20.431  0.00  0.00    +0.000 F 
ATOM     17  C   UNL     1      -1.478  11.016  18.752  0.00  0.00    +0.000 A 
ATOM     18  F   UNL     1      -2.759  11.084  18.367  0.00  0.00    +0.000 F 
ATOM     19  C   UNL     1      -0.610  10.129  18.127  0.00  0.00    +0.000 A 
ATOM     20  F   UNL     1      -1.049   9.346  17.130  0.00  0.00    +0.000 F 
ENDBRANCH  10  12
ENDBRANCH   7   8
ENDBRANCH   1   7
BRANCH   2  21
ATOM     21  C   UNL     1       5.775   6.045  18.343  0.00  0.00    +0.000 C 
BRANCH  21  22
ATOM     22  N   UNL     1       6.247   5.482  17.095  0.00  0.00    +0.000 N 
ATOM     23  C   UNL     1       7.259   4.577  17.003  0.00  0.00    +0.000 C 
ATOM     24  O   UNL     1       7.981   4.164  17.893  0.00  0.00    +0.000 OA
ATOM     25  N   UNL     1       7.408   4.223  15.682  0.00  0.00    +0.000 N 
ATOM     26  C   UNL     1       6.569   4.999  14.799  0.00  0.00    +0.000 C 
ATOM     27  C   UNL     1       7.395   5.865  13.848  0.00  0.00    +0.000 C 
ATOM     28  C   UNL     1       8.084   5.022  12.774  0.00  0.00    +0.000 C 
ATOM     29  C   UNL     1       7.088   4.143  12.019  0.00  0.00    +0.000 C 
ATOM     30  C   UNL     1       6.243   3.285  12.958  0.00  0.00    +0.000 C 
ATOM     31  C   UNL     1       5.565   4.123  14.043  0.00  0.00    +0.000 C 
ATOM     32  C   UNL     1       5.850   5.865  15.845  0.00  0.00    +0.000 C 
ATOM     33  O   UNL     1       5.059   6.761  15.582  0.00  0.00    +0.000 OA
ATOM     34  H   UNL     1       8.149   3.591  15.404  0.00  0.00    +0.000 HD
ENDBRANCH  21  22
ENDBRANCH   2  21
TORSDOF 7
ENDMDL
MODEL 4
REMARK VINA RESULT:      -7.9      1.869      2.782
REMARK  Name = 
REMARK  8 active torsions:
REMARK  status: ('A' for Active; 'I' for Inactive)
REMARK    1  A    between atoms: C_1  and  C_2
REMARK    2  A    between atoms: C_2  and  C_3
REMARK    3  A    between atoms: C_3  and  N_4
REMARK    4  A    between atoms: N_4  and  C_5
REMARK    5  A    between atoms: C_5  and  C_6
REMARK    6  A    between atoms: N_8  and  C_9
REMARK    7  A    between atoms: C_18  and  C_20
REMARK    8  A    between atoms: C_20  and  N_21
REMARK                            x       y       z     vdW  Elec       q    Type
REMARK                         _______ _______ _______ _____ _____    ______ ____
ROOT
ATOM      1  N   UNL     1       4.841   4.301  18.930  0.00  0.00    +0.000 N 
ATOM      2  C   UNL     1       6.068   4.977  18.966  0.00  0.00    +0.000 C 
ATOM      3  O   UNL     1       7.021   4.523  19.609  0.00  0.00    +0.000 OA
ENDROOT
BRANCH   1   4
ATOM      4  C   UNL     1       4.749   3.050  19.687  0.00  0.00    +0.000 C 
BRANCH   4   6
ATOM      5  C   UNL     1       2.715   2.826  21.228  0.00  0.00    +0.000 C 
ATOM      6  C   UNL     1       3.318   2.534  19.865  0.00  0.00    +0.000 C 
ENDBRANCH   4   6
ENDBRANCH   1   4
BRANCH   1   7
ATOM      7  C   UNL     1       3.708   4.756  18.110  0.00  0.00    +0.000 C 
BRANCH   7   8
ATOM      8  C   UNL     1       2.610   5.686  18.633  0.00  0.00    +0.000 C 
ATOM      9  O   UNL     1       1.446   5.294  18.747  0.00  0.00    +0.000 OA
ATOM     10  N   UNL     1       3.029   6.975  18.929  0.00  0.00    +0.000 N 
ATOM     11  H   UNL     1       3.780   7.340  18.349  0.00  0.00    +0.000 HD
BRANCH  10  12
ATOM     12  C   UNL     1       2.102   7.928  19.419  0.00  0.00    +0.000 A 
ATOM     13  C   UNL     1       1.609   7.853  20.729  0.00  0.00    +0.000 A 
ATOM     14  C   UNL     1       0.600   8.725  21.145  0.00  0.00    +0.000 A 
ATOM     15  C   UNL     1       0.086   9.656  20.247  0.00  0.00    +0.000 A 
ATOM     16  F   UNL     1      -0.928  10.444  20.632  0.00  0.00    +0.000 F 
ATOM     17  C   UNL     1       0.605   9.764  18.962  0.00  0.00    +0.000 A 
ATOM     18  F   UNL     1       0.090  10.650  18.101  0.00  0.00    +0.000 F 
ATOM     19  C   UNL     1       1.635   8.922  18.561  0.00  0.00    +0.000 A 
ATOM     20  F   UNL     1       2.123   9.002  17.313  0.00  0.00    +0.000 F 
ENDBRANCH  10  12
ENDBRANCH   7   8
ENDBRANCH   1   7
BRANCH   2  21
ATOM     21  C   UNL     1       6.272   6.248  18.125  0.00  0.00    +0.000 C 
BRANCH  21  22
ATOM     22  N   UNL     1       6.234   5.908  16.717  0.00  0.00    +0.000 N 
ATOM     23  C   UNL     1       5.339   6.425  15.833  0.00  0.00    +0.000 C 
ATOM     24  O   UNL     1       4.394   7.160  16.063  0.00  0.00    +0.000 OA
ATOM     25  N   UNL     1       5.622   5.924  14.583  0.00  0.00    +0.000 N 
ATOM     26  C   UNL     1       6.660   4.922  14.607  0.00  0.00    +0.000 C 
ATOM     27  C   UNL     1       6.135   3.551  14.179  0.00  0.00    +0.000 C 
ATOM     28  C   UNL     1       5.849   3.502  12.678  0.00  0.00    +0.000 C 
ATOM     29  C   UNL     1       7.066   3.925  11.855  0.00  0.00    +0.000 C 
ATOM     30  C   UNL     1       7.612   5.284  12.285  0.00  0.00    +0.000 C 
ATOM     31  C   UNL     1       7.885   5.342  13.788  0.00  0.00    +0.000 C 
ATOM     32  C   UNL     1       6.983   4.940  16.110  0.00  0.00    +0.000 C 
ATOM     33  O   UNL     1       7.779   4.191  16.660  0.00  0.00    +0.000 OA
ATOM     34  H   UNL     1       5.031   6.158  13.795  0.00  0.00    +0.000 HD
ENDBRANCH  21  22
ENDBRANCH   2  21
TORSDOF 7
ENDMDL
MODEL 5
REMARK VINA RESULT:      -7.8      1.858      2.051
REMARK  Name = 
REMARK  8 active torsions:
REMARK  status: ('A' for Active; 'I' for Inactive)
REMARK    1  A    between atoms: C_1  and  C_2
REMARK    2  A    between atoms: C_2  and  C_3
REMARK    3  A    between atoms: C_3  and  N_4
REMARK    4  A    between atoms: N_4  and  C_5
REMARK    5  A    between atoms: C_5  and  C_6
REMARK    6  A    between atoms: N_8  and  C_9
REMARK    7  A    between atoms: C_18  and  C_20
REMARK    8  A    between atoms: C_20  and  N_21
REMARK                            x       y       z     vdW  Elec       q    Type
REMARK                         _______ _______ _______ _____ _____    ______ ____
ROOT
ATOM      1  N   UNL     1       3.496   5.899  18.667  0.00  0.00    +0.000 N 
ATOM      2  C   UNL     1       4.779   5.355  18.823  0.00  0.00    +0.000 C 
ATOM      3  O   UNL     1       4.936   4.243  19.337  0.00  0.00    +0.000 OA
ENDROOT
BRANCH   1   4
ATOM      4  C   UNL     1       2.371   5.091  19.144  0.00  0.00    +0.000 C 
BRANCH   4   6
ATOM      5  C   UNL     1       1.989   2.853  17.958  0.00  0.00    +0.000 C 
ATOM      6  C   UNL     1       1.638   4.328  18.036  0.00  0.00    +0.000 C 
ENDBRANCH   4   6
ENDBRANCH   1   4
BRANCH   1   7
ATOM      7  C   UNL     1       3.254   7.178  17.984  0.00  0.00    +0.000 C 
BRANCH   7   8
ATOM      8  C   UNL     1       2.116   8.131  18.360  0.00  0.00    +0.000 C 
ATOM      9  O   UNL     1       1.388   8.624  17.495  0.00  0.00    +0.000 OA
ATOM     10  N   UNL     1       2.005   8.401  19.716  0.00  0.00    +0.000 N 
ATOM     11  H   UNL     1       2.877   8.409  20.238  0.00  0.00    +0.000 HD
BRANCH  10  12
ATOM     12  C   UNL     1       0.991   9.271  20.187  0.00  0.00    +0.000 A 
ATOM     13  C   UNL     1       0.419  10.238  19.348  0.00  0.00    +0.000 A 
ATOM     14  C   UNL     1      -0.484  11.168  19.872  0.00  0.00    +0.000 A 
ATOM     15  C   UNL     1      -0.798  11.129  21.227  0.00  0.00    +0.000 A 
ATOM     16  F   UNL     1      -1.612  12.066  21.735  0.00  0.00    +0.000 F 
ATOM     17  C   UNL     1      -0.268  10.144  22.051  0.00  0.00    +0.000 A 
ATOM     18  F   UNL     1      -0.562  10.129  23.357  0.00  0.00    +0.000 F 
ATOM     19  C   UNL     1       0.601   9.196  21.523  0.00  0.00    +0.000 A 
ATOM     20  F   UNL     1       1.137   8.257  22.317  0.00  0.00    +0.000 F 
ENDBRANCH  10  12
ENDBRANCH   7   8
ENDBRANCH   1   7
BRANCH   2  21
ATOM     21  C   UNL     1       6.004   6.101  18.266  0.00  0.00    +0.000 C 
BRANCH  21  22
ATOM     22  N   UNL     1       6.404   5.502  17.009  0.00  0.00    +0.000 N 
ATOM     23  C   UNL     1       7.390   4.573  16.888  0.00  0.00    +0.000 C 
ATOM     24  O   UNL     1       8.144   4.161  17.752  0.00  0.00    +0.000 OA
ATOM     25  N   UNL     1       7.468   4.189  15.570  0.00  0.00    +0.000 N 
ATOM     26  C   UNL     1       6.605   4.967  14.712  0.00  0.00    +0.000 C 
ATOM     27  C   UNL     1       7.404   5.795  13.705  0.00  0.00    +0.000 C 
ATOM     28  C   UNL     1       8.021   4.915  12.618  0.00  0.00    +0.000 C 
ATOM     29  C   UNL     1       6.971   4.044  11.928  0.00  0.00    +0.000 C 
ATOM     30  C   UNL     1       6.154   3.226  12.924  0.00  0.00    +0.000 C 
ATOM     31  C   UNL     1       5.547   4.100  14.022  0.00  0.00    +0.000 C 
ATOM     32  C   UNL     1       5.956   5.870  15.772  0.00  0.00    +0.000 C 
ATOM     33  O   UNL     1       5.173   6.779  15.528  0.00  0.00    +0.000 OA
ATOM     34  H   UNL     1       8.180   3.535  15.270  0.00  0.00    +0.000 HD
ENDBRANCH  21  22
ENDBRANCH   2  21
TORSDOF 7
ENDMDL
MODEL 6
REMARK VINA RESULT:      -7.6      1.475      1.670
REMARK  Name = 
REMARK  8 active torsions:
REMARK  status: ('A' for Active; 'I' for Inactive)
REMARK    1  A    between atoms: C_1  and  C_2
REMARK    2  A    between atoms: C_2  and  C_3
REMARK    3  A    between atoms: C_3  and  N_4
REMARK    4  A    between atoms: N_4  and  C_5
REMARK    5  A    between atoms: C_5  and  C_6
REMARK    6  A    between atoms: N_8  and  C_9
REMARK    7  A    between atoms: C_18  and  C_20
REMARK    8  A    between atoms: C_20  and  N_21
REMARK                            x       y       z     vdW  Elec       q    Type
REMARK                         _______ _______ _______ _____ _____    ______ ____
ROOT
ATOM      1  N   UNL     1       3.659   5.328  18.798  0.00  0.00    +0.000 N 
ATOM      2  C   UNL     1       5.037   5.148  18.977  0.00  0.00    +0.000 C 
ATOM      3  O   UNL     1       5.471   4.204  19.646  0.00  0.00    +0.000 OA
ENDROOT
BRANCH   1   4
ATOM      4  C   UNL     1       2.774   4.352  19.442  0.00  0.00    +0.000 C 
BRANCH   4   6
ATOM      5  C   UNL     1       2.581   2.692  17.502  0.00  0.00    +0.000 C 
ATOM      6  C   UNL     1       1.854   3.609  18.469  0.00  0.00    +0.000 C 
ENDBRANCH   4   6
ENDBRANCH   1   4
BRANCH   1   7
ATOM      7  C   UNL     1       3.100   6.383  17.941  0.00  0.00    +0.000 C 
BRANCH   7   8
ATOM      8  C   UNL     1       2.622   7.736  18.474  0.00  0.00    +0.000 C 
ATOM      9  O   UNL     1       3.147   8.788  18.099  0.00  0.00    +0.000 OA
ATOM     10  N   UNL     1       1.600   7.667  19.410  0.00  0.00    +0.000 N 
ATOM     11  H   UNL     1       1.607   6.849  20.013  0.00  0.00    +0.000 HD
BRANCH  10  12
ATOM     12  C   UNL     1       1.075   8.855  19.977  0.00  0.00    +0.000 A 
ATOM     13  C   UNL     1       1.231   9.136  21.341  0.00  0.00    +0.000 A 
ATOM     14  C   UNL     1       0.593  10.247  21.901  0.00  0.00    +0.000 A 
ATOM     15  C   UNL     1      -0.201  11.058  21.096  0.00  0.00    +0.000 A 
ATOM     16  F   UNL     1      -0.864  12.082  21.653  0.00  0.00    +0.000 F 
ATOM     17  C   UNL     1      -0.320  10.808  19.734  0.00  0.00    +0.000 A 
ATOM     18  F   UNL     1      -1.103  11.583  18.973  0.00  0.00    +0.000 F 
ATOM     19  C   UNL     1       0.345   9.725  19.170  0.00  0.00    +0.000 A 
ATOM     20  F   UNL     1       0.214   9.461  17.861  0.00  0.00    +0.000 F 
ENDBRANCH  10  12
ENDBRANCH   7   8
ENDBRANCH   1   7
BRANCH   2  21
ATOM     21  C   UNL     1       6.033   6.075  18.259  0.00  0.00    +0.000 C 
BRANCH  21  22
ATOM     22  N   UNL     1       6.420   5.483  16.995  0.00  0.00    +0.000 N 
ATOM     23  C   UNL     1       7.405   4.554  16.859  0.00  0.00    +0.000 C 
ATOM     24  O   UNL     1       8.168   4.138  17.712  0.00  0.00    +0.000 OA
ATOM     25  N   UNL     1       7.468   4.178  15.537  0.00  0.00    +0.000 N 
ATOM     26  C   UNL     1       6.597   4.960  14.693  0.00  0.00    +0.000 C 
ATOM     27  C   UNL     1       7.385   5.793  13.682  0.00  0.00    +0.000 C 
ATOM     28  C   UNL     1       7.991   4.919  12.583  0.00  0.00    +0.000 C 
ATOM     29  C   UNL     1       6.933   4.052  11.901  0.00  0.00    +0.000 C 
ATOM     30  C   UNL     1       6.126   3.228  12.901  0.00  0.00    +0.000 C 
ATOM     31  C   UNL     1       5.531   4.097  14.009  0.00  0.00    +0.000 C 
ATOM     32  C   UNL     1       5.959   5.858  15.765  0.00  0.00    +0.000 C 
ATOM     33  O   UNL     1       5.174   6.768  15.534  0.00  0.00    +0.000 OA
ATOM     34  H   UNL     1       8.178   3.525  15.227  0.00  0.00    +0.000 HD
ENDBRANCH  21  22
ENDBRANCH   2  21
TORSDOF 7
ENDMDL
MODEL 7
REMARK VINA RESULT:      -7.5      1.590      1.932
REMARK  Name = 
REMARK  8 active torsions:
REMARK  status: ('A' for Active; 'I' for Inactive)
REMARK    1  A    between atoms: C_1  and  C_2
REMARK    2  A    between atoms: C_2  and  C_3
REMARK    3  A    between atoms: C_3  and  N_4
REMARK    4  A    between atoms: N_4  and  C_5
REMARK    5  A    between atoms: C_5  and  C_6
REMARK    6  A    between atoms: N_8  and  C_9
REMARK    7  A    between atoms: C_18  and  C_20
REMARK    8  A    between atoms: C_20  and  N_21
REMARK                            x       y       z     vdW  Elec       q    Type
REMARK                         _______ _______ _______ _____ _____    ______ ____
ROOT
ATOM      1  N   UNL     1       4.220   4.610  19.052  0.00  0.00    +0.000 N 
ATOM      2  C   UNL     1       5.551   5.032  19.175  0.00  0.00    +0.000 C 
ATOM      3  O   UNL     1       6.313   4.494  19.985  0.00  0.00    +0.000 OA
ENDROOT
BRANCH   1   4
ATOM      4  C   UNL     1       3.787   3.517  19.927  0.00  0.00    +0.000 C 
BRANCH   4   6
ATOM      5  C   UNL     1       3.457   1.509  18.373  0.00  0.00    +0.000 C 
ATOM      6  C   UNL     1       2.803   2.545  19.269  0.00  0.00    +0.000 C 
ENDBRANCH   4   6
ENDBRANCH   1   4
BRANCH   1   7
ATOM      7  C   UNL     1       3.303   5.160  18.043  0.00  0.00    +0.000 C 
BRANCH   7   8
ATOM      8  C   UNL     1       2.280   6.258  18.344  0.00  0.00    +0.000 C 
ATOM      9  O   UNL     1       1.282   6.409  17.635  0.00  0.00    +0.000 OA
ATOM     10  N   UNL     1       2.588   7.059  19.435  0.00  0.00    +0.000 N 
ATOM     11  H   UNL     1       3.578   7.217  19.601  0.00  0.00    +0.000 HD
BRANCH  10  12
ATOM     12  C   UNL     1       1.718   8.112  19.811  0.00  0.00    +0.000 A 
ATOM     13  C   UNL     1       0.971   8.047  20.995  0.00  0.00    +0.000 A 
ATOM     14  C   UNL     1       0.024   9.035  21.277  0.00  0.00    +0.000 A 
ATOM     15  C   UNL     1      -0.174  10.072  20.370  0.00  0.00    +0.000 A 
ATOM     16  F   UNL     1      -1.131  10.980  20.615  0.00  0.00    +0.000 F 
ATOM     17  C   UNL     1       0.597  10.165  19.217  0.00  0.00    +0.000 A 
ATOM     18  F   UNL     1       0.384  11.156  18.343  0.00  0.00    +0.000 F 
ATOM     19  C   UNL     1       1.565   9.202  18.956  0.00  0.00    +0.000 A 
ATOM     20  F   UNL     1       2.296   9.270  17.832  0.00  0.00    +0.000 F 
ENDBRANCH  10  12
ENDBRANCH   7   8
ENDBRANCH   1   7
BRANCH   2  21
ATOM     21  C   UNL     1       6.107   6.110  18.229  0.00  0.00    +0.000 C 
BRANCH  21  22
ATOM     22  N   UNL     1       6.471   5.504  16.965  0.00  0.00    +0.000 N 
ATOM     23  C   UNL     1       7.454   4.574  16.821  0.00  0.00    +0.000 C 
ATOM     24  O   UNL     1       8.233   4.168  17.666  0.00  0.00    +0.000 OA
ATOM     25  N   UNL     1       7.494   4.183  15.503  0.00  0.00    +0.000 N 
ATOM     26  C   UNL     1       6.606   4.954  14.666  0.00  0.00    +0.000 C 
ATOM     27  C   UNL     1       7.375   5.776  13.631  0.00  0.00    +0.000 C 
ATOM     28  C   UNL     1       7.962   4.890  12.532  0.00  0.00    +0.000 C 
ATOM     29  C   UNL     1       6.893   4.014  11.879  0.00  0.00    +0.000 C 
ATOM     30  C   UNL     1       6.105   3.202  12.903  0.00  0.00    +0.000 C 
ATOM     31  C   UNL     1       5.529   4.083  14.012  0.00  0.00    +0.000 C 
ATOM     32  C   UNL     1       5.987   5.864  15.739  0.00  0.00    +0.000 C 
ATOM     33  O   UNL     1       5.198   6.771  15.512  0.00  0.00    +0.000 OA
ATOM     34  H   UNL     1       8.198   3.527  15.188  0.00  0.00    +0.000 HD
ENDBRANCH  21  22
ENDBRANCH   2  21
TORSDOF 7
ENDMDL
MODEL 8
REMARK VINA RESULT:      -7.4      3.595      8.183
REMARK  Name = 
REMARK  8 active torsions:
REMARK  status: ('A' for Active; 'I' for Inactive)
REMARK    1  A    between atoms: C_1  and  C_2
REMARK    2  A    between atoms: C_2  and  C_3
REMARK    3  A    between atoms: C_3  and  N_4
REMARK    4  A    between atoms: N_4  and  C_5
REMARK    5  A    between atoms: C_5  and  C_6
REMARK    6  A    between atoms: N_8  and  C_9
REMARK    7  A    between atoms: C_18  and  C_20
REMARK    8  A    between atoms: C_20  and  N_21
REMARK                            x       y       z     vdW  Elec       q    Type
REMARK                         _______ _______ _______ _____ _____    ______ ____
ROOT
ATOM      1  N   UNL     1       1.962   4.475  20.517  0.00  0.00    +0.000 N 
ATOM      2  C   UNL     1       1.366   5.742  20.567  0.00  0.00    +0.000 C 
ATOM      3  O   UNL     1       0.140   5.869  20.476  0.00  0.00    +0.000 OA
ENDROOT
BRANCH   1   4
ATOM      4  C   UNL     1       1.068   3.327  20.347  0.00  0.00    +0.000 C 
BRANCH   4   6
ATOM      5  C   UNL     1       1.875   1.815  18.444  0.00  0.00    +0.000 C 
ATOM      6  C   UNL     1       0.893   2.883  18.892  0.00  0.00    +0.000 C 
ENDBRANCH   4   6
ENDBRANCH   1   4
BRANCH   1   7
ATOM      7  C   UNL     1       3.405   4.269  20.707  0.00  0.00    +0.000 C 
BRANCH   7   8
ATOM      8  C   UNL     1       4.388   4.073  19.550  0.00  0.00    +0.000 C 
ATOM      9  O   UNL     1       5.148   3.101  19.519  0.00  0.00    +0.000 OA
ATOM     10  N   UNL     1       4.365   5.073  18.589  0.00  0.00    +0.000 N 
ATOM     11  H   UNL     1       4.147   6.006  18.927  0.00  0.00    +0.000 HD
BRANCH  10  12
ATOM     12  C   UNL     1       5.232   5.003  17.470  0.00  0.00    +0.000 A 
ATOM     13  C   UNL     1       6.498   5.603  17.495  0.00  0.00    +0.000 A 
ATOM     14  C   UNL     1       7.278   5.632  16.336  0.00  0.00    +0.000 A 
ATOM     15  C   UNL     1       6.783   5.072  15.163  0.00  0.00    +0.000 A 
ATOM     16  F   UNL     1       7.508   5.163  14.038  0.00  0.00    +0.000 F 
ATOM     17  C   UNL     1       5.547   4.435  15.146  0.00  0.00    +0.000 A 
ATOM     18  F   UNL     1       5.072   3.916  14.007  0.00  0.00    +0.000 F 
ATOM     19  C   UNL     1       4.788   4.373  16.309  0.00  0.00    +0.000 A 
ATOM     20  F   UNL     1       3.583   3.783  16.295  0.00  0.00    +0.000 F 
ENDBRANCH  10  12
ENDBRANCH   7   8
ENDBRANCH   1   7
BRANCH   2  21
ATOM     21  C   UNL     1       2.228   6.989  20.834  0.00  0.00    +0.000 C 
BRANCH  21  22
ATOM     22  N   UNL     1       1.700   8.110  20.084  0.00  0.00    +0.000 N 
ATOM     23  C   UNL     1       1.999   8.363  18.781  0.00  0.00    +0.000 C 
ATOM     24  O   UNL     1       2.795   7.780  18.066  0.00  0.00    +0.000 OA
ATOM     25  N   UNL     1       1.289   9.471  18.379  0.00  0.00    +0.000 N 
ATOM     26  C   UNL     1       0.573  10.098  19.464  0.00  0.00    +0.000 C 
ATOM     27  C   UNL     1       1.096  11.506  19.750  0.00  0.00    +0.000 C 
ATOM     28  C   UNL     1       0.690  12.490  18.652  0.00  0.00    +0.000 C 
ATOM     29  C   UNL     1      -0.819  12.484  18.415  0.00  0.00    +0.000 C 
ATOM     30  C   UNL     1      -1.358  11.081  18.146  0.00  0.00    +0.000 C 
ATOM     31  C   UNL     1      -0.942  10.091  19.234  0.00  0.00    +0.000 C 
ATOM     32  C   UNL     1       0.951   9.132  20.598  0.00  0.00    +0.000 C 
ATOM     33  O   UNL     1       0.635   9.276  21.771  0.00  0.00    +0.000 OA
ATOM     34  H   UNL     1       1.416   9.846  17.447  0.00  0.00    +0.000 HD
ENDBRANCH  21  22
ENDBRANCH   2  21
TORSDOF 7
ENDMDL
MODEL 9
REMARK VINA RESULT:      -7.4      1.501      2.267
REMARK  Name = 
REMARK  8 active torsions:
REMARK  status: ('A' for Active; 'I' for Inactive)
REMARK    1  A    between atoms: C_1  and  C_2
REMARK    2  A    between atoms: C_2  and  C_3
REMARK    3  A    between atoms: C_3  and  N_4
REMARK    4  A    between atoms: N_4  and  C_5
REMARK    5  A    between atoms: C_5  and  C_6
REMARK    6  A    between atoms: N_8  and  C_9
REMARK    7  A    between atoms: C_18  and  C_20
REMARK    8  A    between atoms: C_20  and  N_21
REMARK                            x       y       z     vdW  Elec       q    Type
REMARK                         _______ _______ _______ _____ _____    ______ ____
ROOT
ATOM      1  N   UNL     1       3.741   5.812  19.009  0.00  0.00    +0.000 N 
ATOM      2  C   UNL     1       5.069   5.390  18.856  0.00  0.00    +0.000 C 
ATOM      3  O   UNL     1       5.423   4.266  19.229  0.00  0.00    +0.000 OA
ENDROOT
BRANCH   1   4
ATOM      4  C   UNL     1       2.811   4.864  19.629  0.00  0.00    +0.000 C 
BRANCH   4   6
ATOM      5  C   UNL     1       2.290   3.337  17.640  0.00  0.00    +0.000 C 
ATOM      6  C   UNL     1       1.751   4.313  18.670  0.00  0.00    +0.000 C 
ENDBRANCH   4   6
ENDBRANCH   1   4
BRANCH   1   7
ATOM      7  C   UNL     1       3.255   7.104  18.503  0.00  0.00    +0.000 C 
BRANCH   7   8
ATOM      8  C   UNL     1       2.206   7.951  19.228  0.00  0.00    +0.000 C 
ATOM      9  O   UNL     1       1.747   7.599  20.317  0.00  0.00    +0.000 OA
ATOM     10  N   UNL     1       1.812   9.097  18.552  0.00  0.00    +0.000 N 
ATOM     11  H   UNL     1       1.812   9.033  17.538  0.00  0.00    +0.000 HD
BRANCH  10  12
ATOM     12  C   UNL     1       0.845   9.961  19.122  0.00  0.00    +0.000 A 
ATOM     13  C   UNL     1       1.077  10.601  20.347  0.00  0.00    +0.000 A 
ATOM     14  C   UNL     1       0.057  11.343  20.949  0.00  0.00    +0.000 A 
ATOM     15  C   UNL     1      -1.186  11.429  20.329  0.00  0.00    +0.000 A 
ATOM     16  F   UNL     1      -2.179  12.085  20.945  0.00  0.00    +0.000 F 
ATOM     17  C   UNL     1      -1.405  10.833  19.092  0.00  0.00    +0.000 A 
ATOM     18  F   UNL     1      -2.610  10.906  18.513  0.00  0.00    +0.000 F 
ATOM     19  C   UNL     1      -0.378  10.128  18.475  0.00  0.00    +0.000 A 
ATOM     20  F   UNL     1      -0.589   9.528  17.293  0.00  0.00    +0.000 F 
ENDBRANCH  10  12
ENDBRANCH   7   8
ENDBRANCH   1   7
BRANCH   2  21
ATOM     21  C   UNL     1       6.084   6.291  18.133  0.00  0.00    +0.000 C 
BRANCH  21  22
ATOM     22  N   UNL     1       6.119   5.947  16.726  0.00  0.00    +0.000 N 
ATOM     23  C   UNL     1       5.268   6.459  15.796  0.00  0.00    +0.000 C 
ATOM     24  O   UNL     1       4.309   7.190  15.976  0.00  0.00    +0.000 OA
ATOM     25  N   UNL     1       5.616   5.957  14.563  0.00  0.00    +0.000 N 
ATOM     26  C   UNL     1       6.656   4.959  14.643  0.00  0.00    +0.000 C 
ATOM     27  C   UNL     1       6.159   3.585  14.192  0.00  0.00    +0.000 C 
ATOM     28  C   UNL     1       5.950   3.532  12.678  0.00  0.00    +0.000 C 
ATOM     29  C   UNL     1       7.205   3.958  11.917  0.00  0.00    +0.000 C 
ATOM     30  C   UNL     1       7.723   5.320  12.371  0.00  0.00    +0.000 C 
ATOM     31  C   UNL     1       7.919   5.382  13.886  0.00  0.00    +0.000 C 
ATOM     32  C   UNL     1       6.902   4.982  16.160  0.00  0.00    +0.000 C 
ATOM     33  O   UNL     1       7.672   4.237  16.751  0.00  0.00    +0.000 OA
ATOM     34  H   UNL     1       5.065   6.186  13.745  0.00  0.00    +0.000 HD
ENDBRANCH  21  22
ENDBRANCH   2  21
TORSDOF 7
ENDMDL
