MODEL 1
REMARK VINA RESULT:      -8.2      0.000      0.000
REMARK  Name = 
REMARK  9 active torsions:
REMARK  status: ('A' for Active; 'I' for Inactive)
REMARK    1  A    between atoms: C_1  and  O_2
REMARK    2  A    between atoms: O_2  and  C_3
REMARK    3  A    between atoms: C_6  and  N_7
REMARK    4  A    between atoms: C_8  and  C_10
REMARK    5  A    between atoms: C_10  and  C_11
REMARK    6  A    between atoms: C_14  and  N_15
REMARK    7  A    between atoms: C_16  and  C_18
REMARK    8  A    between atoms: C_21  and  O_22
REMARK    9  A    between atoms: O_22  and  C_23
REMARK                            x       y       z     vdW  Elec       q    Type
REMARK                         _______ _______ _______ _____ _____    ______ ____
ROOT
ATOM      1  C   UNL     1       2.153   5.963  19.859  0.00  0.00    +0.000 A 
ATOM      2  C   UNL     1       1.417   6.196  21.030  0.00  0.00    +0.000 A 
ATOM      3  C   UNL     1       0.930   7.474  21.343  0.00  0.00    +0.000 A 
ATOM      4  C   UNL     1       1.150   8.555  20.491  0.00  0.00    +0.000 A 
ATOM      5  C   UNL     1       1.873   8.340  19.322  0.00  0.00    +0.000 A 
ATOM      6  C   UNL     1       2.370   7.067  19.015  0.00  0.00    +0.000 A 
ENDROOT
BRANCH   1   7
ATOM      7  C   UNL     1       2.589   4.552  19.431  0.00  0.00    +0.000 C 
ATOM      8  C   UNL     1       1.503   3.706  18.731  0.00  0.00    +0.000 C 
ATOM      9  C   UNL     1       0.622   3.182  19.871  0.00  0.00    +0.000 C 
ATOM     10  C   UNL     1       1.545   3.026  21.072  0.00  0.00    +0.000 C 
ATOM     11  C   UNL     1       2.882   3.592  20.627  0.00  0.00    +0.000 C 
BRANCH   7  13
ATOM     12  N   UNL     1       3.863   4.874  17.291  0.00  0.00    +0.000 N 
ATOM     13  C   UNL     1       3.927   4.671  18.664  0.00  0.00    +0.000 C 
ATOM     14  O   UNL     1       4.978   4.680  19.309  0.00  0.00    +0.000 OA
ATOM     15  H   UNL     1       2.974   5.139  16.888  0.00  0.00    +0.000 HD
BRANCH  12  19
ATOM     16  C   UNL     1       7.224   5.101  14.697  0.00  0.00    +0.000 A 
ATOM     17  C   UNL     1       7.035   6.062  15.682  0.00  0.00    +0.000 A 
ATOM     18  C   UNL     1       5.953   5.971  16.557  0.00  0.00    +0.000 A 
ATOM     19  C   UNL     1       5.010   4.946  16.450  0.00  0.00    +0.000 A 
ATOM     20  C   UNL     1       5.211   3.968  15.467  0.00  0.00    +0.000 A 
ATOM     21  C   UNL     1       6.312   4.052  14.589  0.00  0.00    +0.000 A 
BRANCH  16  23
ATOM     22  C   UNL     1       8.018   5.551  12.515  0.00  0.00    +0.000 C 
ATOM     23  O   UNL     1       8.301   5.329  13.888  0.00  0.00    +0.000 OA
ENDBRANCH  16  23
ENDBRANCH  12  19
ENDBRANCH   7  13
ENDBRANCH   1   7
BRANCH   4  24
ATOM     24  N   UNL     1       0.630   9.848  20.715  0.00  0.00    +0.000 N 
ATOM     25  C   UNL     1       0.363  10.416  21.949  0.00  0.00    +0.000 C 
ATOM     26  O   UNL     1       0.660   9.930  23.036  0.00  0.00    +0.000 OA
ATOM     27  H   UNL     1       0.414  10.380  19.881  0.00  0.00    +0.000 HD
BRANCH  25  28
ATOM     28  C   UNL     1      -0.374  11.715  21.951  0.00  0.00    +0.000 A 
ATOM     29  C   UNL     1      -1.336  11.894  22.954  0.00  0.00    +0.000 A 
ATOM     30  C   UNL     1      -2.096  13.062  23.007  0.00  0.00    +0.000 A 
ATOM     31  C   UNL     1      -1.891  14.078  22.077  0.00  0.00    +0.000 A 
ATOM     32  C   UNL     1      -0.923  13.917  21.083  0.00  0.00    +0.000 A 
ATOM     33  C   UNL     1      -0.161  12.739  21.021  0.00  0.00    +0.000 A 
BRANCH  31  34
ATOM     34  O   UNL     1      -2.723  15.153  22.210  0.00  0.00    +0.000 OA
ATOM     35  C   UNL     1      -2.772  15.749  23.501  0.00  0.00    +0.000 C 
ENDBRANCH  31  34
ENDBRANCH  25  28
ENDBRANCH   4  24
TORSDOF 7
ENDMDL
MODEL 2
REMARK VINA RESULT:      -8.2      1.525      1.898
REMARK  Name = 
REMARK  9 active torsions:
REMARK  status: ('A' for Active; 'I' for Inactive)
REMARK    1  A    between atoms: C_1  and  O_2
REMARK    2  A    between atoms: O_2  and  C_3
REMARK    3  A    between atoms: C_6  and  N_7
REMARK    4  A    between atoms: C_8  and  C_10
REMARK    5  A    between atoms: C_10  and  C_11
REMARK    6  A    between atoms: C_14  and  N_15
REMARK    7  A    between atoms: C_16  and  C_18
REMARK    8  A    between atoms: C_21  and  O_22
REMARK    9  A    between atoms: O_22  and  C_23
REMARK                            x       y       z     vdW  Elec       q    Type
REMARK                         _______ _______ _______ _____ _____    ______ ____
ROOT
ATOM      1  C   UNL     1       2.185   6.104  19.782  0.00  0.00    +0.000 A 
ATOM      2  C   UNL     1       1.527   6.485  20.960  0.00  0.00    +0.000 A 
ATOM      3  C   UNL     1       1.103   7.807  21.164  0.00  0.00    +0.000 A 
ATOM      4  C   UNL     1       1.309   8.785  20.192  0.00  0.00    +0.000 A 
ATOM      5  C   UNL     1       1.955   8.422  19.014  0.00  0.00    +0.000 A 
ATOM      6  C   UNL     1       2.388   7.105  18.815  0.00  0.00    +0.000 A 
ENDROOT
BRANCH   1   7
ATOM      7  C   UNL     1       2.547   4.640  19.481  0.00  0.00    +0.000 C 
ATOM      8  C   UNL     1       1.409   3.785  18.882  0.00  0.00    +0.000 C 
ATOM      9  C   UNL     1       0.528   3.412  20.081  0.00  0.00    +0.000 C 
ATOM     10  C   UNL     1       1.468   3.325  21.276  0.00  0.00    +0.000 C 
ATOM     11  C   UNL     1       2.820   3.783  20.757  0.00  0.00    +0.000 C 
BRANCH   7  13
ATOM     12  N   UNL     1       3.840   5.092  17.377  0.00  0.00    +0.000 N 
ATOM     13  C   UNL     1       3.872   4.623  18.684  0.00  0.00    +0.000 C 
ATOM     14  O   UNL     1       4.907   4.291  19.268  0.00  0.00    +0.000 OA
ATOM     15  H   UNL     1       3.024   5.607  17.073  0.00  0.00    +0.000 HD
BRANCH  12  19
ATOM     16  C   UNL     1       7.144   5.076  14.701  0.00  0.00    +0.000 A 
ATOM     17  C   UNL     1       7.009   6.091  15.639  0.00  0.00    +0.000 A 
ATOM     18  C   UNL     1       5.946   6.081  16.541  0.00  0.00    +0.000 A 
ATOM     19  C   UNL     1       4.969   5.083  16.509  0.00  0.00    +0.000 A 
ATOM     20  C   UNL     1       5.116   4.050  15.573  0.00  0.00    +0.000 A 
ATOM     21  C   UNL     1       6.198   4.053  14.668  0.00  0.00    +0.000 A 
BRANCH  16  23
ATOM     22  C   UNL     1       7.902   5.351  12.477  0.00  0.00    +0.000 C 
ATOM     23  O   UNL     1       8.208   5.226  13.858  0.00  0.00    +0.000 OA
ENDBRANCH  16  23
ENDBRANCH  12  19
ENDBRANCH   7  13
ENDBRANCH   1   7
BRANCH   4  24
ATOM     24  N   UNL     1       0.847  10.114  20.307  0.00  0.00    +0.000 N 
ATOM     25  C   UNL     1      -0.276  10.641  19.693  0.00  0.00    +0.000 C 
ATOM     26  O   UNL     1      -1.111   9.999  19.063  0.00  0.00    +0.000 OA
ATOM     27  H   UNL     1       1.423  10.727  20.871  0.00  0.00    +0.000 HD
BRANCH  25  28
ATOM     28  C   UNL     1      -0.466  12.120  19.785  0.00  0.00    +0.000 A 
ATOM     29  C   UNL     1       0.583  12.922  19.315  0.00  0.00    +0.000 A 
ATOM     30  C   UNL     1       0.504  14.312  19.398  0.00  0.00    +0.000 A 
ATOM     31  C   UNL     1      -0.631  14.923  19.926  0.00  0.00    +0.000 A 
ATOM     32  C   UNL     1      -1.689  14.133  20.381  0.00  0.00    +0.000 A 
ATOM     33  C   UNL     1      -1.610  12.733  20.308  0.00  0.00    +0.000 A 
BRANCH  31  34
ATOM     34  O   UNL     1      -0.571  16.286  19.988  0.00  0.00    +0.000 OA
ATOM     35  C   UNL     1      -0.929  16.982  18.801  0.00  0.00    +0.000 C 
ENDBRANCH  31  34
ENDBRANCH  25  28
ENDBRANCH   4  24
TORSDOF 7
ENDMDL
MODEL 3
REMARK VINA RESULT:      -8.1      3.131     11.677
REMARK  Name = 
REMARK  9 active torsions:
REMARK  status: ('A' for Active; 'I' for Inactive)
REMARK    1  A    between atoms: C_1  and  O_2
REMARK    2  A    between atoms: O_2  and  C_3
REMARK    3  A    between atoms: C_6  and  N_7
REMARK    4  A    between atoms: C_8  and  C_10
REMARK    5  A    between atoms: C_10  and  C_11
REMARK    6  A    between atoms: C_14  and  N_15
REMARK    7  A    between atoms: C_16  and  C_18
REMARK    8  A    between atoms: C_21  and  O_22
REMARK    9  A    between atoms: O_22  and  C_23
REMARK                            x       y       z     vdW  Elec       q    Type
REMARK                         _______ _______ _______ _____ _____    ______ ____
ROOT
ATOM      1  C   UNL     1       0.267  11.850  18.949  0.00  0.00    +0.000 A 
ATOM      2  C   UNL     1      -0.525  10.783  18.502  0.00  0.00    +0.000 A 
ATOM      3  C   UNL     1       0.052   9.605  18.002  0.00  0.00    +0.000 A 
ATOM      4  C   UNL     1       1.436   9.451  17.948  0.00  0.00    +0.000 A 
ATOM      5  C   UNL     1       2.237  10.498  18.393  0.00  0.00    +0.000 A 
ATOM      6  C   UNL     1       1.661  11.679  18.881  0.00  0.00    +0.000 A 
ENDROOT
BRANCH   1   7
ATOM      7  C   UNL     1      -0.337  13.097  19.615  0.00  0.00    +0.000 C 
ATOM      8  C   UNL     1      -0.452  14.343  18.710  0.00  0.00    +0.000 C 
ATOM      9  C   UNL     1       0.962  14.936  18.681  0.00  0.00    +0.000 C 
ATOM     10  C   UNL     1       1.581  14.601  20.032  0.00  0.00    +0.000 C 
ATOM     11  C   UNL     1       0.564  13.715  20.730  0.00  0.00    +0.000 C 
BRANCH   7  13
ATOM     12  N   UNL     1      -2.835  13.209  19.846  0.00  0.00    +0.000 N 
ATOM     13  C   UNL     1      -1.644  12.680  20.328  0.00  0.00    +0.000 C 
ATOM     14  O   UNL     1      -1.584  11.829  21.220  0.00  0.00    +0.000 OA
ATOM     15  H   UNL     1      -2.825  13.666  18.944  0.00  0.00    +0.000 HD
BRANCH  12  19
ATOM     16  C   UNL     1      -6.609  12.351  21.607  0.00  0.00    +0.000 A 
ATOM     17  C   UNL     1      -5.652  13.064  22.317  0.00  0.00    +0.000 A 
ATOM     18  C   UNL     1      -4.427  13.378  21.730  0.00  0.00    +0.000 A 
ATOM     19  C   UNL     1      -4.106  12.957  20.438  0.00  0.00    +0.000 A 
ATOM     20  C   UNL     1      -5.078  12.251  19.716  0.00  0.00    +0.000 A 
ATOM     21  C   UNL     1      -6.323  11.945  20.304  0.00  0.00    +0.000 A 
BRANCH  16  23
ATOM     22  C   UNL     1      -7.915  12.793  23.528  0.00  0.00    +0.000 C 
ATOM     23  O   UNL     1      -7.748  12.082  22.311  0.00  0.00    +0.000 OA
ENDBRANCH  16  23
ENDBRANCH  12  19
ENDBRANCH   7  13
ENDBRANCH   1   7
BRANCH   4  24
ATOM     24  N   UNL     1       2.078   8.268  17.520  0.00  0.00    +0.000 N 
ATOM     25  C   UNL     1       2.644   7.308  18.341  0.00  0.00    +0.000 C 
ATOM     26  O   UNL     1       2.559   7.276  19.564  0.00  0.00    +0.000 OA
ATOM     27  H   UNL     1       2.142   8.147  16.517  0.00  0.00    +0.000 HD
BRANCH  25  28
ATOM     28  C   UNL     1       3.449   6.240  17.676  0.00  0.00    +0.000 A 
ATOM     29  C   UNL     1       4.586   6.654  16.967  0.00  0.00    +0.000 A 
ATOM     30  C   UNL     1       5.373   5.727  16.287  0.00  0.00    +0.000 A 
ATOM     31  C   UNL     1       5.055   4.371  16.321  0.00  0.00    +0.000 A 
ATOM     32  C   UNL     1       3.934   3.946  17.038  0.00  0.00    +0.000 A 
ATOM     33  C   UNL     1       3.133   4.878  17.718  0.00  0.00    +0.000 A 
BRANCH  31  34
ATOM     34  O   UNL     1       5.879   3.570  15.583  0.00  0.00    +0.000 OA
ATOM     35  C   UNL     1       6.536   4.191  14.485  0.00  0.00    +0.000 C 
ENDBRANCH  31  34
ENDBRANCH  25  28
ENDBRANCH   4  24
TORSDOF 7
ENDMDL
MODEL 4
REMARK VINA RESULT:      -8.1      1.477      2.054
REMARK  Name = 
REMARK  9 active torsions:
REMARK  status: ('A' for Active; 'I' for Inactive)
REMARK    1  A    between atoms: C_1  and  O_2
REMARK    2  A    between atoms: O_2  and  C_3
REMARK    3  A    between atoms: C_6  and  N_7
REMARK    4  A    between atoms: C_8  and  C_10
REMARK    5  A    between atoms: C_10  and  C_11
REMARK    6  A    between atoms: C_14  and  N_15
REMARK    7  A    between atoms: C_16  and  C_18
REMARK    8  A    between atoms: C_21  and  O_22
REMARK    9  A    between atoms: O_22  and  C_23
REMARK                            x       y       z     vdW  Elec       q    Type
REMARK                         _______ _______ _______ _____ _____    ______ ____
ROOT
ATOM      1  C   UNL     1       2.075   5.959  19.466  0.00  0.00    +0.000 A 
ATOM      2  C   UNL     1       2.147   6.903  18.432  0.00  0.00    +0.000 A 
ATOM      3  C   UNL     1       1.804   8.247  18.645  0.00  0.00    +0.000 A 
ATOM      4  C   UNL     1       1.393   8.692  19.900  0.00  0.00    +0.000 A 
ATOM      5  C   UNL     1       1.322   7.769  20.940  0.00  0.00    +0.000 A 
ATOM      6  C   UNL     1       1.653   6.426  20.724  0.00  0.00    +0.000 A 
ENDROOT
BRANCH   1   7
ATOM      7  C   UNL     1       2.564   4.512  19.291  0.00  0.00    +0.000 C 
ATOM      8  C   UNL     1       1.521   3.523  18.725  0.00  0.00    +0.000 C 
ATOM      9  C   UNL     1       0.630   3.169  19.922  0.00  0.00    +0.000 C 
ATOM     10  C   UNL     1       1.528   3.251  21.148  0.00  0.00    +0.000 C 
ATOM     11  C   UNL     1       2.857   3.778  20.638  0.00  0.00    +0.000 C 
BRANCH   7  13
ATOM     12  N   UNL     1       3.906   4.988  17.223  0.00  0.00    +0.000 N 
ATOM     13  C   UNL     1       3.915   4.545  18.539  0.00  0.00    +0.000 C 
ATOM     14  O   UNL     1       4.944   4.274  19.164  0.00  0.00    +0.000 OA
ATOM     15  H   UNL     1       3.077   5.457  16.882  0.00  0.00    +0.000 HD
BRANCH  12  19
ATOM     16  C   UNL     1       7.297   5.096  14.661  0.00  0.00    +0.000 A 
ATOM     17  C   UNL     1       7.149   6.044  15.664  0.00  0.00    +0.000 A 
ATOM     18  C   UNL     1       6.056   5.991  16.528  0.00  0.00    +0.000 A 
ATOM     19  C   UNL     1       5.063   5.018  16.393  0.00  0.00    +0.000 A 
ATOM     20  C   UNL     1       5.223   4.052  15.391  0.00  0.00    +0.000 A 
ATOM     21  C   UNL     1       6.335   4.097  14.524  0.00  0.00    +0.000 A 
BRANCH  16  23
ATOM     22  C   UNL     1       8.135   5.712  12.537  0.00  0.00    +0.000 C 
ATOM     23  O   UNL     1       8.392   5.285  13.865  0.00  0.00    +0.000 OA
ENDBRANCH  16  23
ENDBRANCH  12  19
ENDBRANCH   7  13
ENDBRANCH   1   7
BRANCH   4  24
ATOM     24  N   UNL     1       1.099  10.041  20.197  0.00  0.00    +0.000 N 
ATOM     25  C   UNL     1      -0.066  10.711  19.866  0.00  0.00    +0.000 C 
ATOM     26  O   UNL     1      -1.070  10.199  19.383  0.00  0.00    +0.000 OA
ATOM     27  H   UNL     1       1.834  10.552  20.669  0.00  0.00    +0.000 HD
BRANCH  25  28
ATOM     28  C   UNL     1      -0.085  12.187  20.095  0.00  0.00    +0.000 A 
ATOM     29  C   UNL     1      -0.318  12.997  18.975  0.00  0.00    +0.000 A 
ATOM     30  C   UNL     1      -0.316  14.386  19.092  0.00  0.00    +0.000 A 
ATOM     31  C   UNL     1      -0.106  14.989  20.330  0.00  0.00    +0.000 A 
ATOM     32  C   UNL     1       0.110  14.191  21.456  0.00  0.00    +0.000 A 
ATOM     33  C   UNL     1       0.118  12.791  21.341  0.00  0.00    +0.000 A 
BRANCH  31  34
ATOM     34  O   UNL     1      -0.087  16.355  20.307  0.00  0.00    +0.000 OA
ATOM     35  C   UNL     1       0.291  16.954  19.074  0.00  0.00    +0.000 C 
ENDBRANCH  31  34
ENDBRANCH  25  28
ENDBRANCH   4  24
TORSDOF 7
ENDMDL
MODEL 5
REMARK VINA RESULT:      -8.0      1.891      2.246
REMARK  Name = 
REMARK  9 active torsions:
REMARK  status: ('A' for Active; 'I' for Inactive)
REMARK    1  A    between atoms: C_1  and  O_2
REMARK    2  A    between atoms: O_2  and  C_3
REMARK    3  A    between atoms: C_6  and  N_7
REMARK    4  A    between atoms: C_8  and  C_10
REMARK    5  A    between atoms: C_10  and  C_11
REMARK    6  A    between atoms: C_14  and  N_15
REMARK    7  A    between atoms: C_16  and  C_18
REMARK    8  A    between atoms: C_21  and  O_22
REMARK    9  A    between atoms: O_22  and  C_23
REMARK                            x       y       z     vdW  Elec       q    Type
REMARK                         _______ _______ _______ _____ _____    ______ ____
ROOT
ATOM      1  C   UNL     1       2.074   5.711  19.648  0.00  0.00    +0.000 A 
ATOM      2  C   UNL     1       1.469   6.111  20.848  0.00  0.00    +0.000 A 
ATOM      3  C   UNL     1       1.169   7.458  21.101  0.00  0.00    +0.000 A 
ATOM      4  C   UNL     1       1.449   8.445  20.158  0.00  0.00    +0.000 A 
ATOM      5  C   UNL     1       2.044   8.065  18.959  0.00  0.00    +0.000 A 
ATOM      6  C   UNL     1       2.355   6.722  18.711  0.00  0.00    +0.000 A 
ENDROOT
BRANCH   1   7
ATOM      7  C   UNL     1       2.298   4.231  19.295  0.00  0.00    +0.000 C 
ATOM      8  C   UNL     1       1.074   3.310  19.492  0.00  0.00    +0.000 C 
ATOM      9  C   UNL     1       1.032   3.033  20.999  0.00  0.00    +0.000 C 
ATOM     10  C   UNL     1       2.480   3.068  21.469  0.00  0.00    +0.000 C 
ATOM     11  C   UNL     1       3.286   3.497  20.255  0.00  0.00    +0.000 C 
BRANCH   7  13
ATOM     12  N   UNL     1       4.273   4.591  17.786  0.00  0.00    +0.000 N 
ATOM     13  C   UNL     1       2.956   4.162  17.897  0.00  0.00    +0.000 C 
ATOM     14  O   UNL     1       2.325   3.642  16.974  0.00  0.00    +0.000 OA
ATOM     15  H   UNL     1       4.804   4.730  18.636  0.00  0.00    +0.000 HD
BRANCH  12  19
ATOM     16  C   UNL     1       6.479   4.782  14.156  0.00  0.00    +0.000 A 
ATOM     17  C   UNL     1       6.221   3.555  14.754  0.00  0.00    +0.000 A 
ATOM     18  C   UNL     1       5.468   3.486  15.926  0.00  0.00    +0.000 A 
ATOM     19  C   UNL     1       4.985   4.636  16.554  0.00  0.00    +0.000 A 
ATOM     20  C   UNL     1       5.231   5.872  15.940  0.00  0.00    +0.000 A 
ATOM     21  C   UNL     1       5.982   5.943  14.748  0.00  0.00    +0.000 A 
BRANCH  16  23
ATOM     22  C   UNL     1       6.930   3.682  12.112  0.00  0.00    +0.000 C 
ATOM     23  O   UNL     1       7.255   4.710  13.035  0.00  0.00    +0.000 OA
ENDBRANCH  16  23
ENDBRANCH  12  19
ENDBRANCH   7  13
ENDBRANCH   1   7
BRANCH   4  24
ATOM     24  N   UNL     1       1.111   9.806  20.322  0.00  0.00    +0.000 N 
ATOM     25  C   UNL     1       0.312  10.553  19.475  0.00  0.00    +0.000 C 
ATOM     26  O   UNL     1      -0.329  10.112  18.527  0.00  0.00    +0.000 OA
ATOM     27  H   UNL     1       1.527  10.263  21.124  0.00  0.00    +0.000 HD
BRANCH  25  28
ATOM     28  C   UNL     1       0.251  12.025  19.726  0.00  0.00    +0.000 A 
ATOM     29  C   UNL     1      -0.175  12.830  18.661  0.00  0.00    +0.000 A 
ATOM     30  C   UNL     1      -0.226  14.217  18.798  0.00  0.00    +0.000 A 
ATOM     31  C   UNL     1       0.123  14.820  20.004  0.00  0.00    +0.000 A 
ATOM     32  C   UNL     1       0.532  14.025  21.077  0.00  0.00    +0.000 A 
ATOM     33  C   UNL     1       0.593  12.628  20.942  0.00  0.00    +0.000 A 
BRANCH  31  34
ATOM     34  O   UNL     1       0.070  16.185  19.999  0.00  0.00    +0.000 OA
ATOM     35  C   UNL     1      -0.018  16.810  21.274  0.00  0.00    +0.000 C 
ENDBRANCH  31  34
ENDBRANCH  25  28
ENDBRANCH   4  24
TORSDOF 7
ENDMDL
MODEL 6
REMARK VINA RESULT:      -8.0      3.834     10.315
REMARK  Name = 
REMARK  9 active torsions:
REMARK  status: ('A' for Active; 'I' for Inactive)
REMARK    1  A    between atoms: C_1  and  O_2
REMARK    2  A    between atoms: O_2  and  C_3
REMARK    3  A    between atoms: C_6  and  N_7
REMARK    4  A    between atoms: C_8  and  C_10
REMARK    5  A    between atoms: C_10  and  C_11
REMARK    6  A    between atoms: C_14  and  N_15
REMARK    7  A    between atoms: C_16  and  C_18
REMARK    8  A    between atoms: C_21  and  O_22
REMARK    9  A    between atoms: O_22  and  C_23
REMARK                            x       y       z     vdW  Elec       q    Type
REMARK                         _______ _______ _______ _____ _____    ______ ____
ROOT
ATOM      1  C   UNL     1       0.725  11.322  19.839  0.00  0.00    +0.000 A 
ATOM      2  C   UNL     1       0.722  10.086  20.500  0.00  0.00    +0.000 A 
ATOM      3  C   UNL     1       1.251   8.935  19.897  0.00  0.00    +0.000 A 
ATOM      4  C   UNL     1       1.814   8.986  18.623  0.00  0.00    +0.000 A 
ATOM      5  C   UNL     1       1.832  10.207  17.956  0.00  0.00    +0.000 A 
ATOM      6  C   UNL     1       1.292  11.354  18.552  0.00  0.00    +0.000 A 
ENDROOT
BRANCH   1   7
ATOM      7  C   UNL     1       0.267  12.620  20.524  0.00  0.00    +0.000 C 
ATOM      8  C   UNL     1      -0.524  12.433  21.838  0.00  0.00    +0.000 C 
ATOM      9  C   UNL     1      -1.943  12.066  21.391  0.00  0.00    +0.000 C 
ATOM     10  C   UNL     1      -2.157  12.775  20.060  0.00  0.00    +0.000 C 
ATOM     11  C   UNL     1      -0.818  13.407  19.723  0.00  0.00    +0.000 C 
BRANCH   7  13
ATOM     12  N   UNL     1       1.667  14.478  19.578  0.00  0.00    +0.000 N 
ATOM     13  C   UNL     1       1.481  13.574  20.617  0.00  0.00    +0.000 C 
ATOM     14  O   UNL     1       2.165  13.558  21.643  0.00  0.00    +0.000 OA
ATOM     15  H   UNL     1       0.908  14.619  18.925  0.00  0.00    +0.000 HD
BRANCH  12  19
ATOM     16  C   UNL     1       4.977  17.144  19.461  0.00  0.00    +0.000 A 
ATOM     17  C   UNL     1       5.020  15.945  18.761  0.00  0.00    +0.000 A 
ATOM     18  C   UNL     1       3.923  15.085  18.769  0.00  0.00    +0.000 A 
ATOM     19  C   UNL     1       2.771  15.375  19.503  0.00  0.00    +0.000 A 
ATOM     20  C   UNL     1       2.722  16.593  20.195  0.00  0.00    +0.000 A 
ATOM     21  C   UNL     1       3.826  17.470  20.177  0.00  0.00    +0.000 A 
BRANCH  16  23
ATOM     22  C   UNL     1       7.228  17.258  18.744  0.00  0.00    +0.000 C 
ATOM     23  O   UNL     1       6.129  17.875  19.397  0.00  0.00    +0.000 OA
ENDBRANCH  16  23
ENDBRANCH  12  19
ENDBRANCH   7  13
ENDBRANCH   1   7
BRANCH   4  24
ATOM     24  N   UNL     1       2.424   7.881  17.990  0.00  0.00    +0.000 N 
ATOM     25  C   UNL     1       2.837   6.714  18.609  0.00  0.00    +0.000 C 
ATOM     26  O   UNL     1       2.618   6.412  19.778  0.00  0.00    +0.000 OA
ATOM     27  H   UNL     1       2.589   7.986  16.997  0.00  0.00    +0.000 HD
BRANCH  25  28
ATOM     28  C   UNL     1       3.642   5.761  17.788  0.00  0.00    +0.000 A 
ATOM     29  C   UNL     1       4.621   6.317  16.953  0.00  0.00    +0.000 A 
ATOM     30  C   UNL     1       5.392   5.502  16.125  0.00  0.00    +0.000 A 
ATOM     31  C   UNL     1       5.217   4.120  16.134  0.00  0.00    +0.000 A 
ATOM     32  C   UNL     1       4.256   3.555  16.975  0.00  0.00    +0.000 A 
ATOM     33  C   UNL     1       3.470   4.372  17.805  0.00  0.00    +0.000 A 
BRANCH  31  34
ATOM     34  O   UNL     1       6.004   3.437  15.252  0.00  0.00    +0.000 OA
ATOM     35  C   UNL     1       6.253   4.081  14.009  0.00  0.00    +0.000 C 
ENDBRANCH  31  34
ENDBRANCH  25  28
ENDBRANCH   4  24
TORSDOF 7
ENDMDL
MODEL 7
REMARK VINA RESULT:      -7.9      1.022      1.568
REMARK  Name = 
REMARK  9 active torsions:
REMARK  status: ('A' for Active; 'I' for Inactive)
REMARK    1  A    between atoms: C_1  and  O_2
REMARK    2  A    between atoms: O_2  and  C_3
REMARK    3  A    between atoms: C_6  and  N_7
REMARK    4  A    between atoms: C_8  and  C_10
REMARK    5  A    between atoms: C_10  and  C_11
REMARK    6  A    between atoms: C_14  and  N_15
REMARK    7  A    between atoms: C_16  and  C_18
REMARK    8  A    between atoms: C_21  and  O_22
REMARK    9  A    between atoms: O_22  and  C_23
REMARK                            x       y       z     vdW  Elec       q    Type
REMARK                         _______ _______ _______ _____ _____    ______ ____
ROOT
ATOM      1  C   UNL     1       2.092   5.611  19.689  0.00  0.00    +0.000 A 
ATOM      2  C   UNL     1       2.425   6.752  18.945  0.00  0.00    +0.000 A 
ATOM      3  C   UNL     1       2.082   8.038  19.389  0.00  0.00    +0.000 A 
ATOM      4  C   UNL     1       1.411   8.226  20.596  0.00  0.00    +0.000 A 
ATOM      5  C   UNL     1       1.078   7.104  21.350  0.00  0.00    +0.000 A 
ATOM      6  C   UNL     1       1.410   5.819  20.901  0.00  0.00    +0.000 A 
ENDROOT
BRANCH   1   7
ATOM      7  C   UNL     1       2.564   4.203  19.288  0.00  0.00    +0.000 C 
ATOM      8  C   UNL     1       1.495   3.309  18.622  0.00  0.00    +0.000 C 
ATOM      9  C   UNL     1       0.644   2.787  19.786  0.00  0.00    +0.000 C 
ATOM     10  C   UNL     1       1.586   2.688  20.978  0.00  0.00    +0.000 C 
ATOM     11  C   UNL     1       2.900   3.282  20.502  0.00  0.00    +0.000 C 
BRANCH   7  13
ATOM     12  N   UNL     1       3.821   4.890  17.225  0.00  0.00    +0.000 N 
ATOM     13  C   UNL     1       3.888   4.343  18.501  0.00  0.00    +0.000 C 
ATOM     14  O   UNL     1       4.945   4.058  19.069  0.00  0.00    +0.000 OA
ATOM     15  H   UNL     1       2.968   5.357  16.950  0.00  0.00    +0.000 HD
BRANCH  12  19
ATOM     16  C   UNL     1       7.252   5.269  14.743  0.00  0.00    +0.000 A 
ATOM     17  C   UNL     1       6.270   4.335  14.440  0.00  0.00    +0.000 A 
ATOM     18  C   UNL     1       5.127   4.232  15.232  0.00  0.00    +0.000 A 
ATOM     19  C   UNL     1       4.949   5.027  16.366  0.00  0.00    +0.000 A 
ATOM     20  C   UNL     1       5.933   5.981  16.661  0.00  0.00    +0.000 A 
ATOM     21  C   UNL     1       7.083   6.095  15.853  0.00  0.00    +0.000 A 
BRANCH  16  23
ATOM     22  C   UNL     1       8.076   5.520  12.540  0.00  0.00    +0.000 C 
ATOM     23  O   UNL     1       8.333   5.240  13.908  0.00  0.00    +0.000 OA
ENDBRANCH  16  23
ENDBRANCH  12  19
ENDBRANCH   7  13
ENDBRANCH   1   7
BRANCH   4  24
ATOM     24  N   UNL     1       1.098   9.494  21.131  0.00  0.00    +0.000 N 
ATOM     25  C   UNL     1       0.066  10.319  20.717  0.00  0.00    +0.000 C 
ATOM     26  O   UNL     1      -0.810  10.016  19.914  0.00  0.00    +0.000 OA
ATOM     27  H   UNL     1       1.716   9.822  21.863  0.00  0.00    +0.000 HD
BRANCH  25  28
ATOM     28  C   UNL     1       0.041  11.703  21.279  0.00  0.00    +0.000 A 
ATOM     29  C   UNL     1      -0.900  11.959  22.286  0.00  0.00    +0.000 A 
ATOM     30  C   UNL     1      -1.016  13.233  22.840  0.00  0.00    +0.000 A 
ATOM     31  C   UNL     1      -0.182  14.264  22.417  0.00  0.00    +0.000 A 
ATOM     32  C   UNL     1       0.771  14.016  21.427  0.00  0.00    +0.000 A 
ATOM     33  C   UNL     1       0.886  12.736  20.859  0.00  0.00    +0.000 A 
BRANCH  31  34
ATOM     34  O   UNL     1      -0.420  15.473  23.007  0.00  0.00    +0.000 OA
ATOM     35  C   UNL     1      -1.133  15.438  24.237  0.00  0.00    +0.000 C 
ENDBRANCH  31  34
ENDBRANCH  25  28
ENDBRANCH   4  24
TORSDOF 7
ENDMDL
MODEL 8
REMARK VINA RESULT:      -7.9      3.214     10.066
REMARK  Name = 
REMARK  9 active torsions:
REMARK  status: ('A' for Active; 'I' for Inactive)
REMARK    1  A    between atoms: C_1  and  O_2
REMARK    2  A    between atoms: O_2  and  C_3
REMARK    3  A    between atoms: C_6  and  N_7
REMARK    4  A    between atoms: C_8  and  C_10
REMARK    5  A    between atoms: C_10  and  C_11
REMARK    6  A    between atoms: C_14  and  N_15
REMARK    7  A    between atoms: C_16  and  C_18
REMARK    8  A    between atoms: C_21  and  O_22
REMARK    9  A    between atoms: O_22  and  C_23
REMARK                            x       y       z     vdW  Elec       q    Type
REMARK                         _______ _______ _______ _____ _____    ______ ____
ROOT
ATOM      1  C   UNL     1      -0.734  11.369  21.838  0.00  0.00    +0.000 A 
ATOM      2  C   UNL     1      -0.301  10.511  22.859  0.00  0.00    +0.000 A 
ATOM      3  C   UNL     1       0.229   9.244  22.572  0.00  0.00    +0.000 A 
ATOM      4  C   UNL     1       0.357   8.800  21.257  0.00  0.00    +0.000 A 
ATOM      5  C   UNL     1      -0.061   9.642  20.231  0.00  0.00    +0.000 A 
ATOM      6  C   UNL     1      -0.601  10.902  20.517  0.00  0.00    +0.000 A 
ENDROOT
BRANCH   1   7
ATOM      7  C   UNL     1      -1.200  12.807  22.117  0.00  0.00    +0.000 C 
ATOM      8  C   UNL     1      -1.877  13.031  23.487  0.00  0.00    +0.000 C 
ATOM      9  C   UNL     1      -3.308  12.510  23.304  0.00  0.00    +0.000 C 
ATOM     10  C   UNL     1      -3.656  12.755  21.842  0.00  0.00    +0.000 C 
ATOM     11  C   UNL     1      -2.379  13.275  21.207  0.00  0.00    +0.000 C 
BRANCH   7  13
ATOM     12  N   UNL     1       0.263  13.998  20.459  0.00  0.00    +0.000 N 
ATOM     13  C   UNL     1      -0.030  13.766  21.797  0.00  0.00    +0.000 C 
ATOM     14  O   UNL     1       0.523  14.353  22.731  0.00  0.00    +0.000 OA
ATOM     15  H   UNL     1      -0.413  13.707  19.764  0.00  0.00    +0.000 HD
BRANCH  12  19
ATOM     16  C   UNL     1       3.504  16.365  19.055  0.00  0.00    +0.000 A 
ATOM     17  C   UNL     1       2.248  16.931  19.228  0.00  0.00    +0.000 A 
ATOM     18  C   UNL     1       1.191  16.167  19.721  0.00  0.00    +0.000 A 
ATOM     19  C   UNL     1       1.346  14.811  20.018  0.00  0.00    +0.000 A 
ATOM     20  C   UNL     1       2.618  14.245  19.859  0.00  0.00    +0.000 A 
ATOM     21  C   UNL     1       3.691  15.020  19.372  0.00  0.00    +0.000 A 
BRANCH  16  23
ATOM     22  C   UNL     1       5.787  16.959  18.891  0.00  0.00    +0.000 C 
ATOM     23  O   UNL     1       4.438  17.214  18.533  0.00  0.00    +0.000 OA
ENDBRANCH  16  23
ENDBRANCH  12  19
ENDBRANCH   7  13
ENDBRANCH   1   7
BRANCH   4  24
ATOM     24  N   UNL     1       0.943   7.567  20.899  0.00  0.00    +0.000 N 
ATOM     25  C   UNL     1       1.816   7.357  19.846  0.00  0.00    +0.000 C 
ATOM     26  O   UNL     1       2.314   8.234  19.147  0.00  0.00    +0.000 OA
ATOM     27  H   UNL     1       0.662   6.773  21.460  0.00  0.00    +0.000 HD
BRANCH  25  28
ATOM     28  C   UNL     1       2.155   5.939  19.521  0.00  0.00    +0.000 A 
ATOM     29  C   UNL     1       2.436   5.648  18.179  0.00  0.00    +0.000 A 
ATOM     30  C   UNL     1       2.725   4.342  17.783  0.00  0.00    +0.000 A 
ATOM     31  C   UNL     1       2.764   3.313  18.720  0.00  0.00    +0.000 A 
ATOM     32  C   UNL     1       2.503   3.596  20.063  0.00  0.00    +0.000 A 
ATOM     33  C   UNL     1       2.202   4.907  20.465  0.00  0.00    +0.000 A 
BRANCH  31  34
ATOM     34  O   UNL     1       3.019   2.075  18.202  0.00  0.00    +0.000 OA
ATOM     35  C   UNL     1       3.951   1.277  18.923  0.00  0.00    +0.000 C 
ENDBRANCH  31  34
ENDBRANCH  25  28
ENDBRANCH   4  24
TORSDOF 7
ENDMDL
MODEL 9
REMARK VINA RESULT:      -7.8      3.206     10.066
REMARK  Name = 
REMARK  9 active torsions:
REMARK  status: ('A' for Active; 'I' for Inactive)
REMARK    1  A    between atoms: C_1  and  O_2
REMARK    2  A    between atoms: O_2  and  C_3
REMARK    3  A    between atoms: C_6  and  N_7
REMARK    4  A    between atoms: C_8  and  C_10
REMARK    5  A    between atoms: C_10  and  C_11
REMARK    6  A    between atoms: C_14  and  N_15
REMARK    7  A    between atoms: C_16  and  C_18
REMARK    8  A    between atoms: C_21  and  O_22
REMARK    9  A    between atoms: O_22  and  C_23
REMARK                            x       y       z     vdW  Elec       q    Type
REMARK                         _______ _______ _______ _____ _____    ______ ____
ROOT
ATOM      1  C   UNL     1      -0.435  11.302  21.657  0.00  0.00    +0.000 A 
ATOM      2  C   UNL     1      -0.241  10.377  22.693  0.00  0.00    +0.000 A 
ATOM      3  C   UNL     1       0.369   9.135  22.458  0.00  0.00    +0.000 A 
ATOM      4  C   UNL     1       0.818   8.784  21.186  0.00  0.00    +0.000 A 
ATOM      5  C   UNL     1       0.638   9.693  20.147  0.00  0.00    +0.000 A 
ATOM      6  C   UNL     1       0.019  10.928  20.379  0.00  0.00    +0.000 A 
ENDROOT
BRANCH   1   7
ATOM      7  C   UNL     1      -0.985  12.715  21.910  0.00  0.00    +0.000 C 
ATOM      8  C   UNL     1      -1.749  12.901  23.240  0.00  0.00    +0.000 C 
ATOM      9  C   UNL     1      -3.140  12.313  22.976  0.00  0.00    +0.000 C 
ATOM     10  C   UNL     1      -3.416  12.547  21.497  0.00  0.00    +0.000 C 
ATOM     11  C   UNL     1      -2.131  13.130  20.936  0.00  0.00    +0.000 C 
BRANCH   7  13
ATOM     12  N   UNL     1       0.453  14.046  20.339  0.00  0.00    +0.000 N 
ATOM     13  C   UNL     1       0.155  13.730  21.659  0.00  0.00    +0.000 C 
ATOM     14  O   UNL     1       0.676  14.283  22.630  0.00  0.00    +0.000 OA
ATOM     15  H   UNL     1      -0.205  13.771  19.621  0.00  0.00    +0.000 HD
BRANCH  12  19
ATOM     16  C   UNL     1       3.599  16.707  19.293  0.00  0.00    +0.000 A 
ATOM     17  C   UNL     1       3.858  15.355  19.472  0.00  0.00    +0.000 A 
ATOM     18  C   UNL     1       2.823  14.473  19.780  0.00  0.00    +0.000 A 
ATOM     19  C   UNL     1       1.511  14.919  19.957  0.00  0.00    +0.000 A 
ATOM     20  C   UNL     1       1.248  16.281  19.760  0.00  0.00    +0.000 A 
ATOM     21  C   UNL     1       2.292  17.172  19.435  0.00  0.00    +0.000 A 
BRANCH  16  23
ATOM     22  C   UNL     1       5.924  16.753  18.864  0.00  0.00    +0.000 C 
ATOM     23  O   UNL     1       4.706  17.462  19.028  0.00  0.00    +0.000 OA
ENDBRANCH  16  23
ENDBRANCH  12  19
ENDBRANCH   7  13
ENDBRANCH   1   7
BRANCH   4  24
ATOM     24  N   UNL     1       1.498   7.582  20.898  0.00  0.00    +0.000 N 
ATOM     25  C   UNL     1       2.154   7.281  19.716  0.00  0.00    +0.000 C 
ATOM     26  O   UNL     1       2.354   8.064  18.793  0.00  0.00    +0.000 OA
ATOM     27  H   UNL     1       1.466   6.879  21.626  0.00  0.00    +0.000 HD
BRANCH  25  28
ATOM     28  C   UNL     1       2.631   5.876  19.547  0.00  0.00    +0.000 A 
ATOM     29  C   UNL     1       2.283   4.964  20.553  0.00  0.00    +0.000 A 
ATOM     30  C   UNL     1       2.718   3.641  20.492  0.00  0.00    +0.000 A 
ATOM     31  C   UNL     1       3.485   3.200  19.416  0.00  0.00    +0.000 A 
ATOM     32  C   UNL     1       3.823   4.096  18.400  0.00  0.00    +0.000 A 
ATOM     33  C   UNL     1       3.394   5.432  18.461  0.00  0.00    +0.000 A 
BRANCH  31  34
ATOM     34  O   UNL     1       3.881   1.895  19.492  0.00  0.00    +0.000 OA
ATOM     35  C   UNL     1       4.749   1.567  20.570  0.00  0.00    +0.000 C 
ENDBRANCH  31  34
ENDBRANCH  25  28
ENDBRANCH   4  24
TORSDOF 7
ENDMDL
