MODEL 1
REMARK VINA RESULT:      -8.3      0.000      0.000
REMARK  Name = 
REMARK  6 active torsions:
REMARK  status: ('A' for Active; 'I' for Inactive)
REMARK    1  A    between atoms: C_1  and  C_2
REMARK    2  A    between atoms: C_2  and  C_3
REMARK    3  A    between atoms: C_5  and  N_6
REMARK    4  A    between atoms: N_8  and  C_9
REMARK    5  A    between atoms: N_11  and  C_12
REMARK    6  A    between atoms: C_20  and  C_21
REMARK                            x       y       z     vdW  Elec       q    Type
REMARK                         _______ _______ _______ _____ _____    ______ ____
ROOT
ATOM      1  C   UNL     1       2.517   2.226  21.508  0.00  0.00    +0.000 C 
ATOM      2  C   UNL     1       2.230   3.255  20.407  0.00  0.00    +0.000 C 
ATOM      3  C   UNL     1       0.885   2.885  19.753  0.00  0.00    +0.000 C 
ATOM      4  C   UNL     1       3.403   3.269  19.415  0.00  0.00    +0.000 C 
ATOM      5  C   UNL     1       3.124   4.284  18.312  0.00  0.00    +0.000 C 
ATOM      6  C   UNL     1       2.717   5.599  18.937  0.00  0.00    +0.000 A 
ATOM      7  C   UNL     1       2.735   6.785  18.181  0.00  0.00    +0.000 A 
ATOM      8  C   UNL     1       2.247   7.982  18.717  0.00  0.00    +0.000 A 
ATOM      9  C   UNL     1       1.756   8.004  20.024  0.00  0.00    +0.000 A 
ATOM     10  C   UNL     1       1.747   6.837  20.787  0.00  0.00    +0.000 A 
ATOM     11  C   UNL     1       2.203   5.635  20.241  0.00  0.00    +0.000 A 
ATOM     12  O   UNL     1       2.095   4.535  21.052  0.00  0.00    +0.000 OA
ENDROOT
BRANCH   5  13
ATOM     13  N   UNL     1       4.293   4.403  17.449  0.00  0.00    +0.000 NA
ATOM     14  C   UNL     1       5.428   4.869  17.861  0.00  0.00    +0.000 C 
ATOM     15  N   UNL     1       5.650   5.400  19.106  0.00  0.00    +0.000 N 
ATOM     16  N   UNL     1       6.520   4.902  17.014  0.00  0.00    +0.000 N 
ATOM     17  H   UNL     1       4.874   5.444  19.745  0.00  0.00    +0.000 HD
ATOM     18  H   UNL     1       7.414   4.613  17.393  0.00  0.00    +0.000 HD
BRANCH  16  19
ATOM     19  C   UNL     1       6.429   4.726  15.616  0.00  0.00    +0.000 A 
ATOM     20  C   UNL     1       5.378   3.988  15.054  0.00  0.00    +0.000 A 
ATOM     21  C   UNL     1       5.342   3.710  13.689  0.00  0.00    +0.000 A 
ATOM     22  C   UNL     1       6.365   4.167  12.864  0.00  0.00    +0.000 A 
ATOM     23  C   UNL     1       7.406   4.923  13.402  0.00  0.00    +0.000 A 
ATOM     24  C   UNL     1       7.437   5.205  14.771  0.00  0.00    +0.000 A 
ENDBRANCH  16  19
BRANCH  15  25
ATOM     25  C   UNL     1       6.950   5.408  19.706  0.00  0.00    +0.000 C 
ATOM     26  N   UNL     1       8.011   5.406  20.171  0.00  0.00    +0.000 NA
ENDBRANCH  15  25
ENDBRANCH   5  13
BRANCH   8  27
ATOM     27  C   UNL     1       2.220   9.169  17.911  0.00  0.00    +0.000 C 
ATOM     28  N   UNL     1       2.188  10.138  17.277  0.00  0.00    +0.000 NA
ENDBRANCH   8  27
TORSDOF 4
ENDMDL
MODEL 2
REMARK VINA RESULT:      -7.8      1.885      3.425
REMARK  Name = 
REMARK  6 active torsions:
REMARK  status: ('A' for Active; 'I' for Inactive)
REMARK    1  A    between atoms: C_1  and  C_2
REMARK    2  A    between atoms: C_2  and  C_3
REMARK    3  A    between atoms: C_5  and  N_6
REMARK    4  A    between atoms: N_8  and  C_9
REMARK    5  A    between atoms: N_11  and  C_12
REMARK    6  A    between atoms: C_20  and  C_21
REMARK                            x       y       z     vdW  Elec       q    Type
REMARK                         _______ _______ _______ _____ _____    ______ ____
ROOT
ATOM      1  C   UNL     1       2.657   2.559  21.164  0.00  0.00    +0.000 C 
ATOM      2  C   UNL     1       2.382   3.735  20.217  0.00  0.00    +0.000 C 
ATOM      3  C   UNL     1       1.323   3.279  19.195  0.00  0.00    +0.000 C 
ATOM      4  C   UNL     1       3.702   4.174  19.567  0.00  0.00    +0.000 C 
ATOM      5  C   UNL     1       3.438   5.338  18.618  0.00  0.00    +0.000 C 
ATOM      6  C   UNL     1       2.623   6.390  19.334  0.00  0.00    +0.000 A 
ATOM      7  C   UNL     1       2.531   7.695  18.818  0.00  0.00    +0.000 A 
ATOM      8  C   UNL     1       1.684   8.639  19.409  0.00  0.00    +0.000 A 
ATOM      9  C   UNL     1       0.938   8.289  20.536  0.00  0.00    +0.000 A 
ATOM     10  C   UNL     1       1.034   7.001  21.064  0.00  0.00    +0.000 A 
ATOM     11  C   UNL     1       1.853   6.049  20.455  0.00  0.00    +0.000 A 
ATOM     12  O   UNL     1       1.829   4.798  21.014  0.00  0.00    +0.000 OA
ENDROOT
BRANCH   5  13
ATOM     13  N   UNL     1       4.704   5.849  18.107  0.00  0.00    +0.000 NA
ATOM     14  C   UNL     1       5.269   5.390  17.036  0.00  0.00    +0.000 C 
ATOM     15  N   UNL     1       4.816   4.314  16.314  0.00  0.00    +0.000 N 
ATOM     16  N   UNL     1       6.439   5.955  16.564  0.00  0.00    +0.000 N 
ATOM     17  H   UNL     1       3.995   3.838  16.643  0.00  0.00    +0.000 HD
ATOM     18  H   UNL     1       6.511   6.114  15.566  0.00  0.00    +0.000 HD
BRANCH  16  19
ATOM     19  C   UNL     1       7.245   6.830  17.324  0.00  0.00    +0.000 A 
ATOM     20  C   UNL     1       7.892   6.382  18.484  0.00  0.00    +0.000 A 
ATOM     21  C   UNL     1       8.593   7.264  19.304  0.00  0.00    +0.000 A 
ATOM     22  C   UNL     1       8.653   8.615  18.973  0.00  0.00    +0.000 A 
ATOM     23  C   UNL     1       8.035   9.074  17.811  0.00  0.00    +0.000 A 
ATOM     24  C   UNL     1       7.337   8.185  16.987  0.00  0.00    +0.000 A 
ENDBRANCH  16  19
BRANCH  15  25
ATOM     25  C   UNL     1       5.108   4.161  14.920  0.00  0.00    +0.000 C 
ATOM     26  N   UNL     1       5.367   4.036  13.798  0.00  0.00    +0.000 NA
ENDBRANCH  15  25
ENDBRANCH   5  13
BRANCH   8  27
ATOM     27  C   UNL     1       1.559   9.948  18.835  0.00  0.00    +0.000 C 
ATOM     28  N   UNL     1       1.437  11.003  18.370  0.00  0.00    +0.000 NA
ENDBRANCH   8  27
TORSDOF 4
ENDMDL
MODEL 3
REMARK VINA RESULT:      -7.7      8.427     11.727
REMARK  Name = 
REMARK  6 active torsions:
REMARK  status: ('A' for Active; 'I' for Inactive)
REMARK    1  A    between atoms: C_1  and  C_2
REMARK    2  A    between atoms: C_2  and  C_3
REMARK    3  A    between atoms: C_5  and  N_6
REMARK    4  A    between atoms: N_8  and  C_9
REMARK    5  A    between atoms: N_11  and  C_12
REMARK    6  A    between atoms: C_20  and  C_21
REMARK                            x       y       z     vdW  Elec       q    Type
REMARK                         _______ _______ _______ _____ _____    ______ ____
ROOT
ATOM      1  C   UNL     1       1.461  13.426  18.180  0.00  0.00    +0.000 C 
ATOM      2  C   UNL     1       0.487  12.693  19.113  0.00  0.00    +0.000 C 
ATOM      3  C   UNL     1       1.103  11.323  19.456  0.00  0.00    +0.000 C 
ATOM      4  C   UNL     1      -0.882  12.587  18.425  0.00  0.00    +0.000 C 
ATOM      5  C   UNL     1      -1.855  11.853  19.341  0.00  0.00    +0.000 C 
ATOM      6  C   UNL     1      -1.806  12.473  20.718  0.00  0.00    +0.000 A 
ATOM      7  C   UNL     1      -2.830  12.224  21.650  0.00  0.00    +0.000 A 
ATOM      8  C   UNL     1      -2.732  12.697  22.964  0.00  0.00    +0.000 A 
ATOM      9  C   UNL     1      -1.616  13.442  23.348  0.00  0.00    +0.000 A 
ATOM     10  C   UNL     1      -0.603  13.708  22.427  0.00  0.00    +0.000 A 
ATOM     11  C   UNL     1      -0.684  13.208  21.126  0.00  0.00    +0.000 A 
ATOM     12  O   UNL     1       0.392  13.473  20.319  0.00  0.00    +0.000 OA
ENDROOT
BRANCH   5  13
ATOM     13  N   UNL     1      -3.190  11.874  18.755  0.00  0.00    +0.000 NA
ATOM     14  C   UNL     1      -3.415  11.605  17.509  0.00  0.00    +0.000 C 
ATOM     15  N   UNL     1      -2.442  11.374  16.570  0.00  0.00    +0.000 N 
ATOM     16  N   UNL     1      -4.709  11.580  17.021  0.00  0.00    +0.000 N 
ATOM     17  H   UNL     1      -1.482  11.428  16.864  0.00  0.00    +0.000 HD
ATOM     18  H   UNL     1      -4.959  10.821  16.399  0.00  0.00    +0.000 HD
BRANCH  16  19
ATOM     19  C   UNL     1      -5.816  12.112  17.718  0.00  0.00    +0.000 A 
ATOM     20  C   UNL     1      -6.303  13.392  17.418  0.00  0.00    +0.000 A 
ATOM     21  C   UNL     1      -7.318  13.972  18.177  0.00  0.00    +0.000 A 
ATOM     22  C   UNL     1      -7.859  13.276  19.254  0.00  0.00    +0.000 A 
ATOM     23  C   UNL     1      -7.403  11.993  19.552  0.00  0.00    +0.000 A 
ATOM     24  C   UNL     1      -6.388  11.410  18.785  0.00  0.00    +0.000 A 
ENDBRANCH  16  19
BRANCH  15  25
ATOM     25  C   UNL     1      -2.691  10.589  15.398  0.00  0.00    +0.000 C 
ATOM     26  N   UNL     1      -2.909   9.970  14.444  0.00  0.00    +0.000 NA
ENDBRANCH  15  25
ENDBRANCH   5  13
BRANCH   8  27
ATOM     27  C   UNL     1      -3.759  12.384  23.916  0.00  0.00    +0.000 C 
ATOM     28  N   UNL     1      -4.603  12.132  24.669  0.00  0.00    +0.000 NA
ENDBRANCH   8  27
TORSDOF 4
ENDMDL
MODEL 4
REMARK VINA RESULT:      -7.5      6.021      9.922
REMARK  Name = 
REMARK  6 active torsions:
REMARK  status: ('A' for Active; 'I' for Inactive)
REMARK    1  A    between atoms: C_1  and  C_2
REMARK    2  A    between atoms: C_2  and  C_3
REMARK    3  A    between atoms: C_5  and  N_6
REMARK    4  A    between atoms: N_8  and  C_9
REMARK    5  A    between atoms: N_11  and  C_12
REMARK    6  A    between atoms: C_20  and  C_21
REMARK                            x       y       z     vdW  Elec       q    Type
REMARK                         _______ _______ _______ _____ _____    ______ ____
ROOT
ATOM      1  C   UNL     1       2.589  15.735  18.665  0.00  0.00    +0.000 C 
ATOM      2  C   UNL     1       1.916  14.706  19.583  0.00  0.00    +0.000 C 
ATOM      3  C   UNL     1       3.012  14.060  20.452  0.00  0.00    +0.000 C 
ATOM      4  C   UNL     1       1.150  13.691  18.721  0.00  0.00    +0.000 C 
ATOM      5  C   UNL     1       0.483  12.659  19.624  0.00  0.00    +0.000 C 
ATOM      6  C   UNL     1      -0.280  13.372  20.717  0.00  0.00    +0.000 A 
ATOM      7  C   UNL     1      -1.252  12.690  21.471  0.00  0.00    +0.000 A 
ATOM      8  C   UNL     1      -1.876  13.308  22.560  0.00  0.00    +0.000 A 
ATOM      9  C   UNL     1      -1.546  14.625  22.889  0.00  0.00    +0.000 A 
ATOM     10  C   UNL     1      -0.595  15.315  22.138  0.00  0.00    +0.000 A 
ATOM     11  C   UNL     1       0.052  14.687  21.072  0.00  0.00    +0.000 A 
ATOM     12  O   UNL     1       1.014  15.431  20.438  0.00  0.00    +0.000 OA
ENDROOT
BRANCH   5  13
ATOM     13  N   UNL     1      -0.359  11.779  18.823  0.00  0.00    +0.000 NA
ATOM     14  C   UNL     1       0.096  10.730  18.217  0.00  0.00    +0.000 C 
ATOM     15  N   UNL     1       1.419  10.371  18.160  0.00  0.00    +0.000 N 
ATOM     16  N   UNL     1      -0.761   9.896  17.521  0.00  0.00    +0.000 N 
ATOM     17  H   UNL     1       2.089  10.971  18.610  0.00  0.00    +0.000 HD
ATOM     18  H   UNL     1      -0.635   8.897  17.635  0.00  0.00    +0.000 HD
BRANCH  16  19
ATOM     19  C   UNL     1      -2.081  10.252  17.170  0.00  0.00    +0.000 A 
ATOM     20  C   UNL     1      -2.447  10.408  15.826  0.00  0.00    +0.000 A 
ATOM     21  C   UNL     1      -3.714  10.872  15.474  0.00  0.00    +0.000 A 
ATOM     22  C   UNL     1      -4.633  11.191  16.468  0.00  0.00    +0.000 A 
ATOM     23  C   UNL     1      -4.294  11.020  17.810  0.00  0.00    +0.000 A 
ATOM     24  C   UNL     1      -3.025  10.549  18.160  0.00  0.00    +0.000 A 
ENDBRANCH  16  19
BRANCH  15  25
ATOM     25  C   UNL     1       1.829   9.012  17.971  0.00  0.00    +0.000 C 
ATOM     26  N   UNL     1       2.153   7.908  17.840  0.00  0.00    +0.000 NA
ENDBRANCH  15  25
ENDBRANCH   5  13
BRANCH   8  27
ATOM     27  C   UNL     1      -2.822  12.578  23.353  0.00  0.00    +0.000 C 
ATOM     28  N   UNL     1      -3.595  11.979  23.975  0.00  0.00    +0.000 NA
ENDBRANCH   8  27
TORSDOF 4
ENDMDL
MODEL 5
REMARK VINA RESULT:      -7.4      8.678     11.041
REMARK  Name = 
REMARK  6 active torsions:
REMARK  status: ('A' for Active; 'I' for Inactive)
REMARK    1  A    between atoms: C_1  and  C_2
REMARK    2  A    between atoms: C_2  and  C_3
REMARK    3  A    between atoms: C_5  and  N_6
REMARK    4  A    between atoms: N_8  and  C_9
REMARK    5  A    between atoms: N_11  and  C_12
REMARK    6  A    between atoms: C_20  and  C_21
REMARK                            x       y       z     vdW  Elec       q    Type
REMARK                         _______ _______ _______ _____ _____    ______ ____
ROOT
ATOM      1  C   UNL     1       4.142  14.807  17.841  0.00  0.00    +0.000 C 
ATOM      2  C   UNL     1       2.890  15.117  18.673  0.00  0.00    +0.000 C 
ATOM      3  C   UNL     1       3.341  15.390  20.120  0.00  0.00    +0.000 C 
ATOM      4  C   UNL     1       1.907  13.942  18.556  0.00  0.00    +0.000 C 
ATOM      5  C   UNL     1       0.662  14.238  19.385  0.00  0.00    +0.000 C 
ATOM      6  C   UNL     1       0.152  15.619  19.043  0.00  0.00    +0.000 A 
ATOM      7  C   UNL     1      -1.153  16.005  19.398  0.00  0.00    +0.000 A 
ATOM      8  C   UNL     1      -1.590  17.319  19.191  0.00  0.00    +0.000 A 
ATOM      9  C   UNL     1      -0.730  18.250  18.607  0.00  0.00    +0.000 A 
ATOM     10  C   UNL     1       0.561  17.872  18.238  0.00  0.00    +0.000 A 
ATOM     11  C   UNL     1       1.010  16.571  18.475  0.00  0.00    +0.000 A 
ATOM     12  O   UNL     1       2.313  16.319  18.132  0.00  0.00    +0.000 OA
ENDROOT
BRANCH   5  13
ATOM     13  N   UNL     1      -0.331  13.194  19.166  0.00  0.00    +0.000 NA
ATOM     14  C   UNL     1      -0.572  12.259  20.029  0.00  0.00    +0.000 C 
ATOM     15  N   UNL     1       0.131  12.068  21.191  0.00  0.00    +0.000 N 
ATOM     16  N   UNL     1      -1.569  11.330  19.795  0.00  0.00    +0.000 N 
ATOM     17  H   UNL     1       0.898  12.688  21.385  0.00  0.00    +0.000 HD
ATOM     18  H   UNL     1      -2.178  11.093  20.569  0.00  0.00    +0.000 HD
BRANCH  16  19
ATOM     19  C   UNL     1      -2.176  11.138  18.534  0.00  0.00    +0.000 A 
ATOM     20  C   UNL     1      -3.410  11.732  18.235  0.00  0.00    +0.000 A 
ATOM     21  C   UNL     1      -4.072  11.456  17.040  0.00  0.00    +0.000 A 
ATOM     22  C   UNL     1      -3.506  10.572  16.126  0.00  0.00    +0.000 A 
ATOM     23  C   UNL     1      -2.268   9.990  16.397  0.00  0.00    +0.000 A 
ATOM     24  C   UNL     1      -1.603  10.274  17.594  0.00  0.00    +0.000 A 
ENDBRANCH  16  19
BRANCH  15  25
ATOM     25  C   UNL     1      -0.449  11.420  22.330  0.00  0.00    +0.000 C 
ATOM     26  N   UNL     1      -0.898  10.881  23.251  0.00  0.00    +0.000 NA
ENDBRANCH  15  25
ENDBRANCH   5  13
BRANCH   8  27
ATOM     27  C   UNL     1      -2.905  17.710  19.612  0.00  0.00    +0.000 C 
ATOM     28  N   UNL     1      -3.975  18.010  19.940  0.00  0.00    +0.000 NA
ENDBRANCH   8  27
TORSDOF 4
ENDMDL
MODEL 6
REMARK VINA RESULT:      -7.4      2.216      3.769
REMARK  Name = 
REMARK  6 active torsions:
REMARK  status: ('A' for Active; 'I' for Inactive)
REMARK    1  A    between atoms: C_1  and  C_2
REMARK    2  A    between atoms: C_2  and  C_3
REMARK    3  A    between atoms: C_5  and  N_6
REMARK    4  A    between atoms: N_8  and  C_9
REMARK    5  A    between atoms: N_11  and  C_12
REMARK    6  A    between atoms: C_20  and  C_21
REMARK                            x       y       z     vdW  Elec       q    Type
REMARK                         _______ _______ _______ _____ _____    ______ ____
ROOT
ATOM      1  C   UNL     1       3.755   0.981  19.213  0.00  0.00    +0.000 C 
ATOM      2  C   UNL     1       3.281   2.375  18.779  0.00  0.00    +0.000 C 
ATOM      3  C   UNL     1       2.230   2.191  17.667  0.00  0.00    +0.000 C 
ATOM      4  C   UNL     1       4.496   3.202  18.333  0.00  0.00    +0.000 C 
ATOM      5  C   UNL     1       4.035   4.586  17.892  0.00  0.00    +0.000 C 
ATOM      6  C   UNL     1       3.137   5.174  18.956  0.00  0.00    +0.000 A 
ATOM      7  C   UNL     1       2.853   6.551  18.969  0.00  0.00    +0.000 A 
ATOM      8  C   UNL     1       1.929   7.082  19.877  0.00  0.00    +0.000 A 
ATOM      9  C   UNL     1       1.299   6.239  20.794  0.00  0.00    +0.000 A 
ATOM     10  C   UNL     1       1.585   4.874  20.800  0.00  0.00    +0.000 A 
ATOM     11  C   UNL     1       2.481   4.339  19.872  0.00  0.00    +0.000 A 
ATOM     12  O   UNL     1       2.646   2.979  19.921  0.00  0.00    +0.000 OA
ENDROOT
BRANCH   5  13
ATOM     13  N   UNL     1       5.195   5.420  17.603  0.00  0.00    +0.000 NA
ATOM     14  C   UNL     1       5.972   5.217  16.588  0.00  0.00    +0.000 C 
ATOM     15  N   UNL     1       5.874   4.152  15.728  0.00  0.00    +0.000 N 
ATOM     16  N   UNL     1       7.024   6.077  16.328  0.00  0.00    +0.000 N 
ATOM     17  H   UNL     1       5.155   3.471  15.902  0.00  0.00    +0.000 HD
ATOM     18  H   UNL     1       7.172   6.355  15.365  0.00  0.00    +0.000 HD
BRANCH  16  19
ATOM     19  C   UNL     1       7.506   7.023  17.258  0.00  0.00    +0.000 A 
ATOM     20  C   UNL     1       7.535   8.388  16.941  0.00  0.00    +0.000 A 
ATOM     21  C   UNL     1       8.116   9.315  17.804  0.00  0.00    +0.000 A 
ATOM     22  C   UNL     1       8.681   8.886  19.001  0.00  0.00    +0.000 A 
ATOM     23  C   UNL     1       8.640   7.534  19.343  0.00  0.00    +0.000 A 
ATOM     24  C   UNL     1       8.052   6.607  18.478  0.00  0.00    +0.000 A 
ENDBRANCH  16  19
BRANCH  15  25
ATOM     25  C   UNL     1       6.354   4.220  14.380  0.00  0.00    +0.000 C 
ATOM     26  N   UNL     1       6.720   4.271  13.283  0.00  0.00    +0.000 NA
ENDBRANCH  15  25
ENDBRANCH   5  13
BRANCH   8  27
ATOM     27  C   UNL     1       1.609   8.480  19.838  0.00  0.00    +0.000 C 
ATOM     28  N   UNL     1       1.330   9.604  19.799  0.00  0.00    +0.000 NA
ENDBRANCH   8  27
TORSDOF 4
ENDMDL
MODEL 7
REMARK VINA RESULT:      -7.4      6.065      9.950
REMARK  Name = 
REMARK  6 active torsions:
REMARK  status: ('A' for Active; 'I' for Inactive)
REMARK    1  A    between atoms: C_1  and  C_2
REMARK    2  A    between atoms: C_2  and  C_3
REMARK    3  A    between atoms: C_5  and  N_6
REMARK    4  A    between atoms: N_8  and  C_9
REMARK    5  A    between atoms: N_11  and  C_12
REMARK    6  A    between atoms: C_20  and  C_21
REMARK                            x       y       z     vdW  Elec       q    Type
REMARK                         _______ _______ _______ _____ _____    ______ ____
ROOT
ATOM      1  C   UNL     1       2.906  15.617  19.339  0.00  0.00    +0.000 C 
ATOM      2  C   UNL     1       2.124  14.575  20.150  0.00  0.00    +0.000 C 
ATOM      3  C   UNL     1       3.134  13.796  21.015  0.00  0.00    +0.000 C 
ATOM      4  C   UNL     1       1.334  13.678  19.186  0.00  0.00    +0.000 C 
ATOM      5  C   UNL     1       0.559  12.634  19.982  0.00  0.00    +0.000 C 
ATOM      6  C   UNL     1      -0.205  13.320  21.091  0.00  0.00    +0.000 A 
ATOM      7  C   UNL     1      -1.254  12.656  21.752  0.00  0.00    +0.000 A 
ATOM      8  C   UNL     1      -1.886  13.238  22.856  0.00  0.00    +0.000 A 
ATOM      9  C   UNL     1      -1.486  14.502  23.294  0.00  0.00    +0.000 A 
ATOM     10  C   UNL     1      -0.457  15.176  22.636  0.00  0.00    +0.000 A 
ATOM     11  C   UNL     1       0.196  14.581  21.555  0.00  0.00    +0.000 A 
ATOM     12  O   UNL     1       1.233  15.299  21.018  0.00  0.00    +0.000 OA
ENDROOT
BRANCH   5  13
ATOM     13  N   UNL     1      -0.301  11.873  19.085  0.00  0.00    +0.000 NA
ATOM     14  C   UNL     1       0.125  10.875  18.379  0.00  0.00    +0.000 C 
ATOM     15  N   UNL     1       1.436  10.475  18.301  0.00  0.00    +0.000 N 
ATOM     16  N   UNL     1      -0.749  10.150  17.591  0.00  0.00    +0.000 N 
ATOM     17  H   UNL     1       2.120  11.001  18.819  0.00  0.00    +0.000 HD
ATOM     18  H   UNL     1      -0.662   9.140  17.603  0.00  0.00    +0.000 HD
BRANCH  16  19
ATOM     19  C   UNL     1      -2.050  10.589  17.262  0.00  0.00    +0.000 A 
ATOM     20  C   UNL     1      -2.936  11.014  18.263  0.00  0.00    +0.000 A 
ATOM     21  C   UNL     1      -4.258  11.338  17.963  0.00  0.00    +0.000 A 
ATOM     22  C   UNL     1      -4.715  11.236  16.653  0.00  0.00    +0.000 A 
ATOM     23  C   UNL     1      -3.841  10.837  15.642  0.00  0.00    +0.000 A 
ATOM     24  C   UNL     1      -2.513  10.518  15.944  0.00  0.00    +0.000 A 
ENDBRANCH  16  19
BRANCH  15  25
ATOM     25  C   UNL     1       1.800   9.128  17.978  0.00  0.00    +0.000 C 
ATOM     26  N   UNL     1       2.113   8.042  17.730  0.00  0.00    +0.000 NA
ENDBRANCH  15  25
ENDBRANCH   5  13
BRANCH   8  27
ATOM     27  C   UNL     1      -2.915  12.521  23.554  0.00  0.00    +0.000 C 
ATOM     28  N   UNL     1      -3.738  11.923  24.109  0.00  0.00    +0.000 NA
ENDBRANCH   8  27
TORSDOF 4
ENDMDL
MODEL 8
REMARK VINA RESULT:      -7.4      7.259     10.875
REMARK  Name = 
REMARK  6 active torsions:
REMARK  status: ('A' for Active; 'I' for Inactive)
REMARK    1  A    between atoms: C_1  and  C_2
REMARK    2  A    between atoms: C_2  and  C_3
REMARK    3  A    between atoms: C_5  and  N_6
REMARK    4  A    between atoms: N_8  and  C_9
REMARK    5  A    between atoms: N_11  and  C_12
REMARK    6  A    between atoms: C_20  and  C_21
REMARK                            x       y       z     vdW  Elec       q    Type
REMARK                         _______ _______ _______ _____ _____    ______ ____
ROOT
ATOM      1  C   UNL     1      -6.654  11.122  18.259  0.00  0.00    +0.000 C 
ATOM      2  C   UNL     1      -5.841  12.105  19.113  0.00  0.00    +0.000 C 
ATOM      3  C   UNL     1      -6.030  13.514  18.519  0.00  0.00    +0.000 C 
ATOM      4  C   UNL     1      -4.374  11.651  19.141  0.00  0.00    +0.000 C 
ATOM      5  C   UNL     1      -3.557  12.625  19.981  0.00  0.00    +0.000 C 
ATOM      6  C   UNL     1      -4.250  12.844  21.306  0.00  0.00    +0.000 A 
ATOM      7  C   UNL     1      -3.557  13.415  22.389  0.00  0.00    +0.000 A 
ATOM      8  C   UNL     1      -4.224  13.730  23.578  0.00  0.00    +0.000 A 
ATOM      9  C   UNL     1      -5.588  13.455  23.700  0.00  0.00    +0.000 A 
ATOM     10  C   UNL     1      -6.280  12.875  22.637  0.00  0.00    +0.000 A 
ATOM     11  C   UNL     1      -5.623  12.592  21.438  0.00  0.00    +0.000 A 
ATOM     12  O   UNL     1      -6.406  12.081  20.436  0.00  0.00    +0.000 OA
ENDROOT
BRANCH   5  13
ATOM     13  N   UNL     1      -2.196  12.123  20.128  0.00  0.00    +0.000 NA
ATOM     14  C   UNL     1      -1.161  12.752  19.671  0.00  0.00    +0.000 C 
ATOM     15  N   UNL     1      -1.211  13.895  18.913  0.00  0.00    +0.000 N 
ATOM     16  N   UNL     1       0.112  12.259  19.892  0.00  0.00    +0.000 N 
ATOM     17  H   UNL     1      -2.116  14.268  18.683  0.00  0.00    +0.000 HD
ATOM     18  H   UNL     1       0.829  12.922  20.162  0.00  0.00    +0.000 HD
BRANCH  16  19
ATOM     19  C   UNL     1       0.373  10.947  20.344  0.00  0.00    +0.000 A 
ATOM     20  C   UNL     1       0.239  10.617  21.700  0.00  0.00    +0.000 A 
ATOM     21  C   UNL     1       0.605   9.359  22.174  0.00  0.00    +0.000 A 
ATOM     22  C   UNL     1       1.117   8.411  21.293  0.00  0.00    +0.000 A 
ATOM     23  C   UNL     1       1.235   8.714  19.937  0.00  0.00    +0.000 A 
ATOM     24  C   UNL     1       0.861   9.976  19.463  0.00  0.00    +0.000 A 
ENDBRANCH  16  19
BRANCH  15  25
ATOM     25  C   UNL     1      -0.126  14.829  18.877  0.00  0.00    +0.000 C 
ATOM     26  N   UNL     1       0.767  15.566  18.843  0.00  0.00    +0.000 NA
ENDBRANCH  15  25
ENDBRANCH   5  13
BRANCH   8  27
ATOM     27  C   UNL     1      -3.514  14.364  24.651  0.00  0.00    +0.000 C 
ATOM     28  N   UNL     1      -2.928  14.859  25.520  0.00  0.00    +0.000 NA
ENDBRANCH   8  27
TORSDOF 4
ENDMDL
MODEL 9
REMARK VINA RESULT:      -7.4      6.873     10.953
REMARK  Name = 
REMARK  6 active torsions:
REMARK  status: ('A' for Active; 'I' for Inactive)
REMARK    1  A    between atoms: C_1  and  C_2
REMARK    2  A    between atoms: C_2  and  C_3
REMARK    3  A    between atoms: C_5  and  N_6
REMARK    4  A    between atoms: N_8  and  C_9
REMARK    5  A    between atoms: N_11  and  C_12
REMARK    6  A    between atoms: C_20  and  C_21
REMARK                            x       y       z     vdW  Elec       q    Type
REMARK                         _______ _______ _______ _____ _____    ______ ____
ROOT
ATOM      1  C   UNL     1       1.459   8.904  17.823  0.00  0.00    +0.000 C 
ATOM      2  C   UNL     1       0.796  10.001  18.666  0.00  0.00    +0.000 C 
ATOM      3  C   UNL     1       1.102   9.708  20.148  0.00  0.00    +0.000 C 
ATOM      4  C   UNL     1      -0.708  10.034  18.353  0.00  0.00    +0.000 C 
ATOM      5  C   UNL     1      -1.378  11.117  19.191  0.00  0.00    +0.000 C 
ATOM      6  C   UNL     1      -0.602  12.407  19.052  0.00  0.00    +0.000 A 
ATOM      7  C   UNL     1      -1.178  13.632  19.433  0.00  0.00    +0.000 A 
ATOM      8  C   UNL     1      -0.425  14.811  19.419  0.00  0.00    +0.000 A 
ATOM      9  C   UNL     1       0.906  14.776  19.000  0.00  0.00    +0.000 A 
ATOM     10  C   UNL     1       1.483  13.569  18.605  0.00  0.00    +0.000 A 
ATOM     11  C   UNL     1       0.742  12.386  18.652  0.00  0.00    +0.000 A 
ATOM     12  O   UNL     1       1.419  11.246  18.302  0.00  0.00    +0.000 OA
ENDROOT
BRANCH   5  13
ATOM     13  N   UNL     1      -2.775  11.249  18.797  0.00  0.00    +0.000 NA
ATOM     14  C   UNL     1      -3.158  11.263  17.560  0.00  0.00    +0.000 C 
ATOM     15  N   UNL     1      -2.314  11.264  16.479  0.00  0.00    +0.000 N 
ATOM     16  N   UNL     1      -4.503  11.328  17.245  0.00  0.00    +0.000 N 
ATOM     17  H   UNL     1      -1.324  11.265  16.655  0.00  0.00    +0.000 HD
ATOM     18  H   UNL     1      -4.839  10.724  16.504  0.00  0.00    +0.000 HD
BRANCH  16  19
ATOM     19  C   UNL     1      -5.507  11.673  18.177  0.00  0.00    +0.000 A 
ATOM     20  C   UNL     1      -5.669  13.001  18.596  0.00  0.00    +0.000 A 
ATOM     21  C   UNL     1      -6.577  13.333  19.600  0.00  0.00    +0.000 A 
ATOM     22  C   UNL     1      -7.336  12.335  20.203  0.00  0.00    +0.000 A 
ATOM     23  C   UNL     1      -7.204  11.012  19.783  0.00  0.00    +0.000 A 
ATOM     24  C   UNL     1      -6.296  10.682  18.771  0.00  0.00    +0.000 A 
ENDBRANCH  16  19
BRANCH  15  25
ATOM     25  C   UNL     1      -2.718  10.758  15.201  0.00  0.00    +0.000 C 
ATOM     26  N   UNL     1      -3.056  10.370  14.164  0.00  0.00    +0.000 NA
ENDBRANCH  15  25
ENDBRANCH   5  13
BRANCH   8  27
ATOM     27  C   UNL     1      -1.012  16.042  19.866  0.00  0.00    +0.000 C 
ATOM     28  N   UNL     1      -1.467  17.044  20.229  0.00  0.00    +0.000 NA
ENDBRANCH   8  27
TORSDOF 4
ENDMDL
