MODEL 1
REMARK VINA RESULT:      -8.1      0.000      0.000
REMARK  Name = 
REMARK  9 active torsions:
REMARK  status: ('A' for Active; 'I' for Inactive)
REMARK    1  A    between atoms: C_1  and  O_2
REMARK    2  A    between atoms: O_2  and  C_3
REMARK    3  A    between atoms: C_6  and  C_7
REMARK    4  A    between atoms: C_7  and  C_8
REMARK    5  A    between atoms: C_7  and  N_20
REMARK    6  A    between atoms: C_8  and  C_9
REMARK    7  A    between atoms: N_11  and  C_12
REMARK    8  A    between atoms: C_31  and  O_32
REMARK    9  A    between atoms: O_32  and  C_33
REMARK                            x       y       z     vdW  Elec       q    Type
REMARK                         _______ _______ _______ _____ _____    ______ ____
ROOT
ATOM      1  C   UNL     1       0.752  10.334  19.011  0.00  0.00    +0.000 C 
ENDROOT
BRANCH   1   2
ATOM      2  N   UNL     1       1.470  11.597  19.237  0.00  0.00    +0.000 N 
ATOM      3  C   UNL     1       2.200  12.251  18.160  0.00  0.00    +0.000 C 
ATOM      4  C   UNL     1       2.731  13.484  18.811  0.00  0.00    +0.000 A 
ATOM      5  C   UNL     1       3.450  14.533  18.262  0.00  0.00    +0.000 A 
ATOM      6  C   UNL     1       3.883  15.559  19.109  0.00  0.00    +0.000 A 
ATOM      7  C   UNL     1       3.597  15.518  20.488  0.00  0.00    +0.000 A 
ATOM      8  C   UNL     1       2.842  14.469  21.031  0.00  0.00    +0.000 A 
ATOM      9  C   UNL     1       2.418  13.473  20.169  0.00  0.00    +0.000 A 
ATOM     10  C   UNL     1       1.591  12.283  20.438  0.00  0.00    +0.000 C 
ATOM     11  O   UNL     1       1.087  12.021  21.511  0.00  0.00    +0.000 OA
ENDBRANCH   1   2
BRANCH   1  15
ATOM     12  C   UNL     1      -3.340  11.191  17.785  0.00  0.00    +0.000 A 
ATOM     13  C   UNL     1      -2.528  10.320  17.043  0.00  0.00    +0.000 A 
ATOM     14  C   UNL     1      -1.233  10.002  17.469  0.00  0.00    +0.000 A 
ATOM     15  C   UNL     1      -0.711  10.557  18.643  0.00  0.00    +0.000 A 
ATOM     16  C   UNL     1      -1.542  11.407  19.387  0.00  0.00    +0.000 A 
ATOM     17  C   UNL     1      -2.825  11.772  18.950  0.00  0.00    +0.000 A 
BRANCH  12  19
ATOM     18  C   UNL     1      -5.667  10.936  18.111  0.00  0.00    +0.000 C 
ATOM     19  O   UNL     1      -4.601  11.519  17.367  0.00  0.00    +0.000 OA
ENDBRANCH  12  19
BRANCH  17  20
ATOM     20  O   UNL     1      -3.390  12.704  19.779  0.00  0.00    +0.000 OA
ATOM     21  C   UNL     1      -2.648  13.190  20.884  0.00  0.00    +0.000 C 
ENDBRANCH  17  20
ENDBRANCH   1  15
BRANCH   1  22
ATOM     22  C   UNL     1       1.500   9.382  18.053  0.00  0.00    +0.000 C 
BRANCH  22  23
ATOM     23  C   UNL     1       1.944   8.115  18.771  0.00  0.00    +0.000 C 
ATOM     24  O   UNL     1       1.925   8.005  19.993  0.00  0.00    +0.000 OA
ATOM     25  N   UNL     1       2.472   7.164  17.908  0.00  0.00    +0.000 N 
ATOM     26  H   UNL     1       2.803   7.508  17.013  0.00  0.00    +0.000 HD
BRANCH  25  27
ATOM     27  C   UNL     1       2.978   5.926  18.351  0.00  0.00    +0.000 A 
ATOM     28  C   UNL     1       4.351   5.830  18.601  0.00  0.00    +0.000 A 
ATOM     29  C   UNL     1       4.891   4.648  19.112  0.00  0.00    +0.000 A 
ATOM     30  C   UNL     1       4.070   3.542  19.302  0.00  0.00    +0.000 A 
ATOM     31  F   UNL     1       4.613   2.415  19.785  0.00  0.00    +0.000 F 
ATOM     32  C   UNL     1       2.712   3.607  18.995  0.00  0.00    +0.000 A 
ATOM     33 CL   UNL     1       1.713   2.214  19.165  0.00  0.00    +0.000 Cl
ATOM     34  C   UNL     1       2.157   4.805  18.536  0.00  0.00    +0.000 A 
ENDBRANCH  25  27
ENDBRANCH  22  23
ENDBRANCH   1  22
TORSDOF 7
ENDMDL
MODEL 2
REMARK VINA RESULT:      -8.0      1.289      2.200
REMARK  Name = 
REMARK  9 active torsions:
REMARK  status: ('A' for Active; 'I' for Inactive)
REMARK    1  A    between atoms: C_1  and  O_2
REMARK    2  A    between atoms: O_2  and  C_3
REMARK    3  A    between atoms: C_6  and  C_7
REMARK    4  A    between atoms: C_7  and  C_8
REMARK    5  A    between atoms: C_7  and  N_20
REMARK    6  A    between atoms: C_8  and  C_9
REMARK    7  A    between atoms: N_11  and  C_12
REMARK    8  A    between atoms: C_31  and  O_32
REMARK    9  A    between atoms: O_32  and  C_33
REMARK                            x       y       z     vdW  Elec       q    Type
REMARK                         _______ _______ _______ _____ _____    ______ ____
ROOT
ATOM      1  C   UNL     1       0.446  10.446  18.870  0.00  0.00    +0.000 C 
ENDROOT
BRANCH   1   2
ATOM      2  N   UNL     1       1.226  11.643  19.217  0.00  0.00    +0.000 N 
ATOM      3  C   UNL     1       1.968  12.378  18.202  0.00  0.00    +0.000 C 
ATOM      4  C   UNL     1       2.567  13.507  18.971  0.00  0.00    +0.000 A 
ATOM      5  C   UNL     1       3.325  14.577  18.524  0.00  0.00    +0.000 A 
ATOM      6  C   UNL     1       3.819  15.484  19.468  0.00  0.00    +0.000 A 
ATOM      7  C   UNL     1       3.554  15.305  20.841  0.00  0.00    +0.000 A 
ATOM      8  C   UNL     1       2.759  14.237  21.282  0.00  0.00    +0.000 A 
ATOM      9  C   UNL     1       2.275  13.362  20.326  0.00  0.00    +0.000 A 
ATOM     10  C   UNL     1       1.399  12.187  20.482  0.00  0.00    +0.000 C 
ATOM     11  O   UNL     1       0.900  11.833  21.531  0.00  0.00    +0.000 OA
ENDBRANCH   1   2
BRANCH   1  15
ATOM     12  C   UNL     1      -3.684  11.209  17.710  0.00  0.00    +0.000 A 
ATOM     13  C   UNL     1      -3.125  11.817  18.845  0.00  0.00    +0.000 A 
ATOM     14  C   UNL     1      -1.782  11.616  19.185  0.00  0.00    +0.000 A 
ATOM     15  C   UNL     1      -0.965  10.789  18.404  0.00  0.00    +0.000 A 
ATOM     16  C   UNL     1      -1.530  10.207  17.261  0.00  0.00    +0.000 A 
ATOM     17  C   UNL     1      -2.886  10.363  16.932  0.00  0.00    +0.000 A 
BRANCH  12  19
ATOM     18  C   UNL     1      -5.943  10.954  18.356  0.00  0.00    +0.000 C 
ATOM     19  O   UNL     1      -5.000  11.390  17.382  0.00  0.00    +0.000 OA
ENDBRANCH  12  19
BRANCH  17  20
ATOM     20  O   UNL     1      -3.229   9.603  15.846  0.00  0.00    +0.000 OA
ATOM     21  C   UNL     1      -3.172  10.176  14.551  0.00  0.00    +0.000 C 
ENDBRANCH  17  20
ENDBRANCH   1  15
BRANCH   1  22
ATOM     22  C   UNL     1       1.203   9.491  17.922  0.00  0.00    +0.000 C 
BRANCH  22  23
ATOM     23  C   UNL     1       1.823   8.331  18.689  0.00  0.00    +0.000 C 
ATOM     24  O   UNL     1       1.835   8.279  19.915  0.00  0.00    +0.000 OA
ATOM     25  N   UNL     1       2.461   7.417  17.861  0.00  0.00    +0.000 N 
ATOM     26  H   UNL     1       2.730   7.758  16.945  0.00  0.00    +0.000 HD
BRANCH  25  27
ATOM     27  C   UNL     1       3.134   6.280  18.351  0.00  0.00    +0.000 A 
ATOM     28  C   UNL     1       2.372   5.146  18.649  0.00  0.00    +0.000 A 
ATOM     29  C   UNL     1       2.999   3.970  19.067  0.00  0.00    +0.000 A 
ATOM     30  C   UNL     1       4.377   3.952  19.254  0.00  0.00    +0.000 A 
ATOM     31  F   UNL     1       4.954   2.814  19.663  0.00  0.00    +0.000 F 
ATOM     32  C   UNL     1       5.137   5.097  19.021  0.00  0.00    +0.000 A 
ATOM     33 CL   UNL     1       6.833   5.091  19.322  0.00  0.00    +0.000 Cl
ATOM     34  C   UNL     1       4.521   6.259  18.549  0.00  0.00    +0.000 A 
ENDBRANCH  25  27
ENDBRANCH  22  23
ENDBRANCH   1  22
TORSDOF 7
ENDMDL
MODEL 3
REMARK VINA RESULT:      -7.7      7.301     10.443
REMARK  Name = 
REMARK  9 active torsions:
REMARK  status: ('A' for Active; 'I' for Inactive)
REMARK    1  A    between atoms: C_1  and  O_2
REMARK    2  A    between atoms: O_2  and  C_3
REMARK    3  A    between atoms: C_6  and  C_7
REMARK    4  A    between atoms: C_7  and  C_8
REMARK    5  A    between atoms: C_7  and  N_20
REMARK    6  A    between atoms: C_8  and  C_9
REMARK    7  A    between atoms: N_11  and  C_12
REMARK    8  A    between atoms: C_31  and  O_32
REMARK    9  A    between atoms: O_32  and  C_33
REMARK                            x       y       z     vdW  Elec       q    Type
REMARK                         _______ _______ _______ _____ _____    ______ ____
ROOT
ATOM      1  C   UNL     1       6.296   6.211  17.355  0.00  0.00    +0.000 C 
ENDROOT
BRANCH   1   2
ATOM      2  N   UNL     1       5.191   5.745  18.207  0.00  0.00    +0.000 N 
ATOM      3  C   UNL     1       3.975   6.530  18.359  0.00  0.00    +0.000 C 
ATOM      4  C   UNL     1       3.137   5.685  19.258  0.00  0.00    +0.000 A 
ATOM      5  C   UNL     1       1.840   5.885  19.702  0.00  0.00    +0.000 A 
ATOM      6  C   UNL     1       1.292   4.958  20.596  0.00  0.00    +0.000 A 
ATOM      7  C   UNL     1       2.048   3.853  21.036  0.00  0.00    +0.000 A 
ATOM      8  C   UNL     1       3.348   3.641  20.556  0.00  0.00    +0.000 A 
ATOM      9  C   UNL     1       3.861   4.567  19.666  0.00  0.00    +0.000 A 
ATOM     10  C   UNL     1       5.164   4.590  18.976  0.00  0.00    +0.000 C 
ATOM     11  O   UNL     1       6.001   3.714  19.054  0.00  0.00    +0.000 OA
ENDBRANCH   1   2
BRANCH   1  15
ATOM     12  C   UNL     1       6.474   4.065  13.568  0.00  0.00    +0.000 A 
ATOM     13  C   UNL     1       5.487   3.773  14.521  0.00  0.00    +0.000 A 
ATOM     14  C   UNL     1       5.396   4.501  15.713  0.00  0.00    +0.000 A 
ATOM     15  C   UNL     1       6.300   5.534  15.989  0.00  0.00    +0.000 A 
ATOM     16  C   UNL     1       7.266   5.831  15.018  0.00  0.00    +0.000 A 
ATOM     17  C   UNL     1       7.399   5.081  13.838  0.00  0.00    +0.000 A 
BRANCH  12  19
ATOM     18  C   UNL     1       5.349   2.874  11.865  0.00  0.00    +0.000 C 
ATOM     19  O   UNL     1       6.578   3.347  12.408  0.00  0.00    +0.000 OA
ENDBRANCH  12  19
BRANCH  17  20
ATOM     20  O   UNL     1       8.487   5.481  13.110  0.00  0.00    +0.000 OA
ATOM     21  C   UNL     1       8.290   6.244  11.931  0.00  0.00    +0.000 C 
ENDBRANCH  17  20
ENDBRANCH   1  15
BRANCH   1  22
ATOM     22  C   UNL     1       6.394   7.750  17.291  0.00  0.00    +0.000 C 
BRANCH  22  23
ATOM     23  C   UNL     1       7.678   8.249  17.939  0.00  0.00    +0.000 C 
ATOM     24  O   UNL     1       8.435   7.510  18.562  0.00  0.00    +0.000 OA
ATOM     25  N   UNL     1       7.830   9.626  17.847  0.00  0.00    +0.000 N 
ATOM     26  H   UNL     1       6.983  10.157  17.680  0.00  0.00    +0.000 HD
BRANCH  25  27
ATOM     27  C   UNL     1       8.925  10.314  18.404  0.00  0.00    +0.000 A 
ATOM     28  C   UNL     1       9.082  10.282  19.794  0.00  0.00    +0.000 A 
ATOM     29  C   UNL     1      10.191  10.886  20.389  0.00  0.00    +0.000 A 
ATOM     30  C   UNL     1      11.102  11.581  19.602  0.00  0.00    +0.000 A 
ATOM     31  F   UNL     1      12.155  12.160  20.198  0.00  0.00    +0.000 F 
ATOM     32  C   UNL     1      10.921  11.674  18.223  0.00  0.00    +0.000 A 
ATOM     33 CL   UNL     1      12.012  12.596  17.261  0.00  0.00    +0.000 Cl
ATOM     34  C   UNL     1       9.842  11.024  17.617  0.00  0.00    +0.000 A 
ENDBRANCH  25  27
ENDBRANCH  22  23
ENDBRANCH   1  22
TORSDOF 7
ENDMDL
MODEL 4
REMARK VINA RESULT:      -7.6      4.543      9.477
REMARK  Name = 
REMARK  9 active torsions:
REMARK  status: ('A' for Active; 'I' for Inactive)
REMARK    1  A    between atoms: C_1  and  O_2
REMARK    2  A    between atoms: O_2  and  C_3
REMARK    3  A    between atoms: C_6  and  C_7
REMARK    4  A    between atoms: C_7  and  C_8
REMARK    5  A    between atoms: C_7  and  N_20
REMARK    6  A    between atoms: C_8  and  C_9
REMARK    7  A    between atoms: N_11  and  C_12
REMARK    8  A    between atoms: C_31  and  O_32
REMARK    9  A    between atoms: O_32  and  C_33
REMARK                            x       y       z     vdW  Elec       q    Type
REMARK                         _______ _______ _______ _____ _____    ______ ____
ROOT
ATOM      1  C   UNL     1       3.603   7.020  18.099  0.00  0.00    +0.000 C 
ENDROOT
BRANCH   1   2
ATOM      2  N   UNL     1       2.978   5.901  18.819  0.00  0.00    +0.000 N 
ATOM      3  C   UNL     1       3.300   5.630  20.213  0.00  0.00    +0.000 C 
ATOM      4  C   UNL     1       2.434   4.460  20.539  0.00  0.00    +0.000 A 
ATOM      5  C   UNL     1       2.259   3.800  21.745  0.00  0.00    +0.000 A 
ATOM      6  C   UNL     1       1.419   2.681  21.775  0.00  0.00    +0.000 A 
ATOM      7  C   UNL     1       0.775   2.237  20.603  0.00  0.00    +0.000 A 
ATOM      8  C   UNL     1       0.932   2.930  19.394  0.00  0.00    +0.000 A 
ATOM      9  C   UNL     1       1.760   4.038  19.395  0.00  0.00    +0.000 A 
ATOM     10  C   UNL     1       2.086   4.972  18.302  0.00  0.00    +0.000 C 
ATOM     11  O   UNL     1       1.598   4.930  17.191  0.00  0.00    +0.000 OA
ENDBRANCH   1   2
BRANCH   1  15
ATOM     12  C   UNL     1       6.816   5.462  15.602  0.00  0.00    +0.000 A 
ATOM     13  C   UNL     1       5.635   5.963  15.035  0.00  0.00    +0.000 A 
ATOM     14  C   UNL     1       4.627   6.515  15.834  0.00  0.00    +0.000 A 
ATOM     15  C   UNL     1       4.769   6.568  17.226  0.00  0.00    +0.000 A 
ATOM     16  C   UNL     1       5.964   6.085  17.777  0.00  0.00    +0.000 A 
ATOM     17  C   UNL     1       6.964   5.488  16.994  0.00  0.00    +0.000 A 
BRANCH  12  19
ATOM     18  C   UNL     1       7.741   5.225  13.440  0.00  0.00    +0.000 C 
ATOM     19  O   UNL     1       7.798   4.907  14.827  0.00  0.00    +0.000 OA
ENDBRANCH  12  19
BRANCH  17  20
ATOM     20  O   UNL     1       7.974   4.985  17.769  0.00  0.00    +0.000 OA
ATOM     21  C   UNL     1       8.090   5.406  19.117  0.00  0.00    +0.000 C 
ENDBRANCH  17  20
ENDBRANCH   1  15
BRANCH   1  22
ATOM     22  C   UNL     1       2.576   7.905  17.360  0.00  0.00    +0.000 C 
BRANCH  22  23
ATOM     23  C   UNL     1       1.999   8.969  18.285  0.00  0.00    +0.000 C 
ATOM     24  O   UNL     1       2.274  10.160  18.176  0.00  0.00    +0.000 OA
ATOM     25  N   UNL     1       1.238   8.432  19.315  0.00  0.00    +0.000 N 
ATOM     26  H   UNL     1       1.410   7.458  19.536  0.00  0.00    +0.000 HD
BRANCH  25  27
ATOM     27  C   UNL     1       0.632   9.223  20.311  0.00  0.00    +0.000 A 
ATOM     28  C   UNL     1       0.931   8.937  21.647  0.00  0.00    +0.000 A 
ATOM     29  C   UNL     1       0.416   9.737  22.669  0.00  0.00    +0.000 A 
ATOM     30  C   UNL     1      -0.455  10.776  22.357  0.00  0.00    +0.000 A 
ATOM     31  F   UNL     1      -0.944  11.524  23.357  0.00  0.00    +0.000 F 
ATOM     32  C   UNL     1      -0.811  11.028  21.034  0.00  0.00    +0.000 A 
ATOM     33 CL   UNL     1      -1.945  12.269  20.659  0.00  0.00    +0.000 Cl
ATOM     34  C   UNL     1      -0.253  10.265  20.004  0.00  0.00    +0.000 A 
ENDBRANCH  25  27
ENDBRANCH  22  23
ENDBRANCH   1  22
TORSDOF 7
ENDMDL
MODEL 5
REMARK VINA RESULT:      -7.6      4.279      9.749
REMARK  Name = 
REMARK  9 active torsions:
REMARK  status: ('A' for Active; 'I' for Inactive)
REMARK    1  A    between atoms: C_1  and  O_2
REMARK    2  A    between atoms: O_2  and  C_3
REMARK    3  A    between atoms: C_6  and  C_7
REMARK    4  A    between atoms: C_7  and  C_8
REMARK    5  A    between atoms: C_7  and  N_20
REMARK    6  A    between atoms: C_8  and  C_9
REMARK    7  A    between atoms: N_11  and  C_12
REMARK    8  A    between atoms: C_31  and  O_32
REMARK    9  A    between atoms: O_32  and  C_33
REMARK                            x       y       z     vdW  Elec       q    Type
REMARK                         _______ _______ _______ _____ _____    ______ ____
ROOT
ATOM      1  C   UNL     1       3.469   7.080  18.213  0.00  0.00    +0.000 C 
ENDROOT
BRANCH   1   2
ATOM      2  N   UNL     1       2.877   5.918  18.894  0.00  0.00    +0.000 N 
ATOM      3  C   UNL     1       3.205   5.610  20.278  0.00  0.00    +0.000 C 
ATOM      4  C   UNL     1       2.374   4.404  20.562  0.00  0.00    +0.000 A 
ATOM      5  C   UNL     1       2.217   3.697  21.743  0.00  0.00    +0.000 A 
ATOM      6  C   UNL     1       1.410   2.553  21.733  0.00  0.00    +0.000 A 
ATOM      7  C   UNL     1       0.782   2.131  20.544  0.00  0.00    +0.000 A 
ATOM      8  C   UNL     1       0.921   2.869  19.360  0.00  0.00    +0.000 A 
ATOM      9  C   UNL     1       1.715   4.001  19.402  0.00  0.00    +0.000 A 
ATOM     10  C   UNL     1       2.014   4.981  18.342  0.00  0.00    +0.000 C 
ATOM     11  O   UNL     1       1.530   4.963  17.229  0.00  0.00    +0.000 OA
ENDBRANCH   1   2
BRANCH   1  15
ATOM     12  C   UNL     1       6.759   5.707  15.709  0.00  0.00    +0.000 A 
ATOM     13  C   UNL     1       5.551   6.142  15.144  0.00  0.00    +0.000 A 
ATOM     14  C   UNL     1       4.515   6.636  15.946  0.00  0.00    +0.000 A 
ATOM     15  C   UNL     1       4.657   6.695  17.338  0.00  0.00    +0.000 A 
ATOM     16  C   UNL     1       5.878   6.279  17.886  0.00  0.00    +0.000 A 
ATOM     17  C   UNL     1       6.909   5.739  17.100  0.00  0.00    +0.000 A 
BRANCH  12  19
ATOM     18  C   UNL     1       7.441   4.987  13.563  0.00  0.00    +0.000 C 
ATOM     19  O   UNL     1       7.770   5.209  14.931  0.00  0.00    +0.000 OA
ENDBRANCH  12  19
BRANCH  17  20
ATOM     20  O   UNL     1       7.947   5.293  17.872  0.00  0.00    +0.000 OA
ATOM     21  C   UNL     1       8.044   5.721  19.220  0.00  0.00    +0.000 C 
ENDBRANCH  17  20
ENDBRANCH   1  15
BRANCH   1  22
ATOM     22  C   UNL     1       2.419   7.952  17.493  0.00  0.00    +0.000 C 
BRANCH  22  23
ATOM     23  C   UNL     1       1.692   8.862  18.475  0.00  0.00    +0.000 C 
ATOM     24  O   UNL     1       1.596   8.603  19.670  0.00  0.00    +0.000 OA
ATOM     25  N   UNL     1       1.066   9.935  17.853  0.00  0.00    +0.000 N 
ATOM     26  H   UNL     1       0.876   9.827  16.863  0.00  0.00    +0.000 HD
BRANCH  25  27
ATOM     27  C   UNL     1       0.306  10.890  18.557  0.00  0.00    +0.000 A 
ATOM     28  C   UNL     1      -1.086  10.750  18.557  0.00  0.00    +0.000 A 
ATOM     29  C   UNL     1      -1.879  11.626  19.300  0.00  0.00    +0.000 A 
ATOM     30  C   UNL     1      -1.286  12.683  19.981  0.00  0.00    +0.000 A 
ATOM     31  F   UNL     1      -2.070  13.516  20.681  0.00  0.00    +0.000 F 
ATOM     32  C   UNL     1       0.094  12.869  19.935  0.00  0.00    +0.000 A 
ATOM     33 CL   UNL     1       0.817  14.220  20.722  0.00  0.00    +0.000 Cl
ATOM     34  C   UNL     1       0.897  11.962  19.239  0.00  0.00    +0.000 A 
ENDBRANCH  25  27
ENDBRANCH  22  23
ENDBRANCH   1  22
TORSDOF 7
ENDMDL
MODEL 6
REMARK VINA RESULT:      -7.5      1.829      5.490
REMARK  Name = 
REMARK  9 active torsions:
REMARK  status: ('A' for Active; 'I' for Inactive)
REMARK    1  A    between atoms: C_1  and  O_2
REMARK    2  A    between atoms: O_2  and  C_3
REMARK    3  A    between atoms: C_6  and  C_7
REMARK    4  A    between atoms: C_7  and  C_8
REMARK    5  A    between atoms: C_7  and  N_20
REMARK    6  A    between atoms: C_8  and  C_9
REMARK    7  A    between atoms: N_11  and  C_12
REMARK    8  A    between atoms: C_31  and  O_32
REMARK    9  A    between atoms: O_32  and  C_33
REMARK                            x       y       z     vdW  Elec       q    Type
REMARK                         _______ _______ _______ _____ _____    ______ ____
ROOT
ATOM      1  C   UNL     1       0.530  10.566  19.272  0.00  0.00    +0.000 C 
ENDROOT
BRANCH   1   2
ATOM      2  N   UNL     1      -0.879  10.831  18.945  0.00  0.00    +0.000 N 
ATOM      3  C   UNL     1      -1.697  11.691  19.788  0.00  0.00    +0.000 C 
ATOM      4  C   UNL     1      -3.011  11.707  19.080  0.00  0.00    +0.000 A 
ATOM      5  C   UNL     1      -4.165  12.413  19.377  0.00  0.00    +0.000 A 
ATOM      6  C   UNL     1      -5.295  12.209  18.576  0.00  0.00    +0.000 A 
ATOM      7  C   UNL     1      -5.255  11.301  17.499  0.00  0.00    +0.000 A 
ATOM      8  C   UNL     1      -4.073  10.614  17.187  0.00  0.00    +0.000 A 
ATOM      9  C   UNL     1      -2.969  10.843  17.988  0.00  0.00    +0.000 A 
ATOM     10  C   UNL     1      -1.602  10.302  17.885  0.00  0.00    +0.000 C 
ATOM     11  O   UNL     1      -1.212   9.578  16.992  0.00  0.00    +0.000 OA
ENDBRANCH   1   2
BRANCH   1  15
ATOM     12  C   UNL     1       3.140  14.046  19.507  0.00  0.00    +0.000 A 
ATOM     13  C   UNL     1       3.019  13.309  18.319  0.00  0.00    +0.000 A 
ATOM     14  C   UNL     1       2.138  12.226  18.228  0.00  0.00    +0.000 A 
ATOM     15  C   UNL     1       1.363  11.842  19.329  0.00  0.00    +0.000 A 
ATOM     16  C   UNL     1       1.476  12.602  20.502  0.00  0.00    +0.000 A 
ATOM     17  C   UNL     1       2.388  13.662  20.623  0.00  0.00    +0.000 A 
BRANCH  12  19
ATOM     18  C   UNL     1       4.545  15.573  18.375  0.00  0.00    +0.000 C 
ATOM     19  O   UNL     1       4.011  15.097  19.607  0.00  0.00    +0.000 OA
ENDBRANCH  12  19
BRANCH  17  20
ATOM     20  O   UNL     1       2.402  14.167  21.895  0.00  0.00    +0.000 OA
ATOM     21  C   UNL     1       1.580  15.277  22.211  0.00  0.00    +0.000 C 
ENDBRANCH  17  20
ENDBRANCH   1  15
BRANCH   1  22
ATOM     22  C   UNL     1       0.697   9.655  20.507  0.00  0.00    +0.000 C 
BRANCH  22  23
ATOM     23  C   UNL     1       1.460   8.385  20.156  0.00  0.00    +0.000 C 
ATOM     24  O   UNL     1       1.832   7.580  21.005  0.00  0.00    +0.000 OA
ATOM     25  N   UNL     1       1.783   8.304  18.808  0.00  0.00    +0.000 N 
ATOM     26  H   UNL     1       1.785   9.180  18.297  0.00  0.00    +0.000 HD
BRANCH  25  27
ATOM     27  C   UNL     1       2.516   7.235  18.259  0.00  0.00    +0.000 A 
ATOM     28  C   UNL     1       3.754   7.521  17.672  0.00  0.00    +0.000 A 
ATOM     29  C   UNL     1       4.553   6.488  17.180  0.00  0.00    +0.000 A 
ATOM     30  C   UNL     1       4.082   5.179  17.209  0.00  0.00    +0.000 A 
ATOM     31  F   UNL     1       4.865   4.205  16.722  0.00  0.00    +0.000 F 
ATOM     32  C   UNL     1       2.823   4.891  17.733  0.00  0.00    +0.000 A 
ATOM     33 CL   UNL     1       2.215   3.280  17.701  0.00  0.00    +0.000 Cl
ATOM     34  C   UNL     1       2.044   5.915  18.277  0.00  0.00    +0.000 A 
ENDBRANCH  25  27
ENDBRANCH  22  23
ENDBRANCH   1  22
TORSDOF 7
ENDMDL
MODEL 7
REMARK VINA RESULT:      -7.5      1.102      2.186
REMARK  Name = 
REMARK  9 active torsions:
REMARK  status: ('A' for Active; 'I' for Inactive)
REMARK    1  A    between atoms: C_1  and  O_2
REMARK    2  A    between atoms: O_2  and  C_3
REMARK    3  A    between atoms: C_6  and  C_7
REMARK    4  A    between atoms: C_7  and  C_8
REMARK    5  A    between atoms: C_7  and  N_20
REMARK    6  A    between atoms: C_8  and  C_9
REMARK    7  A    between atoms: N_11  and  C_12
REMARK    8  A    between atoms: C_31  and  O_32
REMARK    9  A    between atoms: O_32  and  C_33
REMARK                            x       y       z     vdW  Elec       q    Type
REMARK                         _______ _______ _______ _____ _____    ______ ____
ROOT
ATOM      1  C   UNL     1       0.542  10.445  19.043  0.00  0.00    +0.000 C 
ENDROOT
BRANCH   1   2
ATOM      2  N   UNL     1       1.271  11.664  19.423  0.00  0.00    +0.000 N 
ATOM      3  C   UNL     1       1.055  12.297  20.716  0.00  0.00    +0.000 C 
ATOM      4  C   UNL     1       2.001  13.451  20.690  0.00  0.00    +0.000 A 
ATOM      5  C   UNL     1       2.289  14.379  21.677  0.00  0.00    +0.000 A 
ATOM      6  C   UNL     1       3.188  15.410  21.380  0.00  0.00    +0.000 A 
ATOM      7  C   UNL     1       3.776  15.501  20.103  0.00  0.00    +0.000 A 
ATOM      8  C   UNL     1       3.504  14.539  19.120  0.00  0.00    +0.000 A 
ATOM      9  C   UNL     1       2.621  13.525  19.444  0.00  0.00    +0.000 A 
ATOM     10  C   UNL     1       2.175  12.371  18.642  0.00  0.00    +0.000 C 
ATOM     11  O   UNL     1       2.590  12.099  17.534  0.00  0.00    +0.000 OA
ENDBRANCH   1   2
BRANCH   1  15
ATOM     12  C   UNL     1      -3.549  11.091  17.689  0.00  0.00    +0.000 A 
ATOM     13  C   UNL     1      -3.058  11.724  18.841  0.00  0.00    +0.000 A 
ATOM     14  C   UNL     1      -1.727  11.561  19.243  0.00  0.00    +0.000 A 
ATOM     15  C   UNL     1      -0.855  10.747  18.510  0.00  0.00    +0.000 A 
ATOM     16  C   UNL     1      -1.352  10.141  17.348  0.00  0.00    +0.000 A 
ATOM     17  C   UNL     1      -2.696  10.258  16.957  0.00  0.00    +0.000 A 
BRANCH  12  19
ATOM     18  C   UNL     1      -5.829  10.933  18.292  0.00  0.00    +0.000 C 
ATOM     19  O   UNL     1      -4.853  11.235  17.300  0.00  0.00    +0.000 OA
ENDBRANCH  12  19
BRANCH  17  20
ATOM     20  O   UNL     1      -2.970   9.479  15.865  0.00  0.00    +0.000 OA
ATOM     21  C   UNL     1      -3.071  10.085  14.588  0.00  0.00    +0.000 C 
ENDBRANCH  17  20
ENDBRANCH   1  15
BRANCH   1  22
ATOM     22  C   UNL     1       1.369   9.511  18.134  0.00  0.00    +0.000 C 
BRANCH  22  23
ATOM     23  C   UNL     1       1.816   8.264  18.886  0.00  0.00    +0.000 C 
ATOM     24  O   UNL     1       1.793   8.186  20.110  0.00  0.00    +0.000 OA
ATOM     25  N   UNL     1       2.351   7.293  18.050  0.00  0.00    +0.000 N 
ATOM     26  H   UNL     1       2.683   7.615  17.148  0.00  0.00    +0.000 HD
BRANCH  25  27
ATOM     27  C   UNL     1       2.860   6.069  18.526  0.00  0.00    +0.000 A 
ATOM     28  C   UNL     1       4.249   5.926  18.614  0.00  0.00    +0.000 A 
ATOM     29  C   UNL     1       4.802   4.762  19.149  0.00  0.00    +0.000 A 
ATOM     30  C   UNL     1       3.969   3.714  19.527  0.00  0.00    +0.000 A 
ATOM     31  F   UNL     1       4.525   2.602  20.030  0.00  0.00    +0.000 F 
ATOM     32  C   UNL     1       2.587   3.821  19.383  0.00  0.00    +0.000 A 
ATOM     33 CL   UNL     1       1.565   2.495  19.786  0.00  0.00    +0.000 Cl
ATOM     34  C   UNL     1       2.027   5.007  18.900  0.00  0.00    +0.000 A 
ENDBRANCH  25  27
ENDBRANCH  22  23
ENDBRANCH   1  22
TORSDOF 7
ENDMDL
MODEL 8
REMARK VINA RESULT:      -7.5      1.554      2.254
REMARK  Name = 
REMARK  9 active torsions:
REMARK  status: ('A' for Active; 'I' for Inactive)
REMARK    1  A    between atoms: C_1  and  O_2
REMARK    2  A    between atoms: O_2  and  C_3
REMARK    3  A    between atoms: C_6  and  C_7
REMARK    4  A    between atoms: C_7  and  C_8
REMARK    5  A    between atoms: C_7  and  N_20
REMARK    6  A    between atoms: C_8  and  C_9
REMARK    7  A    between atoms: N_11  and  C_12
REMARK    8  A    between atoms: C_31  and  O_32
REMARK    9  A    between atoms: O_32  and  C_33
REMARK                            x       y       z     vdW  Elec       q    Type
REMARK                         _______ _______ _______ _____ _____    ______ ____
ROOT
ATOM      1  C   UNL     1      -0.431  11.129  18.925  0.00  0.00    +0.000 C 
ENDROOT
BRANCH   1   2
ATOM      2  N   UNL     1       0.289  12.345  19.334  0.00  0.00    +0.000 N 
ATOM      3  C   UNL     1       0.539  13.425  18.390  0.00  0.00    +0.000 C 
ATOM      4  C   UNL     1       1.247  14.442  19.219  0.00  0.00    +0.000 A 
ATOM      5  C   UNL     1       1.678  15.714  18.879  0.00  0.00    +0.000 A 
ATOM      6  C   UNL     1       2.375  16.460  19.838  0.00  0.00    +0.000 A 
ATOM      7  C   UNL     1       2.636  15.921  21.113  0.00  0.00    +0.000 A 
ATOM      8  C   UNL     1       2.168  14.645  21.460  0.00  0.00    +0.000 A 
ATOM      9  C   UNL     1       1.473  13.935  20.497  0.00  0.00    +0.000 A 
ATOM     10  C   UNL     1       0.840  12.606  20.581  0.00  0.00    +0.000 C 
ATOM     11  O   UNL     1       0.787  11.929  21.587  0.00  0.00    +0.000 OA
ENDBRANCH   1   2
BRANCH   1  15
ATOM     12  C   UNL     1      -4.583  11.706  17.739  0.00  0.00    +0.000 A 
ATOM     13  C   UNL     1      -4.146  12.033  19.032  0.00  0.00    +0.000 A 
ATOM     14  C   UNL     1      -2.801  11.900  19.394  0.00  0.00    +0.000 A 
ATOM     15  C   UNL     1      -1.858  11.424  18.475  0.00  0.00    +0.000 A 
ATOM     16  C   UNL     1      -2.304  11.125  17.181  0.00  0.00    +0.000 A 
ATOM     17  C   UNL     1      -3.657  11.209  16.815  0.00  0.00    +0.000 A 
BRANCH  12  19
ATOM     18  C   UNL     1      -6.842  11.441  18.382  0.00  0.00    +0.000 C 
ATOM     19  O   UNL     1      -5.900  11.819  17.383  0.00  0.00    +0.000 OA
ENDBRANCH  12  19
BRANCH  17  20
ATOM     20  O   UNL     1      -3.861  10.749  15.542  0.00  0.00    +0.000 OA
ATOM     21  C   UNL     1      -2.842  10.001  14.902  0.00  0.00    +0.000 C 
ENDBRANCH  17  20
ENDBRANCH   1  15
BRANCH   1  22
ATOM     22  C   UNL     1       0.372  10.264  17.931  0.00  0.00    +0.000 C 
BRANCH  22  23
ATOM     23  C   UNL     1       1.160   9.180  18.654  0.00  0.00    +0.000 C 
ATOM     24  O   UNL     1       1.255   9.136  19.877  0.00  0.00    +0.000 OA
ATOM     25  N   UNL     1       1.838   8.335  17.786  0.00  0.00    +0.000 N 
ATOM     26  H   UNL     1       2.011   8.698  16.855  0.00  0.00    +0.000 HD
BRANCH  25  27
ATOM     27  C   UNL     1       2.659   7.279  18.229  0.00  0.00    +0.000 A 
ATOM     28  C   UNL     1       3.896   7.101  17.601  0.00  0.00    +0.000 A 
ATOM     29  C   UNL     1       4.777   6.117  18.052  0.00  0.00    +0.000 A 
ATOM     30  C   UNL     1       4.390   5.266  19.082  0.00  0.00    +0.000 A 
ATOM     31  F   UNL     1       5.250   4.322  19.491  0.00  0.00    +0.000 F 
ATOM     32  C   UNL     1       3.133   5.393  19.671  0.00  0.00    +0.000 A 
ATOM     33 CL   UNL     1       2.632   4.292  20.897  0.00  0.00    +0.000 Cl
ATOM     34  C   UNL     1       2.271   6.413  19.260  0.00  0.00    +0.000 A 
ENDBRANCH  25  27
ENDBRANCH  22  23
ENDBRANCH   1  22
TORSDOF 7
ENDMDL
MODEL 9
REMARK VINA RESULT:      -7.5      4.005      7.441
REMARK  Name = 
REMARK  9 active torsions:
REMARK  status: ('A' for Active; 'I' for Inactive)
REMARK    1  A    between atoms: C_1  and  O_2
REMARK    2  A    between atoms: O_2  and  C_3
REMARK    3  A    between atoms: C_6  and  C_7
REMARK    4  A    between atoms: C_7  and  C_8
REMARK    5  A    between atoms: C_7  and  N_20
REMARK    6  A    between atoms: C_8  and  C_9
REMARK    7  A    between atoms: N_11  and  C_12
REMARK    8  A    between atoms: C_31  and  O_32
REMARK    9  A    between atoms: O_32  and  C_33
REMARK                            x       y       z     vdW  Elec       q    Type
REMARK                         _______ _______ _______ _____ _____    ______ ____
ROOT
ATOM      1  C   UNL     1       0.399  11.341  19.450  0.00  0.00    +0.000 C 
ENDROOT
BRANCH   1   2
ATOM      2  N   UNL     1       0.982   9.991  19.438  0.00  0.00    +0.000 N 
ATOM      3  C   UNL     1       0.823   9.093  20.573  0.00  0.00    +0.000 C 
ATOM      4  C   UNL     1       1.526   7.856  20.126  0.00  0.00    +0.000 A 
ATOM      5  C   UNL     1       1.649   6.631  20.762  0.00  0.00    +0.000 A 
ATOM      6  C   UNL     1       2.416   5.635  20.146  0.00  0.00    +0.000 A 
ATOM      7  C   UNL     1       3.052   5.881  18.912  0.00  0.00    +0.000 A 
ATOM      8  C   UNL     1       2.896   7.112  18.260  0.00  0.00    +0.000 A 
ATOM      9  C   UNL     1       2.124   8.074  18.886  0.00  0.00    +0.000 A 
ATOM     10  C   UNL     1       1.757   9.428  18.433  0.00  0.00    +0.000 C 
ATOM     11  O   UNL     1       2.052   9.899  17.354  0.00  0.00    +0.000 OA
ENDBRANCH   1   2
BRANCH   1  15
ATOM     12  C   UNL     1      -3.684  11.200  17.935  0.00  0.00    +0.000 A 
ATOM     13  C   UNL     1      -3.359  11.950  19.075  0.00  0.00    +0.000 A 
ATOM     14  C   UNL     1      -2.038  12.040  19.528  0.00  0.00    +0.000 A 
ATOM     15  C   UNL     1      -1.007  11.371  18.858  0.00  0.00    +0.000 A 
ATOM     16  C   UNL     1      -1.342  10.645  17.707  0.00  0.00    +0.000 A 
ATOM     17  C   UNL     1      -2.667  10.508  17.266  0.00  0.00    +0.000 A 
BRANCH  12  19
ATOM     18  C   UNL     1      -5.956  10.894  18.509  0.00  0.00    +0.000 C 
ATOM     19  O   UNL     1      -4.976  11.096  17.496  0.00  0.00    +0.000 OA
ENDBRANCH  12  19
BRANCH  17  20
ATOM     20  O   UNL     1      -2.755   9.656  16.198  0.00  0.00    +0.000 OA
ATOM     21  C   UNL     1      -2.968  10.187  14.902  0.00  0.00    +0.000 C 
ENDBRANCH  17  20
ENDBRANCH   1  15
BRANCH   1  22
ATOM     22  C   UNL     1       0.512  12.031  20.826  0.00  0.00    +0.000 C 
BRANCH  22  23
ATOM     23  C   UNL     1       1.387  13.275  20.749  0.00  0.00    +0.000 C 
ATOM     24  O   UNL     1       1.181  14.273  21.433  0.00  0.00    +0.000 OA
ATOM     25  N   UNL     1       2.351  13.195  19.753  0.00  0.00    +0.000 N 
ATOM     26  H   UNL     1       2.173  12.526  19.012  0.00  0.00    +0.000 HD
BRANCH  25  27
ATOM     27  C   UNL     1       3.253  14.241  19.474  0.00  0.00    +0.000 A 
ATOM     28  C   UNL     1       3.048  14.991  18.311  0.00  0.00    +0.000 A 
ATOM     29  C   UNL     1       3.868  16.084  18.028  0.00  0.00    +0.000 A 
ATOM     30  C   UNL     1       4.935  16.382  18.869  0.00  0.00    +0.000 A 
ATOM     31  F   UNL     1       5.714  17.432  18.571  0.00  0.00    +0.000 F 
ATOM     32  C   UNL     1       5.186  15.602  19.997  0.00  0.00    +0.000 A 
ATOM     33 CL   UNL     1       6.550  15.931  20.996  0.00  0.00    +0.000 Cl
ATOM     34  C   UNL     1       4.334  14.541  20.314  0.00  0.00    +0.000 A 
ENDBRANCH  25  27
ENDBRANCH  22  23
ENDBRANCH   1  22
TORSDOF 7
ENDMDL
