MODEL 1
REMARK VINA RESULT:      -7.2      0.000      0.000
REMARK  Name = 
REMARK  2 active torsions:
REMARK  status: ('A' for Active; 'I' for Inactive)
REMARK    1  A    between atoms: C_1  and  C_2
REMARK    2  A    between atoms: C_2  and  N_3
REMARK                            x       y       z     vdW  Elec       q    Type
REMARK                         _______ _______ _______ _____ _____    ______ ____
ROOT
ATOM      1  N   UNL     1       5.397   5.667  16.576  0.00  0.00    +0.000 NA
ATOM      2  C   UNL     1       5.178   4.286  17.030  0.00  0.00    +0.000 C 
ATOM      3  C   UNL     1       3.709   3.878  16.983  0.00  0.00    +0.000 C 
ATOM      4  C   UNL     1       3.038   4.188  18.298  0.00  0.00    +0.000 A 
ATOM      5  C   UNL     1       2.724   3.163  19.211  0.00  0.00    +0.000 A 
ATOM      6 CL   UNL     1       3.115   1.502  18.925  0.00  0.00    +0.000 Cl
ATOM      7  C   UNL     1       2.111   3.458  20.423  0.00  0.00    +0.000 A 
ATOM      8  C   UNL     1       1.800   4.775  20.728  0.00  0.00    +0.000 A 
ATOM      9  C   UNL     1       2.118   5.825  19.847  0.00  0.00    +0.000 A 
ATOM     10  C   UNL     1       2.775   5.552  18.637  0.00  0.00    +0.000 A 
ATOM     11  C   UNL     1       3.220   6.656  17.692  0.00  0.00    +0.000 C 
ATOM     12  C   UNL     1       2.771   8.089  18.068  0.00  0.00    +0.000 C 
ATOM     13  C   UNL     1       1.902   8.326  19.292  0.00  0.00    +0.000 C 
ATOM     14  C   UNL     1       1.757   7.204  20.301  0.00  0.00    +0.000 C 
ATOM     15  C   UNL     1       4.773   6.682  17.464  0.00  0.00    +0.000 C 
ENDROOT
BRANCH   1  17
ATOM     16  C   UNL     1       7.390   6.922  17.516  0.00  0.00    +0.000 C 
ATOM     17  C   UNL     1       6.844   5.963  16.458  0.00  0.00    +0.000 C 
ENDBRANCH   1  17
TORSDOF 1
ENDMDL
MODEL 2
REMARK VINA RESULT:      -6.8      1.739      4.062
REMARK  Name = 
REMARK  2 active torsions:
REMARK  status: ('A' for Active; 'I' for Inactive)
REMARK    1  A    between atoms: C_1  and  C_2
REMARK    2  A    between atoms: C_2  and  N_3
REMARK                            x       y       z     vdW  Elec       q    Type
REMARK                         _______ _______ _______ _____ _____    ______ ____
ROOT
ATOM      1  N   UNL     1       2.338   7.630  19.509  0.00  0.00    +0.000 NA
ATOM      2  C   UNL     1       1.645   6.543  20.217  0.00  0.00    +0.000 C 
ATOM      3  C   UNL     1       2.600   5.462  20.712  0.00  0.00    +0.000 C 
ATOM      4  C   UNL     1       2.760   4.387  19.666  0.00  0.00    +0.000 A 
ATOM      5  C   UNL     1       2.138   3.132  19.814  0.00  0.00    +0.000 A 
ATOM      6 CL   UNL     1       1.123   2.744  21.160  0.00  0.00    +0.000 Cl
ATOM      7  C   UNL     1       2.286   2.149  18.843  0.00  0.00    +0.000 A 
ATOM      8  C   UNL     1       3.061   2.409  17.723  0.00  0.00    +0.000 A 
ATOM      9  C   UNL     1       3.680   3.659  17.534  0.00  0.00    +0.000 A 
ATOM     10  C   UNL     1       3.508   4.678  18.483  0.00  0.00    +0.000 A 
ATOM     11  C   UNL     1       4.080   6.072  18.285  0.00  0.00    +0.000 C 
ATOM     12  C   UNL     1       4.992   6.258  17.048  0.00  0.00    +0.000 C 
ATOM     13  C   UNL     1       5.305   5.081  16.140  0.00  0.00    +0.000 C 
ATOM     14  C   UNL     1       4.467   3.826  16.273  0.00  0.00    +0.000 C 
ATOM     15  C   UNL     1       2.977   7.189  18.243  0.00  0.00    +0.000 C 
ENDROOT
BRANCH   1  17
ATOM     16  C   UNL     1       1.707   9.497  17.913  0.00  0.00    +0.000 C 
ATOM     17  C   UNL     1       1.408   8.745  19.210  0.00  0.00    +0.000 C 
ENDBRANCH   1  17
TORSDOF 1
ENDMDL
MODEL 3
REMARK VINA RESULT:      -6.8      2.108      4.327
REMARK  Name = 
REMARK  2 active torsions:
REMARK  status: ('A' for Active; 'I' for Inactive)
REMARK    1  A    between atoms: C_1  and  C_2
REMARK    2  A    between atoms: C_2  and  N_3
REMARK                            x       y       z     vdW  Elec       q    Type
REMARK                         _______ _______ _______ _____ _____    ______ ____
ROOT
ATOM      1  N   UNL     1       2.886   3.254  19.845  0.00  0.00    +0.000 NA
ATOM      2  C   UNL     1       3.969   2.990  18.887  0.00  0.00    +0.000 C 
ATOM      3  C   UNL     1       5.112   3.995  19.002  0.00  0.00    +0.000 C 
ATOM      4  C   UNL     1       4.873   5.165  18.081  0.00  0.00    +0.000 A 
ATOM      5  C   UNL     1       5.602   5.305  16.883  0.00  0.00    +0.000 A 
ATOM      6 CL   UNL     1       6.776   4.147  16.361  0.00  0.00    +0.000 Cl
ATOM      7  C   UNL     1       5.372   6.383  16.037  0.00  0.00    +0.000 A 
ATOM      8  C   UNL     1       4.420   7.331  16.382  0.00  0.00    +0.000 A 
ATOM      9  C   UNL     1       3.661   7.210  17.561  0.00  0.00    +0.000 A 
ATOM     10  C   UNL     1       3.849   6.107  18.407  0.00  0.00    +0.000 A 
ATOM     11  C   UNL     1       2.995   5.882  19.645  0.00  0.00    +0.000 C 
ATOM     12  C   UNL     1       2.008   7.021  20.000  0.00  0.00    +0.000 C 
ATOM     13  C   UNL     1       1.961   8.287  19.161  0.00  0.00    +0.000 C 
ATOM     14  C   UNL     1       2.646   8.282  17.810  0.00  0.00    +0.000 C 
ATOM     15  C   UNL     1       2.183   4.539  19.596  0.00  0.00    +0.000 C 
ENDROOT
BRANCH   1  17
ATOM     16  C   UNL     1       0.724   2.360  18.864  0.00  0.00    +0.000 C 
ATOM     17  C   UNL     1       1.889   2.156  19.833  0.00  0.00    +0.000 C 
ENDBRANCH   1  17
TORSDOF 1
ENDMDL
MODEL 4
REMARK VINA RESULT:      -6.5      5.116      7.666
REMARK  Name = 
REMARK  2 active torsions:
REMARK  status: ('A' for Active; 'I' for Inactive)
REMARK    1  A    between atoms: C_1  and  C_2
REMARK    2  A    between atoms: C_2  and  N_3
REMARK                            x       y       z     vdW  Elec       q    Type
REMARK                         _______ _______ _______ _____ _____    ______ ____
ROOT
ATOM      1  N   UNL     1      -1.774  11.315  17.844  0.00  0.00    +0.000 NA
ATOM      2  C   UNL     1      -2.175  11.677  19.211  0.00  0.00    +0.000 C 
ATOM      3  C   UNL     1      -0.998  12.134  20.068  0.00  0.00    +0.000 C 
ATOM      4  C   UNL     1      -0.390  10.958  20.789  0.00  0.00    +0.000 A 
ATOM      5  C   UNL     1      -0.605  10.761  22.167  0.00  0.00    +0.000 A 
ATOM      6 CL   UNL     1      -1.604  11.807  23.117  0.00  0.00    +0.000 Cl
ATOM      7  C   UNL     1      -0.045   9.671  22.823  0.00  0.00    +0.000 A 
ATOM      8  C   UNL     1       0.739   8.776  22.111  0.00  0.00    +0.000 A 
ATOM      9  C   UNL     1       0.959   8.932  20.730  0.00  0.00    +0.000 A 
ATOM     10  C   UNL     1       0.367  10.003  20.042  0.00  0.00    +0.000 A 
ATOM     11  C   UNL     1       0.499  10.167  18.536  0.00  0.00    +0.000 C 
ATOM     12  C   UNL     1       1.449   9.171  17.829  0.00  0.00    +0.000 C 
ATOM     13  C   UNL     1       2.218   8.137  18.635  0.00  0.00    +0.000 C 
ATOM     14  C   UNL     1       1.800   7.886  20.069  0.00  0.00    +0.000 C 
ATOM     15  C   UNL     1      -0.883  10.128  17.791  0.00  0.00    +0.000 C 
ENDROOT
BRANCH   1  17
ATOM     16  C   UNL     1      -2.714  10.109  15.821  0.00  0.00    +0.000 C 
ATOM     17  C   UNL     1      -2.960  11.059  16.993  0.00  0.00    +0.000 C 
ENDBRANCH   1  17
TORSDOF 1
ENDMDL
MODEL 5
REMARK VINA RESULT:      -6.4      2.438      5.000
REMARK  Name = 
REMARK  2 active torsions:
REMARK  status: ('A' for Active; 'I' for Inactive)
REMARK    1  A    between atoms: C_1  and  C_2
REMARK    2  A    between atoms: C_2  and  N_3
REMARK                            x       y       z     vdW  Elec       q    Type
REMARK                         _______ _______ _______ _____ _____    ______ ____
ROOT
ATOM      1  N   UNL     1       1.387   7.517  20.146  0.00  0.00    +0.000 NA
ATOM      2  C   UNL     1       2.346   7.828  19.076  0.00  0.00    +0.000 C 
ATOM      3  C   UNL     1       2.272   6.840  17.916  0.00  0.00    +0.000 C 
ATOM      4  C   UNL     1       3.227   5.696  18.143  0.00  0.00    +0.000 A 
ATOM      5  C   UNL     1       4.434   5.605  17.423  0.00  0.00    +0.000 A 
ATOM      6 CL   UNL     1       4.931   6.799  16.274  0.00  0.00    +0.000 Cl
ATOM      7  C   UNL     1       5.312   4.550  17.642  0.00  0.00    +0.000 A 
ATOM      8  C   UNL     1       4.988   3.575  18.575  0.00  0.00    +0.000 A 
ATOM      9  C   UNL     1       3.799   3.646  19.326  0.00  0.00    +0.000 A 
ATOM     10  C   UNL     1       2.921   4.727  19.148  0.00  0.00    +0.000 A 
ATOM     11  C   UNL     1       1.670   4.899  19.994  0.00  0.00    +0.000 C 
ATOM     12  C   UNL     1       1.342   3.732  20.959  0.00  0.00    +0.000 C 
ATOM     13  C   UNL     1       2.219   2.492  20.992  0.00  0.00    +0.000 C 
ATOM     14  C   UNL     1       3.575   2.551  20.319  0.00  0.00    +0.000 C 
ATOM     15  C   UNL     1       1.670   6.228  20.829  0.00  0.00    +0.000 C 
ENDROOT
BRANCH   1  17
ATOM     16  C   UNL     1      -0.028   8.892  21.741  0.00  0.00    +0.000 C 
ATOM     17  C   UNL     1       1.356   8.597  21.161  0.00  0.00    +0.000 C 
ENDBRANCH   1  17
TORSDOF 1
ENDMDL
MODEL 6
REMARK VINA RESULT:      -6.0      2.251      3.808
REMARK  Name = 
REMARK  2 active torsions:
REMARK  status: ('A' for Active; 'I' for Inactive)
REMARK    1  A    between atoms: C_1  and  C_2
REMARK    2  A    between atoms: C_2  and  N_3
REMARK                            x       y       z     vdW  Elec       q    Type
REMARK                         _______ _______ _______ _____ _____    ______ ____
ROOT
ATOM      1  N   UNL     1       5.287   4.287  16.669  0.00  0.00    +0.000 NA
ATOM      2  C   UNL     1       4.676   5.623  16.611  0.00  0.00    +0.000 C 
ATOM      3  C   UNL     1       4.840   6.401  17.913  0.00  0.00    +0.000 C 
ATOM      4  C   UNL     1       3.669   6.142  18.827  0.00  0.00    +0.000 A 
ATOM      5  C   UNL     1       2.666   7.113  19.015  0.00  0.00    +0.000 A 
ATOM      6 CL   UNL     1       2.673   8.636  18.194  0.00  0.00    +0.000 Cl
ATOM      7  C   UNL     1       1.587   6.864  19.855  0.00  0.00    +0.000 A 
ATOM      8  C   UNL     1       1.506   5.649  20.518  0.00  0.00    +0.000 A 
ATOM      9  C   UNL     1       2.479   4.649  20.338  0.00  0.00    +0.000 A 
ATOM     10  C   UNL     1       3.554   4.866  19.461  0.00  0.00    +0.000 A 
ATOM     11  C   UNL     1       4.584   3.788  19.162  0.00  0.00    +0.000 C 
ATOM     12  C   UNL     1       4.464   2.490  19.997  0.00  0.00    +0.000 C 
ATOM     13  C   UNL     1       3.396   2.361  21.069  0.00  0.00    +0.000 C 
ATOM     14  C   UNL     1       2.266   3.371  21.086  0.00  0.00    +0.000 C 
ATOM     15  C   UNL     1       4.627   3.383  17.645  0.00  0.00    +0.000 C 
ENDROOT
BRANCH   1  17
ATOM     16  C   UNL     1       6.259   4.231  14.326  0.00  0.00    +0.000 C 
ATOM     17  C   UNL     1       5.273   3.640  15.335  0.00  0.00    +0.000 C 
ENDBRANCH   1  17
TORSDOF 1
ENDMDL
MODEL 7
REMARK VINA RESULT:      -5.7      2.116      3.830
REMARK  Name = 
REMARK  2 active torsions:
REMARK  status: ('A' for Active; 'I' for Inactive)
REMARK    1  A    between atoms: C_1  and  C_2
REMARK    2  A    between atoms: C_2  and  N_3
REMARK                            x       y       z     vdW  Elec       q    Type
REMARK                         _______ _______ _______ _____ _____    ______ ____
ROOT
ATOM      1  N   UNL     1       5.121   5.446  16.749  0.00  0.00    +0.000 NA
ATOM      2  C   UNL     1       4.410   6.513  17.468  0.00  0.00    +0.000 C 
ATOM      3  C   UNL     1       4.404   6.301  18.979  0.00  0.00    +0.000 C 
ATOM      4  C   UNL     1       3.188   5.510  19.391  0.00  0.00    +0.000 A 
ATOM      5  C   UNL     1       2.098   6.135  20.028  0.00  0.00    +0.000 A 
ATOM      6 CL   UNL     1       2.048   7.836  20.344  0.00  0.00    +0.000 Cl
ATOM      7  C   UNL     1       0.978   5.401  20.400  0.00  0.00    +0.000 A 
ATOM      8  C   UNL     1       0.942   4.038  20.145  0.00  0.00    +0.000 A 
ATOM      9  C   UNL     1       2.005   3.386  19.492  0.00  0.00    +0.000 A 
ATOM     10  C   UNL     1       3.126   4.119  19.072  0.00  0.00    +0.000 A 
ATOM     11  C   UNL     1       4.260   3.481  18.285  0.00  0.00    +0.000 C 
ATOM     12  C   UNL     1       4.178   1.945  18.108  0.00  0.00    +0.000 C 
ATOM     13  C   UNL     1       3.040   1.158  18.735  0.00  0.00    +0.000 C 
ATOM     14  C   UNL     1       1.836   1.919  19.250  0.00  0.00    +0.000 C 
ATOM     15  C   UNL     1       4.459   4.121  16.865  0.00  0.00    +0.000 C 
ENDROOT
BRANCH   1  17
ATOM     16  C   UNL     1       5.687   4.611  14.423  0.00  0.00    +0.000 C 
ATOM     17  C   UNL     1       5.267   5.781  15.313  0.00  0.00    +0.000 C 
ENDBRANCH   1  17
TORSDOF 1
ENDMDL
MODEL 8
REMARK VINA RESULT:      -5.7      2.383      4.515
REMARK  Name = 
REMARK  2 active torsions:
REMARK  status: ('A' for Active; 'I' for Inactive)
REMARK    1  A    between atoms: C_1  and  C_2
REMARK    2  A    between atoms: C_2  and  N_3
REMARK                            x       y       z     vdW  Elec       q    Type
REMARK                         _______ _______ _______ _____ _____    ______ ____
ROOT
ATOM      1  N   UNL     1       2.036   3.783  20.440  0.00  0.00    +0.000 NA
ATOM      2  C   UNL     1       2.980   3.773  19.313  0.00  0.00    +0.000 C 
ATOM      3  C   UNL     1       4.067   4.835  19.448  0.00  0.00    +0.000 C 
ATOM      4  C   UNL     1       3.628   6.118  18.788  0.00  0.00    +0.000 A 
ATOM      5  C   UNL     1       4.164   6.515  17.547  0.00  0.00    +0.000 A 
ATOM      6 CL   UNL     1       5.313   5.560  16.675  0.00  0.00    +0.000 Cl
ATOM      7  C   UNL     1       3.750   7.696  16.943  0.00  0.00    +0.000 A 
ATOM      8  C   UNL     1       2.807   8.492  17.575  0.00  0.00    +0.000 A 
ATOM      9  C   UNL     1       2.237   8.115  18.806  0.00  0.00    +0.000 A 
ATOM     10  C   UNL     1       2.611   6.905  19.411  0.00  0.00    +0.000 A 
ATOM     11  C   UNL     1       1.963   6.408  20.693  0.00  0.00    +0.000 C 
ATOM     12  C   UNL     1       0.975   7.388  21.374  0.00  0.00    +0.000 C 
ATOM     13  C   UNL     1       0.732   8.767  20.785  0.00  0.00    +0.000 C 
ATOM     14  C   UNL     1       1.210   9.043  19.374  0.00  0.00    +0.000 C 
ATOM     15  C   UNL     1       1.232   5.030  20.518  0.00  0.00    +0.000 C 
ENDROOT
BRANCH   1  17
ATOM     16  C   UNL     1       0.720   2.206  18.953  0.00  0.00    +0.000 C 
ATOM     17  C   UNL     1       1.113   2.625  20.369  0.00  0.00    +0.000 C 
ENDBRANCH   1  17
TORSDOF 1
ENDMDL
MODEL 9
REMARK VINA RESULT:      -5.7      4.642      6.681
REMARK  Name = 
REMARK  2 active torsions:
REMARK  status: ('A' for Active; 'I' for Inactive)
REMARK    1  A    between atoms: C_1  and  C_2
REMARK    2  A    between atoms: C_2  and  N_3
REMARK                            x       y       z     vdW  Elec       q    Type
REMARK                         _______ _______ _______ _____ _____    ______ ____
ROOT
ATOM      1  N   UNL     1       1.404  13.087  19.265  0.00  0.00    +0.000 NA
ATOM      2  C   UNL     1       2.048  11.989  18.529  0.00  0.00    +0.000 C 
ATOM      3  C   UNL     1       1.086  10.847  18.218  0.00  0.00    +0.000 C 
ATOM      4  C   UNL     1       1.109   9.827  19.328  0.00  0.00    +0.000 A 
ATOM      5  C   UNL     1       1.762   8.590  19.164  0.00  0.00    +0.000 A 
ATOM      6 CL   UNL     1       2.612   8.166  17.718  0.00  0.00    +0.000 Cl
ATOM      7  C   UNL     1       1.783   7.658  20.194  0.00  0.00    +0.000 A 
ATOM      8  C   UNL     1       1.147   7.950  21.392  0.00  0.00    +0.000 A 
ATOM      9  C   UNL     1       0.503   9.185  21.597  0.00  0.00    +0.000 A 
ATOM     10  C   UNL     1       0.507  10.155  20.583  0.00  0.00    +0.000 A 
ATOM     11  C   UNL     1      -0.097  11.536  20.783  0.00  0.00    +0.000 C 
ATOM     12  C   UNL     1      -0.850  11.756  22.118  0.00  0.00    +0.000 C 
ATOM     13  C   UNL     1      -0.992  10.621  23.117  0.00  0.00    +0.000 C 
ATOM     14  C   UNL     1      -0.123   9.392  22.940  0.00  0.00    +0.000 C 
ATOM     15  C   UNL     1       0.952  12.694  20.625  0.00  0.00    +0.000 C 
ENDROOT
BRANCH   1  17
ATOM     16  C   UNL     1       3.274  14.436  18.208  0.00  0.00    +0.000 C 
ATOM     17  C   UNL     1       2.314  14.251  19.384  0.00  0.00    +0.000 C 
ENDBRANCH   1  17
TORSDOF 1
ENDMDL
