MODEL 1
REMARK VINA RESULT:     -10.0      0.000      0.000
REMARK  Name = 
REMARK  3 active torsions:
REMARK  status: ('A' for Active; 'I' for Inactive)
REMARK    1  A    between atoms: C_2  and  C_3
REMARK    2  A    between atoms: C_6  and  N_7
REMARK    3  A    between atoms: C_25  and  O_26
REMARK                            x       y       z     vdW  Elec       q    Type
REMARK                         _______ _______ _______ _____ _____    ______ ____
ROOT
ATOM      1  C   UNL     1       7.059   6.201  17.769  0.00  0.00    +0.000 A 
ATOM      2  C   UNL     1       6.834   7.319  16.979  0.00  0.00    +0.000 A 
ATOM      3  C   UNL     1       7.486   8.511  17.276  0.00  0.00    +0.000 A 
ATOM      4  C   UNL     1       8.318   8.681  18.401  0.00  0.00    +0.000 A 
ATOM      5  C   UNL     1       8.560   7.529  19.158  0.00  0.00    +0.000 A 
ATOM      6  C   UNL     1       7.952   6.294  18.835  0.00  0.00    +0.000 A 
ENDROOT
BRANCH   1   8
ATOM      7  O   UNL     1       6.995   4.272  16.491  0.00  0.00    +0.000 OA
ATOM      8  C   UNL     1       6.396   4.954  17.322  0.00  0.00    +0.000 C 
ATOM      9  N   UNL     1       5.120   4.617  17.769  0.00  0.00    +0.000 N 
ATOM     10  C   UNL     1       4.443   3.452  17.151  0.00  0.00    +0.000 C 
ATOM     11  C   UNL     1       2.921   3.696  16.960  0.00  0.00    +0.000 C 
ATOM     12  C   UNL     1       2.339   3.950  18.341  0.00  0.00    +0.000 A 
ATOM     13  C   UNL     1       1.165   3.352  18.784  0.00  0.00    +0.000 A 
ATOM     14  C   UNL     1       0.995   3.166  20.154  0.00  0.00    +0.000 A 
ATOM     15  C   UNL     1       2.006   3.559  21.032  0.00  0.00    +0.000 A 
ATOM     16  C   UNL     1       3.076   4.330  20.598  0.00  0.00    +0.000 A 
ATOM     17  C   UNL     1       3.191   4.606  19.241  0.00  0.00    +0.000 A 
ATOM     18  C   UNL     1       4.302   5.430  18.653  0.00  0.00    +0.000 C 
BRANCH  15  19
ATOM     19  O   UNL     1       1.996   3.152  22.333  0.00  0.00    +0.000 OA
ATOM     20  H   UNL     1       1.727   3.914  22.874  0.00  0.00    +0.000 HD
ENDBRANCH  15  19
ENDBRANCH   1   8
BRANCH   4  21
ATOM     21  N   UNL     1       8.819   9.941  18.701  0.00  0.00    +0.000 N 
ATOM     22  C   UNL     1       9.511  10.071  20.001  0.00  0.00    +0.000 C 
ATOM     23  C   UNL     1       9.366  11.496  20.501  0.00  0.00    +0.000 C 
ATOM     24  C   UNL     1      10.276  12.255  19.587  0.00  0.00    +0.000 A 
ATOM     25  C   UNL     1      11.375  12.947  20.093  0.00  0.00    +0.000 A 
ATOM     26  C   UNL     1      12.322  13.455  19.218  0.00  0.00    +0.000 A 
ATOM     27  C   UNL     1      12.132  13.326  17.842  0.00  0.00    +0.000 A 
ATOM     28  C   UNL     1      11.027  12.628  17.333  0.00  0.00    +0.000 A 
ATOM     29  C   UNL     1      10.112  12.031  18.202  0.00  0.00    +0.000 A 
ATOM     30  C   UNL     1       9.006  11.061  17.736  0.00  0.00    +0.000 C 
ENDBRANCH   4  21
TORSDOF 3
ENDMDL
MODEL 2
REMARK VINA RESULT:      -9.5      0.966      1.812
REMARK  Name = 
REMARK  3 active torsions:
REMARK  status: ('A' for Active; 'I' for Inactive)
REMARK    1  A    between atoms: C_2  and  C_3
REMARK    2  A    between atoms: C_6  and  N_7
REMARK    3  A    between atoms: C_25  and  O_26
REMARK                            x       y       z     vdW  Elec       q    Type
REMARK                         _______ _______ _______ _____ _____    ______ ____
ROOT
ATOM      1  C   UNL     1       7.011   6.112  17.794  0.00  0.00    +0.000 A 
ATOM      2  C   UNL     1       6.781   7.247  17.030  0.00  0.00    +0.000 A 
ATOM      3  C   UNL     1       7.457   8.424  17.331  0.00  0.00    +0.000 A 
ATOM      4  C   UNL     1       8.321   8.563  18.436  0.00  0.00    +0.000 A 
ATOM      5  C   UNL     1       8.567   7.395  19.166  0.00  0.00    +0.000 A 
ATOM      6  C   UNL     1       7.933   6.174  18.838  0.00  0.00    +0.000 A 
ENDROOT
BRANCH   1   8
ATOM      7  O   UNL     1       6.894   4.199  16.496  0.00  0.00    +0.000 OA
ATOM      8  C   UNL     1       6.319   4.883  17.343  0.00  0.00    +0.000 C 
ATOM      9  N   UNL     1       5.044   4.563  17.805  0.00  0.00    +0.000 N 
ATOM     10  C   UNL     1       4.337   3.418  17.185  0.00  0.00    +0.000 C 
ATOM     11  C   UNL     1       2.817   3.691  17.018  0.00  0.00    +0.000 C 
ATOM     12  C   UNL     1       2.260   3.940  18.410  0.00  0.00    +0.000 A 
ATOM     13  C   UNL     1       1.081   3.358  18.864  0.00  0.00    +0.000 A 
ATOM     14  C   UNL     1       0.928   3.161  20.233  0.00  0.00    +0.000 A 
ATOM     15  C   UNL     1       1.958   3.525  21.101  0.00  0.00    +0.000 A 
ATOM     16  C   UNL     1       3.036   4.282  20.661  0.00  0.00    +0.000 A 
ATOM     17  C   UNL     1       3.136   4.571  19.305  0.00  0.00    +0.000 A 
ATOM     18  C   UNL     1       4.254   5.381  18.710  0.00  0.00    +0.000 C 
BRANCH  15  19
ATOM     19  O   UNL     1       1.959   3.104  22.397  0.00  0.00    +0.000 OA
ATOM     20  H   UNL     1       1.569   3.814  22.935  0.00  0.00    +0.000 HD
ENDBRANCH  15  19
ENDBRANCH   1   8
BRANCH   4  21
ATOM     21  N   UNL     1       8.847   9.811  18.744  0.00  0.00    +0.000 N 
ATOM     22  C   UNL     1       8.474  10.914  17.832  0.00  0.00    +0.000 C 
ATOM     23  C   UNL     1       9.584  11.949  17.825  0.00  0.00    +0.000 C 
ATOM     24  C   UNL     1       9.438  12.592  19.168  0.00  0.00    +0.000 A 
ATOM     25  C   UNL     1       9.145  13.950  19.277  0.00  0.00    +0.000 A 
ATOM     26  C   UNL     1       8.797  14.476  20.511  0.00  0.00    +0.000 A 
ATOM     27  C   UNL     1       8.808  13.656  21.640  0.00  0.00    +0.000 A 
ATOM     28  C   UNL     1       9.101  12.290  21.530  0.00  0.00    +0.000 A 
ATOM     29  C   UNL     1       9.363  11.725  20.281  0.00  0.00    +0.000 A 
ATOM     30  C   UNL     1       9.468  10.205  20.040  0.00  0.00    +0.000 C 
ENDBRANCH   4  21
TORSDOF 3
ENDMDL
MODEL 3
REMARK VINA RESULT:      -8.4      7.379     10.435
REMARK  Name = 
REMARK  3 active torsions:
REMARK  status: ('A' for Active; 'I' for Inactive)
REMARK    1  A    between atoms: C_2  and  C_3
REMARK    2  A    between atoms: C_6  and  N_7
REMARK    3  A    between atoms: C_25  and  O_26
REMARK                            x       y       z     vdW  Elec       q    Type
REMARK                         _______ _______ _______ _____ _____    ______ ____
ROOT
ATOM      1  C   UNL     1       0.805  10.311  20.068  0.00  0.00    +0.000 A 
ATOM      2  C   UNL     1       1.339   9.762  18.912  0.00  0.00    +0.000 A 
ATOM      3  C   UNL     1       1.780   8.443  18.919  0.00  0.00    +0.000 A 
ATOM      4  C   UNL     1       1.791   7.634  20.073  0.00  0.00    +0.000 A 
ATOM      5  C   UNL     1       1.209   8.197  21.215  0.00  0.00    +0.000 A 
ATOM      6  C   UNL     1       0.703   9.517  21.210  0.00  0.00    +0.000 A 
ENDROOT
BRANCH   1   8
ATOM      7  O   UNL     1       0.499  12.275  18.882  0.00  0.00    +0.000 OA
ATOM      8  C   UNL     1       0.277  11.689  19.942  0.00  0.00    +0.000 C 
ATOM      9  N   UNL     1      -0.373  12.311  21.006  0.00  0.00    +0.000 N 
ATOM     10  C   UNL     1      -0.720  13.746  20.876  0.00  0.00    +0.000 C 
ATOM     11  C   UNL     1      -0.526  14.516  22.211  0.00  0.00    +0.000 C 
ATOM     12  C   UNL     1      -1.442  13.862  23.233  0.00  0.00    +0.000 A 
ATOM     13  C   UNL     1      -2.252  14.592  24.095  0.00  0.00    +0.000 A 
ATOM     14  C   UNL     1      -3.416  13.995  24.571  0.00  0.00    +0.000 A 
ATOM     15  C   UNL     1      -3.746  12.704  24.157  0.00  0.00    +0.000 A 
ATOM     16  C   UNL     1      -2.838  11.917  23.463  0.00  0.00    +0.000 A 
ATOM     17  C   UNL     1      -1.628  12.481  23.076  0.00  0.00    +0.000 A 
ATOM     18  C   UNL     1      -0.565  11.729  22.324  0.00  0.00    +0.000 C 
BRANCH  15  19
ATOM     19  O   UNL     1      -4.992  12.198  24.380  0.00  0.00    +0.000 OA
ATOM     20  H   UNL     1      -4.885  11.272  24.657  0.00  0.00    +0.000 HD
ENDBRANCH  15  19
ENDBRANCH   1   8
BRANCH   4  21
ATOM     21  N   UNL     1       2.375   6.375  20.024  0.00  0.00    +0.000 N 
ATOM     22  C   UNL     1       1.553   5.260  20.539  0.00  0.00    +0.000 C 
ATOM     23  C   UNL     1       2.468   4.175  21.078  0.00  0.00    +0.000 C 
ATOM     24  C   UNL     1       3.044   3.587  19.828  0.00  0.00    +0.000 A 
ATOM     25  C   UNL     1       2.827   2.248  19.508  0.00  0.00    +0.000 A 
ATOM     26  C   UNL     1       3.177   1.782  18.251  0.00  0.00    +0.000 A 
ATOM     27  C   UNL     1       3.803   2.640  17.346  0.00  0.00    +0.000 A 
ATOM     28  C   UNL     1       4.020   3.987  17.667  0.00  0.00    +0.000 A 
ATOM     29  C   UNL     1       3.590   4.495  18.894  0.00  0.00    +0.000 A 
ATOM     30  C   UNL     1       3.582   6.000  19.235  0.00  0.00    +0.000 C 
ENDBRANCH   4  21
TORSDOF 3
ENDMDL
MODEL 4
REMARK VINA RESULT:      -8.3      7.528     10.607
REMARK  Name = 
REMARK  3 active torsions:
REMARK  status: ('A' for Active; 'I' for Inactive)
REMARK    1  A    between atoms: C_2  and  C_3
REMARK    2  A    between atoms: C_6  and  N_7
REMARK    3  A    between atoms: C_25  and  O_26
REMARK                            x       y       z     vdW  Elec       q    Type
REMARK                         _______ _______ _______ _____ _____    ______ ____
ROOT
ATOM      1  C   UNL     1       0.840  10.646  19.489  0.00  0.00    +0.000 A 
ATOM      2  C   UNL     1       0.888   9.942  20.683  0.00  0.00    +0.000 A 
ATOM      3  C   UNL     1       1.431   8.662  20.702  0.00  0.00    +0.000 A 
ATOM      4  C   UNL     1       1.872   7.988  19.545  0.00  0.00    +0.000 A 
ATOM      5  C   UNL     1       1.850   8.735  18.362  0.00  0.00    +0.000 A 
ATOM      6  C   UNL     1       1.357  10.059  18.335  0.00  0.00    +0.000 A 
ENDROOT
BRANCH   1   8
ATOM      7  O   UNL     1       1.174  12.931  19.657  0.00  0.00    +0.000 OA
ATOM      8  C   UNL     1       0.333  12.035  19.582  0.00  0.00    +0.000 C 
ATOM      9  N   UNL     1      -1.033  12.299  19.658  0.00  0.00    +0.000 N 
ATOM     10  C   UNL     1      -1.467  13.691  19.926  0.00  0.00    +0.000 C 
ATOM     11  C   UNL     1      -2.702  13.746  20.866  0.00  0.00    +0.000 C 
ATOM     12  C   UNL     1      -3.820  12.990  20.166  0.00  0.00    +0.000 A 
ATOM     13  C   UNL     1      -5.121  13.476  20.084  0.00  0.00    +0.000 A 
ATOM     14  C   UNL     1      -5.912  13.066  19.015  0.00  0.00    +0.000 A 
ATOM     15  C   UNL     1      -5.378  12.207  18.053  0.00  0.00    +0.000 A 
ATOM     16  C   UNL     1      -4.157  11.576  18.251  0.00  0.00    +0.000 A 
ATOM     17  C   UNL     1      -3.411  11.907  19.376  0.00  0.00    +0.000 A 
ATOM     18  C   UNL     1      -2.078  11.291  19.698  0.00  0.00    +0.000 C 
BRANCH  15  19
ATOM     19  O   UNL     1      -6.019  12.004  16.868  0.00  0.00    +0.000 OA
ATOM     20  H   UNL     1      -5.355  11.701  16.225  0.00  0.00    +0.000 HD
ENDBRANCH  15  19
ENDBRANCH   1   8
BRANCH   4  21
ATOM     21  N   UNL     1       2.271   6.660  19.634  0.00  0.00    +0.000 N 
ATOM     22  C   UNL     1       1.496   5.812  20.563  0.00  0.00    +0.000 C 
ATOM     23  C   UNL     1       2.390   4.704  21.089  0.00  0.00    +0.000 C 
ATOM     24  C   UNL     1       2.536   3.811  19.897  0.00  0.00    +0.000 A 
ATOM     25  C   UNL     1       2.086   2.492  19.939  0.00  0.00    +0.000 A 
ATOM     26  C   UNL     1       2.027   1.754  18.768  0.00  0.00    +0.000 A 
ATOM     27  C   UNL     1       2.481   2.315  17.574  0.00  0.00    +0.000 A 
ATOM     28  C   UNL     1       2.930   3.642  17.531  0.00  0.00    +0.000 A 
ATOM     29  C   UNL     1       2.910   4.429  18.683  0.00  0.00    +0.000 A 
ATOM     30  C   UNL     1       3.168   5.950  18.679  0.00  0.00    +0.000 C 
ENDBRANCH   4  21
TORSDOF 3
ENDMDL
MODEL 5
REMARK VINA RESULT:      -8.2      7.352     10.563
REMARK  Name = 
REMARK  3 active torsions:
REMARK  status: ('A' for Active; 'I' for Inactive)
REMARK    1  A    between atoms: C_2  and  C_3
REMARK    2  A    between atoms: C_6  and  N_7
REMARK    3  A    between atoms: C_25  and  O_26
REMARK                            x       y       z     vdW  Elec       q    Type
REMARK                         _______ _______ _______ _____ _____    ______ ____
ROOT
ATOM      1  C   UNL     1       0.835  10.661  19.446  0.00  0.00    +0.000 A 
ATOM      2  C   UNL     1       0.768   9.941  20.630  0.00  0.00    +0.000 A 
ATOM      3  C   UNL     1       1.301   8.658  20.682  0.00  0.00    +0.000 A 
ATOM      4  C   UNL     1       1.845   7.997  19.563  0.00  0.00    +0.000 A 
ATOM      5  C   UNL     1       1.938   8.759  18.393  0.00  0.00    +0.000 A 
ATOM      6  C   UNL     1       1.455  10.086  18.337  0.00  0.00    +0.000 A 
ENDROOT
BRANCH   1   8
ATOM      7  O   UNL     1       0.511  12.757  18.518  0.00  0.00    +0.000 OA
ATOM      8  C   UNL     1       0.327  12.051  19.510  0.00  0.00    +0.000 C 
ATOM      9  N   UNL     1      -0.260  12.551  20.670  0.00  0.00    +0.000 N 
ATOM     10  C   UNL     1      -0.585  13.996  20.729  0.00  0.00    +0.000 C 
ATOM     11  C   UNL     1      -0.314  14.599  22.134  0.00  0.00    +0.000 C 
ATOM     12  C   UNL     1      -1.193  13.839  23.115  0.00  0.00    +0.000 A 
ATOM     13  C   UNL     1      -1.948  14.473  24.096  0.00  0.00    +0.000 A 
ATOM     14  C   UNL     1      -3.100  13.838  24.554  0.00  0.00    +0.000 A 
ATOM     15  C   UNL     1      -3.474  12.611  24.006  0.00  0.00    +0.000 A 
ATOM     16  C   UNL     1      -2.614  11.900  23.180  0.00  0.00    +0.000 A 
ATOM     17  C   UNL     1      -1.413  12.489  22.805  0.00  0.00    +0.000 A 
ATOM     18  C   UNL     1      -0.401  11.819  21.918  0.00  0.00    +0.000 C 
BRANCH  15  19
ATOM     19  O   UNL     1      -4.717  12.098  24.229  0.00  0.00    +0.000 OA
ATOM     20  H   UNL     1      -4.739  11.206  23.842  0.00  0.00    +0.000 HD
ENDBRANCH  15  19
ENDBRANCH   1   8
BRANCH   4  21
ATOM     21  N   UNL     1       2.229   6.666  19.670  0.00  0.00    +0.000 N 
ATOM     22  C   UNL     1       1.431   5.835  20.596  0.00  0.00    +0.000 C 
ATOM     23  C   UNL     1       2.306   4.724  21.146  0.00  0.00    +0.000 C 
ATOM     24  C   UNL     1       2.459   3.817  19.966  0.00  0.00    +0.000 A 
ATOM     25  C   UNL     1       1.994   2.503  20.015  0.00  0.00    +0.000 A 
ATOM     26  C   UNL     1       1.944   1.754  18.851  0.00  0.00    +0.000 A 
ATOM     27  C   UNL     1       2.421   2.298  17.657  0.00  0.00    +0.000 A 
ATOM     28  C   UNL     1       2.886   3.620  17.608  0.00  0.00    +0.000 A 
ATOM     29  C   UNL     1       2.857   4.419  18.752  0.00  0.00    +0.000 A 
ATOM     30  C   UNL     1       3.132   5.937  18.736  0.00  0.00    +0.000 C 
ENDBRANCH   4  21
TORSDOF 3
ENDMDL
MODEL 6
REMARK VINA RESULT:      -8.1      6.188      8.123
REMARK  Name = 
REMARK  3 active torsions:
REMARK  status: ('A' for Active; 'I' for Inactive)
REMARK    1  A    between atoms: C_2  and  C_3
REMARK    2  A    between atoms: C_6  and  N_7
REMARK    3  A    between atoms: C_25  and  O_26
REMARK                            x       y       z     vdW  Elec       q    Type
REMARK                         _______ _______ _______ _____ _____    ______ ____
ROOT
ATOM      1  C   UNL     1       2.039   7.684  19.445  0.00  0.00    +0.000 A 
ATOM      2  C   UNL     1       1.485   8.275  20.571  0.00  0.00    +0.000 A 
ATOM      3  C   UNL     1       0.804   9.481  20.448  0.00  0.00    +0.000 A 
ATOM      4  C   UNL     1       0.707  10.198  19.237  0.00  0.00    +0.000 A 
ATOM      5  C   UNL     1       1.237   9.560  18.110  0.00  0.00    +0.000 A 
ATOM      6  C   UNL     1       1.882   8.306  18.207  0.00  0.00    +0.000 A 
ENDROOT
BRANCH   1   8
ATOM      7  O   UNL     1       2.188   5.654  20.548  0.00  0.00    +0.000 OA
ATOM      8  C   UNL     1       2.663   6.357  19.657  0.00  0.00    +0.000 C 
ATOM      9  N   UNL     1       3.782   5.964  18.927  0.00  0.00    +0.000 N 
ATOM     10  C   UNL     1       4.463   4.703  19.307  0.00  0.00    +0.000 C 
ATOM     11  C   UNL     1       6.007   4.814  19.186  0.00  0.00    +0.000 C 
ATOM     12  C   UNL     1       6.312   5.139  17.733  0.00  0.00    +0.000 A 
ATOM     13  C   UNL     1       7.310   4.494  17.011  0.00  0.00    +0.000 A 
ATOM     14  C   UNL     1       7.176   4.413  15.627  0.00  0.00    +0.000 A 
ATOM     15  C   UNL     1       6.046   4.953  15.013  0.00  0.00    +0.000 A 
ATOM     16  C   UNL     1       5.164   5.764  15.714  0.00  0.00    +0.000 A 
ATOM     17  C   UNL     1       5.357   5.932  17.080  0.00  0.00    +0.000 A 
ATOM     18  C   UNL     1       4.471   6.785  17.946  0.00  0.00    +0.000 C 
BRANCH  15  19
ATOM     19  O   UNL     1       5.750   4.659  13.715  0.00  0.00    +0.000 OA
ATOM     20  H   UNL     1       6.474   4.109  13.369  0.00  0.00    +0.000 HD
ENDBRANCH  15  19
ENDBRANCH   1   8
BRANCH   4  21
ATOM     21  N   UNL     1       0.128  11.460  19.231  0.00  0.00    +0.000 N 
ATOM     22  C   UNL     1      -0.855  11.727  20.302  0.00  0.00    +0.000 C 
ATOM     23  C   UNL     1      -1.866  12.745  19.807  0.00  0.00    +0.000 C 
ATOM     24  C   UNL     1      -1.069  14.012  19.792  0.00  0.00    +0.000 A 
ATOM     25  C   UNL     1      -1.440  15.093  20.589  0.00  0.00    +0.000 A 
ATOM     26  C   UNL     1      -0.574  16.166  20.729  0.00  0.00    +0.000 A 
ATOM     27  C   UNL     1       0.626  16.183  20.017  0.00  0.00    +0.000 A 
ATOM     28  C   UNL     1       1.000  15.094  19.217  0.00  0.00    +0.000 A 
ATOM     29  C   UNL     1       0.182  13.966  19.138  0.00  0.00    +0.000 A 
ATOM     30  C   UNL     1       0.618  12.645  18.471  0.00  0.00    +0.000 C 
ENDBRANCH   4  21
TORSDOF 3
ENDMDL
MODEL 7
REMARK VINA RESULT:      -8.0      6.431      9.706
REMARK  Name = 
REMARK  3 active torsions:
REMARK  status: ('A' for Active; 'I' for Inactive)
REMARK    1  A    between atoms: C_2  and  C_3
REMARK    2  A    between atoms: C_6  and  N_7
REMARK    3  A    between atoms: C_25  and  O_26
REMARK                            x       y       z     vdW  Elec       q    Type
REMARK                         _______ _______ _______ _____ _____    ______ ____
ROOT
ATOM      1  C   UNL     1       0.687   9.820  19.288  0.00  0.00    +0.000 A 
ATOM      2  C   UNL     1       1.097   9.603  17.981  0.00  0.00    +0.000 A 
ATOM      3  C   UNL     1       1.900   8.507  17.687  0.00  0.00    +0.000 A 
ATOM      4  C   UNL     1       2.400   7.626  18.667  0.00  0.00    +0.000 A 
ATOM      5  C   UNL     1       1.939   7.842  19.971  0.00  0.00    +0.000 A 
ATOM      6  C   UNL     1       1.075   8.917  20.278  0.00  0.00    +0.000 A 
ENDROOT
BRANCH   1   8
ATOM      7  O   UNL     1      -1.445  10.710  19.429  0.00  0.00    +0.000 OA
ATOM      8  C   UNL     1      -0.240  10.956  19.492  0.00  0.00    +0.000 C 
ATOM      9  N   UNL     1       0.237  12.253  19.668  0.00  0.00    +0.000 N 
ATOM     10  C   UNL     1      -0.740  13.367  19.689  0.00  0.00    +0.000 C 
ATOM     11  C   UNL     1      -0.199  14.633  18.971  0.00  0.00    +0.000 C 
ATOM     12  C   UNL     1       1.064  15.050  19.707  0.00  0.00    +0.000 A 
ATOM     13  C   UNL     1       1.327  16.368  20.062  0.00  0.00    +0.000 A 
ATOM     14  C   UNL     1       2.146  16.604  21.163  0.00  0.00    +0.000 A 
ATOM     15  C   UNL     1       2.654  15.524  21.886  0.00  0.00    +0.000 A 
ATOM     16  C   UNL     1       2.550  14.225  21.408  0.00  0.00    +0.000 A 
ATOM     17  C   UNL     1       1.820  14.000  20.248  0.00  0.00    +0.000 A 
ATOM     18  C   UNL     1       1.638  12.640  19.632  0.00  0.00    +0.000 C 
BRANCH  15  19
ATOM     19  O   UNL     1       3.225  15.712  23.110  0.00  0.00    +0.000 OA
ATOM     20  H   UNL     1       2.705  16.390  23.574  0.00  0.00    +0.000 HD
ENDBRANCH  15  19
ENDBRANCH   1   8
BRANCH   4  21
ATOM     21  N   UNL     1       3.307   6.638  18.304  0.00  0.00    +0.000 N 
ATOM     22  C   UNL     1       2.723   5.346  17.884  0.00  0.00    +0.000 C 
ATOM     23  C   UNL     1       3.702   4.231  18.203  0.00  0.00    +0.000 C 
ATOM     24  C   UNL     1       4.773   4.438  17.178  0.00  0.00    +0.000 A 
ATOM     25  C   UNL     1       5.056   3.448  16.237  0.00  0.00    +0.000 A 
ATOM     26  C   UNL     1       5.888   3.741  15.169  0.00  0.00    +0.000 A 
ATOM     27  C   UNL     1       6.486   4.999  15.083  0.00  0.00    +0.000 A 
ATOM     28  C   UNL     1       6.200   5.995  16.028  0.00  0.00    +0.000 A 
ATOM     29  C   UNL     1       5.292   5.746  17.058  0.00  0.00    +0.000 A 
ATOM     30  C   UNL     1       4.750   6.844  17.997  0.00  0.00    +0.000 C 
ENDBRANCH   4  21
TORSDOF 3
ENDMDL
MODEL 8
REMARK VINA RESULT:      -8.0      6.378     10.629
REMARK  Name = 
REMARK  3 active torsions:
REMARK  status: ('A' for Active; 'I' for Inactive)
REMARK    1  A    between atoms: C_2  and  C_3
REMARK    2  A    between atoms: C_6  and  N_7
REMARK    3  A    between atoms: C_25  and  O_26
REMARK                            x       y       z     vdW  Elec       q    Type
REMARK                         _______ _______ _______ _____ _____    ______ ____
ROOT
ATOM      1  C   UNL     1       0.669  10.554  19.101  0.00  0.00    +0.000 A 
ATOM      2  C   UNL     1       0.561   9.856  20.295  0.00  0.00    +0.000 A 
ATOM      3  C   UNL     1       1.190   8.623  20.427  0.00  0.00    +0.000 A 
ATOM      4  C   UNL     1       1.880   7.986  19.376  0.00  0.00    +0.000 A 
ATOM      5  C   UNL     1       2.009   8.728  18.196  0.00  0.00    +0.000 A 
ATOM      6  C   UNL     1       1.426  10.009  18.064  0.00  0.00    +0.000 A 
ENDROOT
BRANCH   1   8
ATOM      7  O   UNL     1      -1.127  11.963  18.717  0.00  0.00    +0.000 OA
ATOM      8  C   UNL     1       0.047  11.897  19.083  0.00  0.00    +0.000 C 
ATOM      9  N   UNL     1       0.785  13.037  19.394  0.00  0.00    +0.000 N 
ATOM     10  C   UNL     1       0.155  14.363  19.188  0.00  0.00    +0.000 C 
ATOM     11  C   UNL     1       1.165  15.411  18.648  0.00  0.00    +0.000 C 
ATOM     12  C   UNL     1       2.271  15.530  19.683  0.00  0.00    +0.000 A 
ATOM     13  C   UNL     1       2.772  16.754  20.114  0.00  0.00    +0.000 A 
ATOM     14  C   UNL     1       3.327  16.828  21.389  0.00  0.00    +0.000 A 
ATOM     15  C   UNL     1       3.344  15.692  22.199  0.00  0.00    +0.000 A 
ATOM     16  C   UNL     1       3.028  14.440  21.689  0.00  0.00    +0.000 A 
ATOM     17  C   UNL     1       2.573  14.350  20.379  0.00  0.00    +0.000 A 
ATOM     18  C   UNL     1       2.202  13.053  19.716  0.00  0.00    +0.000 C 
BRANCH  15  19
ATOM     19  O   UNL     1       3.625  15.789  23.529  0.00  0.00    +0.000 OA
ATOM     20  H   UNL     1       3.716  16.734  23.740  0.00  0.00    +0.000 HD
ENDBRANCH  15  19
ENDBRANCH   1   8
BRANCH   4  21
ATOM     21  N   UNL     1       2.361   6.695  19.552  0.00  0.00    +0.000 N 
ATOM     22  C   UNL     1       1.536   5.807  20.399  0.00  0.00    +0.000 C 
ATOM     23  C   UNL     1       2.434   4.781  21.066  0.00  0.00    +0.000 C 
ATOM     24  C   UNL     1       2.796   3.879  19.928  0.00  0.00    +0.000 A 
ATOM     25  C   UNL     1       2.442   2.531  19.951  0.00  0.00    +0.000 A 
ATOM     26  C   UNL     1       2.588   1.768  18.803  0.00  0.00    +0.000 A 
ATOM     27  C   UNL     1       3.149   2.339  17.661  0.00  0.00    +0.000 A 
ATOM     28  C   UNL     1       3.503   3.696  17.637  0.00  0.00    +0.000 A 
ATOM     29  C   UNL     1       3.277   4.501  18.755  0.00  0.00    +0.000 A 
ATOM     30  C   UNL     1       3.422   6.037  18.739  0.00  0.00    +0.000 C 
ENDBRANCH   4  21
TORSDOF 3
ENDMDL
MODEL 9
REMARK VINA RESULT:      -8.0      7.291     10.255
REMARK  Name = 
REMARK  3 active torsions:
REMARK  status: ('A' for Active; 'I' for Inactive)
REMARK    1  A    between atoms: C_2  and  C_3
REMARK    2  A    between atoms: C_6  and  N_7
REMARK    3  A    between atoms: C_25  and  O_26
REMARK                            x       y       z     vdW  Elec       q    Type
REMARK                         _______ _______ _______ _____ _____    ______ ____
ROOT
ATOM      1  C   UNL     1       1.110  10.457  19.362  0.00  0.00    +0.000 A 
ATOM      2  C   UNL     1       1.512  10.090  18.086  0.00  0.00    +0.000 A 
ATOM      3  C   UNL     1       1.935   8.786  17.849  0.00  0.00    +0.000 A 
ATOM      4  C   UNL     1       2.059   7.814  18.863  0.00  0.00    +0.000 A 
ATOM      5  C   UNL     1       1.608   8.197  20.131  0.00  0.00    +0.000 A 
ATOM      6  C   UNL     1       1.120   9.501  20.377  0.00  0.00    +0.000 A 
ENDROOT
BRANCH   1   8
ATOM      7  O   UNL     1       1.420  12.738  19.609  0.00  0.00    +0.000 OA
ATOM      8  C   UNL     1       0.589  11.836  19.499  0.00  0.00    +0.000 C 
ATOM      9  N   UNL     1      -0.780  12.084  19.577  0.00  0.00    +0.000 N 
ATOM     10  C   UNL     1      -1.230  13.461  19.890  0.00  0.00    +0.000 C 
ATOM     11  C   UNL     1      -2.471  13.472  20.824  0.00  0.00    +0.000 C 
ATOM     12  C   UNL     1      -3.577  12.729  20.093  0.00  0.00    +0.000 A 
ATOM     13  C   UNL     1      -4.882  13.203  20.020  0.00  0.00    +0.000 A 
ATOM     14  C   UNL     1      -5.664  12.821  18.933  0.00  0.00    +0.000 A 
ATOM     15  C   UNL     1      -5.116  12.002  17.946  0.00  0.00    +0.000 A 
ATOM     16  C   UNL     1      -3.890  11.377  18.129  0.00  0.00    +0.000 A 
ATOM     17  C   UNL     1      -3.153  11.677  19.268  0.00  0.00    +0.000 A 
ATOM     18  C   UNL     1      -1.815  11.064  19.577  0.00  0.00    +0.000 C 
BRANCH  15  19
ATOM     19  O   UNL     1      -5.749  11.833  16.751  0.00  0.00    +0.000 OA
ATOM     20  H   UNL     1      -5.146  12.144  16.054  0.00  0.00    +0.000 HD
ENDBRANCH  15  19
ENDBRANCH   1   8
BRANCH   4  21
ATOM     21  N   UNL     1       2.619   6.578  18.565  0.00  0.00    +0.000 N 
ATOM     22  C   UNL     1       3.778   6.178  19.389  0.00  0.00    +0.000 C 
ATOM     23  C   UNL     1       4.676   5.265  18.574  0.00  0.00    +0.000 C 
ATOM     24  C   UNL     1       3.882   3.997  18.515  0.00  0.00    +0.000 A 
ATOM     25  C   UNL     1       4.385   2.819  19.063  0.00  0.00    +0.000 A 
ATOM     26  C   UNL     1       3.552   1.719  19.196  0.00  0.00    +0.000 A 
ATOM     27  C   UNL     1       2.243   1.782  18.719  0.00  0.00    +0.000 A 
ATOM     28  C   UNL     1       1.736   2.968  18.170  0.00  0.00    +0.000 A 
ATOM     29  C   UNL     1       2.533   4.113  18.113  0.00  0.00    +0.000 A 
ATOM     30  C   UNL     1       1.991   5.508  17.739  0.00  0.00    +0.000 C 
ENDBRANCH   4  21
TORSDOF 3
ENDMDL
