MODEL 1
REMARK VINA RESULT:      -8.6      0.000      0.000
REMARK  Name = 
REMARK  2 active torsions:
REMARK  status: ('A' for Active; 'I' for Inactive)
REMARK    1  A    between atoms: C_4  and  C_5
REMARK    2  A    between atoms: C_14  and  C_15
REMARK                            x       y       z     vdW  Elec       q    Type
REMARK                         _______ _______ _______ _____ _____    ______ ____
ROOT
ATOM      1  O   UNL     1       1.828   3.537  21.970  0.00  0.00    +0.000 OA
ATOM      2  C   UNL     1       2.261   4.233  21.059  0.00  0.00    +0.000 A 
ATOM      3  C   UNL     1       1.824   5.637  20.829  0.00  0.00    +0.000 A 
ATOM      4  C   UNL     1       2.352   6.324  19.801  0.00  0.00    +0.000 A 
ATOM      5  N   UNL     1       3.295   5.783  18.947  0.00  0.00    +0.000 N 
ATOM      6  C   UNL     1       3.736   4.510  19.098  0.00  0.00    +0.000 A 
ATOM      7  C   UNL     1       4.636   3.708  18.427  0.00  0.00    +0.000 A 
ATOM      8  C   UNL     1       4.565   2.481  19.135  0.00  0.00    +0.000 A 
ATOM      9  N   UNL     1       3.721   2.501  20.169  0.00  0.00    +0.000 NA
ATOM     10  N   UNL     1       3.215   3.763  20.139  0.00  0.00    +0.000 N 
ATOM     11  H   UNL     1       3.647   6.361  18.181  0.00  0.00    +0.000 HD
ENDROOT
BRANCH   4  12
ATOM     12  C   UNL     1       1.915   7.702  19.546  0.00  0.00    +0.000 A 
ATOM     13  C   UNL     1       2.130   8.299  18.295  0.00  0.00    +0.000 A 
ATOM     14  C   UNL     1       1.683   9.600  18.046  0.00  0.00    +0.000 A 
ATOM     15  C   UNL     1       1.028  10.313  19.048  0.00  0.00    +0.000 A 
ATOM     16  C   UNL     1       0.835   9.725  20.294  0.00  0.00    +0.000 A 
ATOM     17  F   UNL     1       0.214  10.416  21.258  0.00  0.00    +0.000 F 
ATOM     18  C   UNL     1       1.272   8.430  20.554  0.00  0.00    +0.000 A 
ENDBRANCH   4  12
BRANCH   7  19
ATOM     19  C   UNL     1       5.416   4.075  17.256  0.00  0.00    +0.000 A 
ATOM     20  C   UNL     1       4.841   4.057  15.984  0.00  0.00    +0.000 A 
ATOM     21  C   UNL     1       5.600   4.467  14.892  0.00  0.00    +0.000 A 
ATOM     22  C   UNL     1       6.912   4.870  15.090  0.00  0.00    +0.000 A 
ATOM     23  C   UNL     1       7.417   4.839  16.380  0.00  0.00    +0.000 A 
ATOM     24  N   UNL     1       6.703   4.453  17.464  0.00  0.00    +0.000 NA
ENDBRANCH   7  19
TORSDOF 2
ENDMDL
MODEL 2
REMARK VINA RESULT:      -8.4      0.981      1.405
REMARK  Name = 
REMARK  2 active torsions:
REMARK  status: ('A' for Active; 'I' for Inactive)
REMARK    1  A    between atoms: C_4  and  C_5
REMARK    2  A    between atoms: C_14  and  C_15
REMARK                            x       y       z     vdW  Elec       q    Type
REMARK                         _______ _______ _______ _____ _____    ______ ____
ROOT
ATOM      1  O   UNL     1       1.772   3.231  22.009  0.00  0.00    +0.000 OA
ATOM      2  C   UNL     1       2.203   4.003  21.161  0.00  0.00    +0.000 A 
ATOM      3  C   UNL     1       1.740   5.411  21.031  0.00  0.00    +0.000 A 
ATOM      4  C   UNL     1       2.269   6.186  20.069  0.00  0.00    +0.000 A 
ATOM      5  N   UNL     1       3.236   5.732  19.192  0.00  0.00    +0.000 N 
ATOM      6  C   UNL     1       3.703   4.460  19.253  0.00  0.00    +0.000 A 
ATOM      7  C   UNL     1       4.630   3.731  18.538  0.00  0.00    +0.000 A 
ATOM      8  C   UNL     1       4.575   2.452  19.148  0.00  0.00    +0.000 A 
ATOM      9  N   UNL     1       3.715   2.375  20.166  0.00  0.00    +0.000 NA
ATOM     10  N   UNL     1       3.181   3.625  20.224  0.00  0.00    +0.000 N 
ATOM     11  H   UNL     1       3.588   6.374  18.479  0.00  0.00    +0.000 HD
ENDROOT
BRANCH   4  12
ATOM     12  C   UNL     1       1.806   7.570  19.913  0.00  0.00    +0.000 A 
ATOM     13  C   UNL     1       1.166   8.232  20.971  0.00  0.00    +0.000 A 
ATOM     14  C   UNL     1       0.756   9.561  20.829  0.00  0.00    +0.000 A 
ATOM     15  C   UNL     1       0.977  10.232  19.628  0.00  0.00    +0.000 A 
ATOM     16  C   UNL     1       1.594   9.565  18.574  0.00  0.00    +0.000 A 
ATOM     17  F   UNL     1       1.797  10.210  17.418  0.00  0.00    +0.000 F 
ATOM     18  C   UNL     1       2.009   8.245  18.703  0.00  0.00    +0.000 A 
ENDBRANCH   4  12
BRANCH   7  19
ATOM     19  C   UNL     1       5.420   4.203  17.412  0.00  0.00    +0.000 A 
ATOM     20  C   UNL     1       5.286   3.616  16.153  0.00  0.00    +0.000 A 
ATOM     21  C   UNL     1       6.017   4.128  15.085  0.00  0.00    +0.000 A 
ATOM     22  C   UNL     1       6.871   5.199  15.299  0.00  0.00    +0.000 A 
ATOM     23  C   UNL     1       6.966   5.712  16.583  0.00  0.00    +0.000 A 
ATOM     24  N   UNL     1       6.263   5.243  17.640  0.00  0.00    +0.000 NA
ENDBRANCH   7  19
TORSDOF 2
ENDMDL
MODEL 3
REMARK VINA RESULT:      -8.3      0.635      1.031
REMARK  Name = 
REMARK  2 active torsions:
REMARK  status: ('A' for Active; 'I' for Inactive)
REMARK    1  A    between atoms: C_4  and  C_5
REMARK    2  A    between atoms: C_14  and  C_15
REMARK                            x       y       z     vdW  Elec       q    Type
REMARK                         _______ _______ _______ _____ _____    ______ ____
ROOT
ATOM      1  O   UNL     1       1.427   3.422  21.629  0.00  0.00    +0.000 OA
ATOM      2  C   UNL     1       1.949   4.162  20.804  0.00  0.00    +0.000 A 
ATOM      3  C   UNL     1       1.593   5.599  20.659  0.00  0.00    +0.000 A 
ATOM      4  C   UNL     1       2.217   6.335  19.723  0.00  0.00    +0.000 A 
ATOM      5  N   UNL     1       3.186   5.814  18.888  0.00  0.00    +0.000 N 
ATOM      6  C   UNL     1       3.558   4.512  18.963  0.00  0.00    +0.000 A 
ATOM      7  C   UNL     1       4.460   3.719  18.286  0.00  0.00    +0.000 A 
ATOM      8  C   UNL     1       4.288   2.447  18.888  0.00  0.00    +0.000 A 
ATOM      9  N   UNL     1       3.381   2.431  19.868  0.00  0.00    +0.000 NA
ATOM     10  N   UNL     1       2.937   3.716  19.908  0.00  0.00    +0.000 N 
ATOM     11  H   UNL     1       3.613   6.430  18.192  0.00  0.00    +0.000 HD
ENDROOT
BRANCH   4  12
ATOM     12  C   UNL     1       1.861   7.750  19.553  0.00  0.00    +0.000 A 
ATOM     13  C   UNL     1       2.019   8.380  18.310  0.00  0.00    +0.000 A 
ATOM     14  C   UNL     1       1.648   9.718  18.143  0.00  0.00    +0.000 A 
ATOM     15  C   UNL     1       1.127  10.433  19.220  0.00  0.00    +0.000 A 
ATOM     16  C   UNL     1       0.992   9.810  20.456  0.00  0.00    +0.000 A 
ATOM     17  F   UNL     1       0.500  10.503  21.491  0.00  0.00    +0.000 F 
ATOM     18  C   UNL     1       1.353   8.479  20.634  0.00  0.00    +0.000 A 
ENDBRANCH   4  12
BRANCH   7  19
ATOM     19  C   UNL     1       5.330   4.134  17.196  0.00  0.00    +0.000 A 
ATOM     20  C   UNL     1       6.631   4.570  17.451  0.00  0.00    +0.000 A 
ATOM     21  C   UNL     1       7.455   4.908  16.382  0.00  0.00    +0.000 A 
ATOM     22  C   UNL     1       6.959   4.817  15.089  0.00  0.00    +0.000 A 
ATOM     23  C   UNL     1       5.650   4.398  14.920  0.00  0.00    +0.000 A 
ATOM     24  N   UNL     1       4.826   4.055  15.938  0.00  0.00    +0.000 NA
ENDBRANCH   7  19
TORSDOF 2
ENDMDL
MODEL 4
REMARK VINA RESULT:      -8.2      1.723      1.983
REMARK  Name = 
REMARK  2 active torsions:
REMARK  status: ('A' for Active; 'I' for Inactive)
REMARK    1  A    between atoms: C_4  and  C_5
REMARK    2  A    between atoms: C_14  and  C_15
REMARK                            x       y       z     vdW  Elec       q    Type
REMARK                         _______ _______ _______ _____ _____    ______ ____
ROOT
ATOM      1  O   UNL     1       0.984   2.857  20.797  0.00  0.00    +0.000 OA
ATOM      2  C   UNL     1       1.588   3.891  20.539  0.00  0.00    +0.000 A 
ATOM      3  C   UNL     1       1.017   5.246  20.770  0.00  0.00    +0.000 A 
ATOM      4  C   UNL     1       1.752   6.327  20.455  0.00  0.00    +0.000 A 
ATOM      5  N   UNL     1       3.027   6.234  19.929  0.00  0.00    +0.000 N 
ATOM      6  C   UNL     1       3.607   5.032  19.692  0.00  0.00    +0.000 A 
ATOM      7  C   UNL     1       4.823   4.624  19.184  0.00  0.00    +0.000 A 
ATOM      8  C   UNL     1       4.723   3.210  19.202  0.00  0.00    +0.000 A 
ATOM      9  N   UNL     1       3.567   2.756  19.692  0.00  0.00    +0.000 NA
ATOM     10  N   UNL     1       2.884   3.893  19.995  0.00  0.00    +0.000 N 
ATOM     11  H   UNL     1       3.525   7.099  19.705  0.00  0.00    +0.000 HD
ENDROOT
BRANCH   4  12
ATOM     12  C   UNL     1       1.195   7.670  20.656  0.00  0.00    +0.000 A 
ATOM     13  C   UNL     1       1.438   8.690  19.724  0.00  0.00    +0.000 A 
ATOM     14  C   UNL     1       0.878   9.958  19.901  0.00  0.00    +0.000 A 
ATOM     15  C   UNL     1       0.081  10.216  21.015  0.00  0.00    +0.000 A 
ATOM     16  C   UNL     1      -0.140   9.208  21.947  0.00  0.00    +0.000 A 
ATOM     17  F   UNL     1      -0.899   9.461  23.022  0.00  0.00    +0.000 F 
ATOM     18  C   UNL     1       0.407   7.941  21.781  0.00  0.00    +0.000 A 
ENDBRANCH   4  12
BRANCH   7  19
ATOM     19  C   UNL     1       5.900   5.486  18.722  0.00  0.00    +0.000 A 
ATOM     20  C   UNL     1       5.723   6.314  17.613  0.00  0.00    +0.000 A 
ATOM     21  C   UNL     1       6.755   7.166  17.231  0.00  0.00    +0.000 A 
ATOM     22  C   UNL     1       7.940   7.161  17.951  0.00  0.00    +0.000 A 
ATOM     23  C   UNL     1       8.048   6.293  19.026  0.00  0.00    +0.000 A 
ATOM     24  N   UNL     1       7.060   5.459  19.428  0.00  0.00    +0.000 NA
ENDBRANCH   7  19
TORSDOF 2
ENDMDL
MODEL 5
REMARK VINA RESULT:      -8.1      1.801      2.184
REMARK  Name = 
REMARK  2 active torsions:
REMARK  status: ('A' for Active; 'I' for Inactive)
REMARK    1  A    between atoms: C_4  and  C_5
REMARK    2  A    between atoms: C_14  and  C_15
REMARK                            x       y       z     vdW  Elec       q    Type
REMARK                         _______ _______ _______ _____ _____    ______ ____
ROOT
ATOM      1  O   UNL     1       1.007   3.034  20.855  0.00  0.00    +0.000 OA
ATOM      2  C   UNL     1       1.597   4.071  20.578  0.00  0.00    +0.000 A 
ATOM      3  C   UNL     1       1.020   5.424  20.809  0.00  0.00    +0.000 A 
ATOM      4  C   UNL     1       1.741   6.507  20.471  0.00  0.00    +0.000 A 
ATOM      5  N   UNL     1       3.006   6.421  19.922  0.00  0.00    +0.000 N 
ATOM      6  C   UNL     1       3.592   5.221  19.684  0.00  0.00    +0.000 A 
ATOM      7  C   UNL     1       4.801   4.819  19.156  0.00  0.00    +0.000 A 
ATOM      8  C   UNL     1       4.713   3.404  19.187  0.00  0.00    +0.000 A 
ATOM      9  N   UNL     1       3.570   2.945  19.702  0.00  0.00    +0.000 NA
ATOM     10  N   UNL     1       2.884   4.079  20.009  0.00  0.00    +0.000 N 
ATOM     11  H   UNL     1       3.494   7.287  19.682  0.00  0.00    +0.000 HD
ENDROOT
BRANCH   4  12
ATOM     12  C   UNL     1       1.177   7.848  20.672  0.00  0.00    +0.000 A 
ATOM     13  C   UNL     1       1.360   8.850  19.708  0.00  0.00    +0.000 A 
ATOM     14  C   UNL     1       0.794  10.115  19.887  0.00  0.00    +0.000 A 
ATOM     15  C   UNL     1       0.048  10.387  21.033  0.00  0.00    +0.000 A 
ATOM     16  C   UNL     1      -0.114   9.396  21.995  0.00  0.00    +0.000 A 
ATOM     17  F   UNL     1      -0.822   9.663  23.100  0.00  0.00    +0.000 F 
ATOM     18  C   UNL     1       0.442   8.132  21.828  0.00  0.00    +0.000 A 
ENDBRANCH   4  12
BRANCH   7  19
ATOM     19  C   UNL     1       5.863   5.685  18.667  0.00  0.00    +0.000 A 
ATOM     20  C   UNL     1       7.124   5.671  19.265  0.00  0.00    +0.000 A 
ATOM     21  C   UNL     1       8.133   6.472  18.737  0.00  0.00    +0.000 A 
ATOM     22  C   UNL     1       7.857   7.274  17.640  0.00  0.00    +0.000 A 
ATOM     23  C   UNL     1       6.575   7.249  17.118  0.00  0.00    +0.000 A 
ATOM     24  N   UNL     1       5.575   6.476  17.602  0.00  0.00    +0.000 NA
ENDBRANCH   7  19
TORSDOF 2
ENDMDL
MODEL 6
REMARK VINA RESULT:      -8.1      1.728      2.186
REMARK  Name = 
REMARK  2 active torsions:
REMARK  status: ('A' for Active; 'I' for Inactive)
REMARK    1  A    between atoms: C_4  and  C_5
REMARK    2  A    between atoms: C_14  and  C_15
REMARK                            x       y       z     vdW  Elec       q    Type
REMARK                         _______ _______ _______ _____ _____    ______ ____
ROOT
ATOM      1  O   UNL     1       0.963   2.978  20.962  0.00  0.00    +0.000 OA
ATOM      2  C   UNL     1       1.569   3.997  20.653  0.00  0.00    +0.000 A 
ATOM      3  C   UNL     1       1.004   5.363  20.819  0.00  0.00    +0.000 A 
ATOM      4  C   UNL     1       1.741   6.425  20.449  0.00  0.00    +0.000 A 
ATOM      5  N   UNL     1       3.014   6.302  19.924  0.00  0.00    +0.000 N 
ATOM      6  C   UNL     1       3.590   5.088  19.744  0.00  0.00    +0.000 A 
ATOM      7  C   UNL     1       4.803   4.652  19.252  0.00  0.00    +0.000 A 
ATOM      8  C   UNL     1       4.697   3.240  19.340  0.00  0.00    +0.000 A 
ATOM      9  N   UNL     1       3.542   2.815  19.855  0.00  0.00    +0.000 NA
ATOM     10  N   UNL     1       2.864   3.968  20.104  0.00  0.00    +0.000 N 
ATOM     11  H   UNL     1       3.515   7.153  19.657  0.00  0.00    +0.000 HD
ENDROOT
BRANCH   4  12
ATOM     12  C   UNL     1       1.189   7.778  20.586  0.00  0.00    +0.000 A 
ATOM     13  C   UNL     1       0.395   8.117  21.691  0.00  0.00    +0.000 A 
ATOM     14  C   UNL     1      -0.101   9.416  21.835  0.00  0.00    +0.000 A 
ATOM     15  C   UNL     1       0.187  10.379  20.869  0.00  0.00    +0.000 A 
ATOM     16  C   UNL     1       0.957  10.034  19.764  0.00  0.00    +0.000 A 
ATOM     17  F   UNL     1       1.224  10.959  18.834  0.00  0.00    +0.000 F 
ATOM     18  C   UNL     1       1.460   8.746  19.612  0.00  0.00    +0.000 A 
ENDBRANCH   4  12
BRANCH   7  19
ATOM     19  C   UNL     1       5.881   5.486  18.745  0.00  0.00    +0.000 A 
ATOM     20  C   UNL     1       5.686   6.299  17.628  0.00  0.00    +0.000 A 
ATOM     21  C   UNL     1       6.722   7.125  17.202  0.00  0.00    +0.000 A 
ATOM     22  C   UNL     1       7.927   7.111  17.889  0.00  0.00    +0.000 A 
ATOM     23  C   UNL     1       8.050   6.259  18.975  0.00  0.00    +0.000 A 
ATOM     24  N   UNL     1       7.060   5.450  19.419  0.00  0.00    +0.000 NA
ENDBRANCH   7  19
TORSDOF 2
ENDMDL
MODEL 7
REMARK VINA RESULT:      -8.0      2.720      6.276
REMARK  Name = 
REMARK  2 active torsions:
REMARK  status: ('A' for Active; 'I' for Inactive)
REMARK    1  A    between atoms: C_4  and  C_5
REMARK    2  A    between atoms: C_14  and  C_15
REMARK                            x       y       z     vdW  Elec       q    Type
REMARK                         _______ _______ _______ _____ _____    ______ ____
ROOT
ATOM      1  O   UNL     1       3.835   2.205  20.484  0.00  0.00    +0.000 OA
ATOM      2  C   UNL     1       3.848   3.204  19.774  0.00  0.00    +0.000 A 
ATOM      3  C   UNL     1       4.667   3.312  18.537  0.00  0.00    +0.000 A 
ATOM      4  C   UNL     1       4.620   4.448  17.820  0.00  0.00    +0.000 A 
ATOM      5  N   UNL     1       3.834   5.526  18.181  0.00  0.00    +0.000 N 
ATOM      6  C   UNL     1       3.064   5.497  19.297  0.00  0.00    +0.000 A 
ATOM      7  C   UNL     1       2.205   6.386  19.907  0.00  0.00    +0.000 A 
ATOM      8  C   UNL     1       1.775   5.680  21.060  0.00  0.00    +0.000 A 
ATOM      9  N   UNL     1       2.291   4.454  21.167  0.00  0.00    +0.000 NA
ATOM     10  N   UNL     1       3.087   4.349  20.068  0.00  0.00    +0.000 N 
ATOM     11  H   UNL     1       3.854   6.363  17.593  0.00  0.00    +0.000 HD
ENDROOT
BRANCH   4  12
ATOM     12  C   UNL     1       5.439   4.579  16.609  0.00  0.00    +0.000 A 
ATOM     13  C   UNL     1       6.716   5.157  16.670  0.00  0.00    +0.000 A 
ATOM     14  C   UNL     1       7.506   5.250  15.521  0.00  0.00    +0.000 A 
ATOM     15  C   UNL     1       7.021   4.774  14.304  0.00  0.00    +0.000 A 
ATOM     16  C   UNL     1       5.746   4.221  14.244  0.00  0.00    +0.000 A 
ATOM     17  F   UNL     1       5.279   3.773  13.072  0.00  0.00    +0.000 F 
ATOM     18  C   UNL     1       4.951   4.119  15.380  0.00  0.00    +0.000 A 
ENDBRANCH   4  12
BRANCH   7  19
ATOM     19  C   UNL     1       1.881   7.729  19.451  0.00  0.00    +0.000 A 
ATOM     20  C   UNL     1       1.211   8.622  20.288  0.00  0.00    +0.000 A 
ATOM     21  C   UNL     1       0.966   9.917  19.840  0.00  0.00    +0.000 A 
ATOM     22  C   UNL     1       1.380  10.284  18.568  0.00  0.00    +0.000 A 
ATOM     23  C   UNL     1       2.019   9.333  17.789  0.00  0.00    +0.000 A 
ATOM     24  N   UNL     1       2.280   8.069  18.199  0.00  0.00    +0.000 NA
ENDBRANCH   7  19
TORSDOF 2
ENDMDL
MODEL 8
REMARK VINA RESULT:      -7.9      2.726      6.273
REMARK  Name = 
REMARK  2 active torsions:
REMARK  status: ('A' for Active; 'I' for Inactive)
REMARK    1  A    between atoms: C_4  and  C_5
REMARK    2  A    between atoms: C_14  and  C_15
REMARK                            x       y       z     vdW  Elec       q    Type
REMARK                         _______ _______ _______ _____ _____    ______ ____
ROOT
ATOM      1  O   UNL     1       3.680   2.212  20.397  0.00  0.00    +0.000 OA
ATOM      2  C   UNL     1       3.736   3.221  19.704  0.00  0.00    +0.000 A 
ATOM      3  C   UNL     1       4.572   3.321  18.477  0.00  0.00    +0.000 A 
ATOM      4  C   UNL     1       4.573   4.470  17.780  0.00  0.00    +0.000 A 
ATOM      5  N   UNL     1       3.820   5.568  18.150  0.00  0.00    +0.000 N 
ATOM      6  C   UNL     1       3.037   5.547  19.257  0.00  0.00    +0.000 A 
ATOM      7  C   UNL     1       2.201   6.455  19.873  0.00  0.00    +0.000 A 
ATOM      8  C   UNL     1       1.734   5.745  21.008  0.00  0.00    +0.000 A 
ATOM      9  N   UNL     1       2.207   4.500  21.100  0.00  0.00    +0.000 NA
ATOM     10  N   UNL     1       3.011   4.387  20.009  0.00  0.00    +0.000 N 
ATOM     11  H   UNL     1       3.876   6.413  17.577  0.00  0.00    +0.000 HD
ENDROOT
BRANCH   4  12
ATOM     12  C   UNL     1       5.410   4.593  16.580  0.00  0.00    +0.000 A 
ATOM     13  C   UNL     1       6.704   5.128  16.665  0.00  0.00    +0.000 A 
ATOM     14  C   UNL     1       7.511   5.213  15.526  0.00  0.00    +0.000 A 
ATOM     15  C   UNL     1       7.025   4.771  14.297  0.00  0.00    +0.000 A 
ATOM     16  C   UNL     1       5.734   4.260  14.214  0.00  0.00    +0.000 A 
ATOM     17  F   UNL     1       5.266   3.846  13.029  0.00  0.00    +0.000 F 
ATOM     18  C   UNL     1       4.923   4.167  15.339  0.00  0.00    +0.000 A 
ENDBRANCH   4  12
BRANCH   7  19
ATOM     19  C   UNL     1       1.929   7.815  19.436  0.00  0.00    +0.000 A 
ATOM     20  C   UNL     1       2.278   8.232  18.150  0.00  0.00    +0.000 A 
ATOM     21  C   UNL     1       1.954   9.524  17.746  0.00  0.00    +0.000 A 
ATOM     22  C   UNL     1       1.305  10.370  18.633  0.00  0.00    +0.000 A 
ATOM     23  C   UNL     1       1.014   9.889  19.899  0.00  0.00    +0.000 A 
ATOM     24  N   UNL     1       1.308   8.637  20.320  0.00  0.00    +0.000 NA
ENDBRANCH   7  19
TORSDOF 2
ENDMDL
MODEL 9
REMARK VINA RESULT:      -7.9      1.820      2.402
REMARK  Name = 
REMARK  2 active torsions:
REMARK  status: ('A' for Active; 'I' for Inactive)
REMARK    1  A    between atoms: C_4  and  C_5
REMARK    2  A    between atoms: C_14  and  C_15
REMARK                            x       y       z     vdW  Elec       q    Type
REMARK                         _______ _______ _______ _____ _____    ______ ____
ROOT
ATOM      1  O   UNL     1       0.932   3.180  20.860  0.00  0.00    +0.000 OA
ATOM      2  C   UNL     1       1.552   4.199  20.581  0.00  0.00    +0.000 A 
ATOM      3  C   UNL     1       1.012   5.568  20.804  0.00  0.00    +0.000 A 
ATOM      4  C   UNL     1       1.762   6.629  20.465  0.00  0.00    +0.000 A 
ATOM      5  N   UNL     1       3.027   6.506  19.920  0.00  0.00    +0.000 N 
ATOM      6  C   UNL     1       3.580   5.290  19.688  0.00  0.00    +0.000 A 
ATOM      7  C   UNL     1       4.779   4.852  19.166  0.00  0.00    +0.000 A 
ATOM      8  C   UNL     1       4.652   3.440  19.203  0.00  0.00    +0.000 A 
ATOM      9  N   UNL     1       3.495   3.015  19.716  0.00  0.00    +0.000 NA
ATOM     10  N   UNL     1       2.839   4.169  20.016  0.00  0.00    +0.000 N 
ATOM     11  H   UNL     1       3.539   7.357  19.678  0.00  0.00    +0.000 HD
ENDROOT
BRANCH   4  12
ATOM     12  C   UNL     1       1.235   7.986  20.657  0.00  0.00    +0.000 A 
ATOM     13  C   UNL     1       0.716   8.380  21.900  0.00  0.00    +0.000 A 
ATOM     14  C   UNL     1       0.245   9.682  22.089  0.00  0.00    +0.000 A 
ATOM     15  C   UNL     1       0.283  10.594  21.035  0.00  0.00    +0.000 A 
ATOM     16  C   UNL     1       0.779  10.193  19.800  0.00  0.00    +0.000 A 
ATOM     17  F   UNL     1       0.805  11.069  18.786  0.00  0.00    +0.000 F 
ATOM     18  C   UNL     1       1.254   8.901  19.599  0.00  0.00    +0.000 A 
ENDBRANCH   4  12
BRANCH   7  19
ATOM     19  C   UNL     1       5.866   5.686  18.677  0.00  0.00    +0.000 A 
ATOM     20  C   UNL     1       7.123   5.643  19.281  0.00  0.00    +0.000 A 
ATOM     21  C   UNL     1       8.155   6.414  18.754  0.00  0.00    +0.000 A 
ATOM     22  C   UNL     1       7.907   7.215  17.650  0.00  0.00    +0.000 A 
ATOM     23  C   UNL     1       6.627   7.220  17.120  0.00  0.00    +0.000 A 
ATOM     24  N   UNL     1       5.604   6.477  17.605  0.00  0.00    +0.000 NA
ENDBRANCH   7  19
TORSDOF 2
ENDMDL
