MODEL 1
REMARK VINA RESULT:      -9.7      0.000      0.000
REMARK  Name = 
REMARK  7 active torsions:
REMARK  status: ('A' for Active; 'I' for Inactive)
REMARK    1  A    between atoms: C_1  and  N_2
REMARK    2  A    between atoms: N_2  and  C_3
REMARK    3  A    between atoms: N_2  and  S_9
REMARK    4  A    between atoms: S_9  and  C_12
REMARK    5  A    between atoms: C_16  and  C_17
REMARK    6  A    between atoms: N_19  and  N_20
REMARK    7  A    between atoms: C_28  and  O_29
REMARK                            x       y       z     vdW  Elec       q    Type
REMARK                         _______ _______ _______ _____ _____    ______ ____
ROOT
ATOM      1  C   UNL     1      -0.565  11.107  20.815  0.00  0.00    +0.000 A 
ATOM      2  C   UNL     1      -0.897  11.015  22.166  0.00  0.00    +0.000 A 
ATOM      3  C   UNL     1      -0.421   9.927  22.919  0.00  0.00    +0.000 A 
ATOM      4  C   UNL     1       0.395   8.949  22.324  0.00  0.00    +0.000 A 
ATOM      5  C   UNL     1       0.742   9.053  20.971  0.00  0.00    +0.000 A 
ATOM      6  C   UNL     1       0.198  10.108  20.204  0.00  0.00    +0.000 A 
ENDROOT
BRANCH   5   7
ATOM      7  C   UNL     1       1.633   8.089  20.261  0.00  0.00    +0.000 C 
ATOM      8  O   UNL     1       2.091   8.432  19.174  0.00  0.00    +0.000 OA
ATOM      9  N   UNL     1       1.930   6.878  20.903  0.00  0.00    +0.000 N 
ATOM     10  H   UNL     1       1.866   6.887  21.927  0.00  0.00    +0.000 HD
BRANCH   9  11
ATOM     11  N   UNL     1       2.934   6.051  20.406  0.00  0.00    +0.000 NA
ATOM     12  C   UNL     1       2.638   4.788  20.321  0.00  0.00    +0.000 C 
ATOM     13  C   UNL     1       1.341   4.199  20.890  0.00  0.00    +0.000 C 
ATOM     14  C   UNL     1       1.547   2.723  20.721  0.00  0.00    +0.000 C 
ATOM     15  C   UNL     1       2.332   2.799  19.452  0.00  0.00    +0.000 A 
ATOM     16  C   UNL     1       1.822   2.566  18.171  0.00  0.00    +0.000 A 
ATOM     17  C   UNL     1       2.543   2.994  17.053  0.00  0.00    +0.000 A 
ATOM     18  C   UNL     1       3.818   3.521  17.227  0.00  0.00    +0.000 A 
ATOM     19  C   UNL     1       4.262   3.810  18.527  0.00  0.00    +0.000 A 
ATOM     20  C   UNL     1       3.397   3.688  19.597  0.00  0.00    +0.000 A 
BRANCH  19  21
ATOM     21  O   UNL     1       5.590   3.438  18.745  0.00  0.00    +0.000 OA
ATOM     22  H   UNL     1       5.752   2.681  18.157  0.00  0.00    +0.000 HD
ENDBRANCH  19  21
ENDBRANCH   9  11
ENDBRANCH   5   7
BRANCH   1  23
ATOM     23  S   UNL     1      -1.210  12.425  19.795  0.00  0.00    +0.000 S 
ATOM     24  O   UNL     1      -0.397  12.457  18.592  0.00  0.00    +0.000 OA
ATOM     25  O   UNL     1      -1.343  13.596  20.629  0.00  0.00    +0.000 OA
BRANCH  23  27
ATOM     26  C   UNL     1      -3.923  12.516  19.950  0.00  0.00    +0.000 C 
ATOM     27  N   UNL     1      -2.769  11.861  19.344  0.00  0.00    +0.000 N 
BRANCH  27  28
ATOM     28  C   UNL     1      -2.927  11.258  18.054  0.00  0.00    +0.000 A 
ATOM     29  C   UNL     1      -2.074  10.214  17.705  0.00  0.00    +0.000 A 
ATOM     30  C   UNL     1      -2.228   9.562  16.482  0.00  0.00    +0.000 A 
ATOM     31  C   UNL     1      -3.225   9.967  15.596  0.00  0.00    +0.000 A 
ATOM     32  C   UNL     1      -4.075  11.021  15.928  0.00  0.00    +0.000 A 
ATOM     33  C   UNL     1      -3.929  11.667  17.170  0.00  0.00    +0.000 A 
ENDBRANCH  27  28
ENDBRANCH  23  27
ENDBRANCH   1  23
TORSDOF 6
ENDMDL
MODEL 2
REMARK VINA RESULT:      -9.1      1.502      2.168
REMARK  Name = 
REMARK  7 active torsions:
REMARK  status: ('A' for Active; 'I' for Inactive)
REMARK    1  A    between atoms: C_1  and  N_2
REMARK    2  A    between atoms: N_2  and  C_3
REMARK    3  A    between atoms: N_2  and  S_9
REMARK    4  A    between atoms: S_9  and  C_12
REMARK    5  A    between atoms: C_16  and  C_17
REMARK    6  A    between atoms: N_19  and  N_20
REMARK    7  A    between atoms: C_28  and  O_29
REMARK                            x       y       z     vdW  Elec       q    Type
REMARK                         _______ _______ _______ _____ _____    ______ ____
ROOT
ATOM      1  C   UNL     1       0.300  11.383  21.573  0.00  0.00    +0.000 A 
ATOM      2  C   UNL     1      -0.601  10.936  22.538  0.00  0.00    +0.000 A 
ATOM      3  C   UNL     1      -0.815   9.555  22.693  0.00  0.00    +0.000 A 
ATOM      4  C   UNL     1      -0.119   8.631  21.894  0.00  0.00    +0.000 A 
ATOM      5  C   UNL     1       0.799   9.082  20.937  0.00  0.00    +0.000 A 
ATOM      6  C   UNL     1       0.952  10.473  20.737  0.00  0.00    +0.000 A 
ENDROOT
BRANCH   5   7
ATOM      7  C   UNL     1       1.613   8.179  20.070  0.00  0.00    +0.000 C 
ATOM      8  O   UNL     1       1.932   8.593  18.959  0.00  0.00    +0.000 OA
ATOM      9  N   UNL     1       2.006   6.942  20.601  0.00  0.00    +0.000 N 
ATOM     10  H   UNL     1       2.065   6.892  21.624  0.00  0.00    +0.000 HD
BRANCH   9  11
ATOM     11  N   UNL     1       2.956   6.168  19.941  0.00  0.00    +0.000 NA
ATOM     12  C   UNL     1       2.948   4.898  20.222  0.00  0.00    +0.000 C 
ATOM     13  C   UNL     1       2.078   4.300  21.335  0.00  0.00    +0.000 C 
ATOM     14  C   UNL     1       2.553   2.878  21.396  0.00  0.00    +0.000 C 
ATOM     15  C   UNL     1       2.844   2.727  19.938  0.00  0.00    +0.000 A 
ATOM     16  C   UNL     1       2.014   2.091  19.010  0.00  0.00    +0.000 A 
ATOM     17  C   UNL     1       2.215   2.306  17.644  0.00  0.00    +0.000 A 
ATOM     18  C   UNL     1       3.319   3.040  17.225  0.00  0.00    +0.000 A 
ATOM     19  C   UNL     1       4.081   3.726  18.185  0.00  0.00    +0.000 A 
ATOM     20  C   UNL     1       3.663   3.768  19.500  0.00  0.00    +0.000 A 
BRANCH  19  21
ATOM     21  O   UNL     1       5.456   3.623  17.964  0.00  0.00    +0.000 OA
ATOM     22  H   UNL     1       5.556   3.363  17.032  0.00  0.00    +0.000 HD
ENDBRANCH  19  21
ENDBRANCH   9  11
ENDBRANCH   5   7
BRANCH   1  23
ATOM     23  S   UNL     1       0.548  13.129  21.281  0.00  0.00    +0.000 S 
ATOM     24  O   UNL     1       1.975  13.323  21.100  0.00  0.00    +0.000 OA
ATOM     25  O   UNL     1      -0.172  13.848  22.306  0.00  0.00    +0.000 OA
BRANCH  23  27
ATOM     26  C   UNL     1       0.669  13.613  18.607  0.00  0.00    +0.000 C 
ATOM     27  N   UNL     1      -0.202  13.395  19.758  0.00  0.00    +0.000 N 
BRANCH  27  28
ATOM     28  C   UNL     1      -1.502  12.838  19.534  0.00  0.00    +0.000 A 
ATOM     29  C   UNL     1      -2.550  13.262  20.345  0.00  0.00    +0.000 A 
ATOM     30  C   UNL     1      -3.843  12.787  20.126  0.00  0.00    +0.000 A 
ATOM     31  C   UNL     1      -4.085  11.868  19.105  0.00  0.00    +0.000 A 
ATOM     32  C   UNL     1      -3.040  11.425  18.295  0.00  0.00    +0.000 A 
ATOM     33  C   UNL     1      -1.739  11.919  18.507  0.00  0.00    +0.000 A 
ENDBRANCH  27  28
ENDBRANCH  23  27
ENDBRANCH   1  23
TORSDOF 6
ENDMDL
MODEL 3
REMARK VINA RESULT:      -9.0      2.207      3.281
REMARK  Name = 
REMARK  7 active torsions:
REMARK  status: ('A' for Active; 'I' for Inactive)
REMARK    1  A    between atoms: C_1  and  N_2
REMARK    2  A    between atoms: N_2  and  C_3
REMARK    3  A    between atoms: N_2  and  S_9
REMARK    4  A    between atoms: S_9  and  C_12
REMARK    5  A    between atoms: C_16  and  C_17
REMARK    6  A    between atoms: N_19  and  N_20
REMARK    7  A    between atoms: C_28  and  O_29
REMARK                            x       y       z     vdW  Elec       q    Type
REMARK                         _______ _______ _______ _____ _____    ______ ____
ROOT
ATOM      1  C   UNL     1      -0.725  11.061  20.548  0.00  0.00    +0.000 A 
ATOM      2  C   UNL     1      -0.912  11.033  21.929  0.00  0.00    +0.000 A 
ATOM      3  C   UNL     1      -0.280  10.032  22.689  0.00  0.00    +0.000 A 
ATOM      4  C   UNL     1       0.544   9.078  22.067  0.00  0.00    +0.000 A 
ATOM      5  C   UNL     1       0.744   9.119  20.682  0.00  0.00    +0.000 A 
ATOM      6  C   UNL     1       0.046  10.081  19.917  0.00  0.00    +0.000 A 
ENDROOT
BRANCH   5   7
ATOM      7  C   UNL     1       1.630   8.175  19.937  0.00  0.00    +0.000 C 
ATOM      8  O   UNL     1       2.006   8.512  18.818  0.00  0.00    +0.000 OA
ATOM      9  N   UNL     1       2.016   6.992  20.584  0.00  0.00    +0.000 N 
ATOM     10  H   UNL     1       2.013   7.022  21.610  0.00  0.00    +0.000 HD
BRANCH   9  11
ATOM     11  N   UNL     1       3.022   6.196  20.043  0.00  0.00    +0.000 NA
ATOM     12  C   UNL     1       2.929   4.922  20.286  0.00  0.00    +0.000 C 
ATOM     13  C   UNL     1       1.889   4.334  21.249  0.00  0.00    +0.000 C 
ATOM     14  C   UNL     1       2.300   2.894  21.338  0.00  0.00    +0.000 C 
ATOM     15  C   UNL     1       2.788   2.763  19.932  0.00  0.00    +0.000 A 
ATOM     16  C   UNL     1       2.075   2.181  18.880  0.00  0.00    +0.000 A 
ATOM     17  C   UNL     1       2.474   2.418  17.561  0.00  0.00    +0.000 A 
ATOM     18  C   UNL     1       3.652   3.116  17.322  0.00  0.00    +0.000 A 
ATOM     19  C   UNL     1       4.295   3.751  18.397  0.00  0.00    +0.000 A 
ATOM     20  C   UNL     1       3.698   3.780  19.641  0.00  0.00    +0.000 A 
BRANCH  19  21
ATOM     21  O   UNL     1       5.683   3.598  18.368  0.00  0.00    +0.000 OA
ATOM     22  H   UNL     1       6.020   4.108  19.124  0.00  0.00    +0.000 HD
ENDBRANCH  19  21
ENDBRANCH   9  11
ENDBRANCH   5   7
BRANCH   1  23
ATOM     23  S   UNL     1      -1.568  12.263  19.528  0.00  0.00    +0.000 S 
ATOM     24  O   UNL     1      -2.959  12.259  19.943  0.00  0.00    +0.000 OA
ATOM     25  O   UNL     1      -1.205  11.999  18.155  0.00  0.00    +0.000 OA
BRANCH  23  27
ATOM     26  C   UNL     1      -1.591  14.506  21.065  0.00  0.00    +0.000 C 
ATOM     27  N   UNL     1      -0.890  13.761  20.023  0.00  0.00    +0.000 N 
BRANCH  27  28
ATOM     28  C   UNL     1       0.523  13.946  19.886  0.00  0.00    +0.000 A 
ATOM     29  C   UNL     1       1.326  13.747  21.007  0.00  0.00    +0.000 A 
ATOM     30  C   UNL     1       2.712  13.863  20.906  0.00  0.00    +0.000 A 
ATOM     31  C   UNL     1       3.298  14.198  19.685  0.00  0.00    +0.000 A 
ATOM     32  C   UNL     1       2.503  14.414  18.560  0.00  0.00    +0.000 A 
ATOM     33  C   UNL     1       1.105  14.280  18.661  0.00  0.00    +0.000 A 
ENDBRANCH  27  28
ENDBRANCH  23  27
ENDBRANCH   1  23
TORSDOF 6
ENDMDL
MODEL 4
REMARK VINA RESULT:      -8.9      2.372      3.331
REMARK  Name = 
REMARK  7 active torsions:
REMARK  status: ('A' for Active; 'I' for Inactive)
REMARK    1  A    between atoms: C_1  and  N_2
REMARK    2  A    between atoms: N_2  and  C_3
REMARK    3  A    between atoms: N_2  and  S_9
REMARK    4  A    between atoms: S_9  and  C_12
REMARK    5  A    between atoms: C_16  and  C_17
REMARK    6  A    between atoms: N_19  and  N_20
REMARK    7  A    between atoms: C_28  and  O_29
REMARK                            x       y       z     vdW  Elec       q    Type
REMARK                         _______ _______ _______ _____ _____    ______ ____
ROOT
ATOM      1  C   UNL     1      -0.553  11.148  20.709  0.00  0.00    +0.000 A 
ATOM      2  C   UNL     1      -0.908  11.066  22.054  0.00  0.00    +0.000 A 
ATOM      3  C   UNL     1      -0.458   9.975  22.819  0.00  0.00    +0.000 A 
ATOM      4  C   UNL     1       0.354   8.984  22.240  0.00  0.00    +0.000 A 
ATOM      5  C   UNL     1       0.724   9.078  20.892  0.00  0.00    +0.000 A 
ATOM      6  C   UNL     1       0.206  10.137  20.112  0.00  0.00    +0.000 A 
ENDROOT
BRANCH   5   7
ATOM      7  C   UNL     1       1.612   8.099  20.199  0.00  0.00    +0.000 C 
ATOM      8  O   UNL     1       2.055   8.413  19.098  0.00  0.00    +0.000 OA
ATOM      9  N   UNL     1       1.925   6.909  20.873  0.00  0.00    +0.000 N 
ATOM     10  H   UNL     1       1.873   6.947  21.897  0.00  0.00    +0.000 HD
BRANCH   9  11
ATOM     11  N   UNL     1       2.929   6.075  20.388  0.00  0.00    +0.000 NA
ATOM     12  C   UNL     1       2.630   4.811  20.314  0.00  0.00    +0.000 C 
ATOM     13  C   UNL     1       1.328   4.232  20.884  0.00  0.00    +0.000 C 
ATOM     14  C   UNL     1       1.532   2.753  20.731  0.00  0.00    +0.000 C 
ATOM     15  C   UNL     1       2.321   2.814  19.464  0.00  0.00    +0.000 A 
ATOM     16  C   UNL     1       1.815   2.571  18.184  0.00  0.00    +0.000 A 
ATOM     17  C   UNL     1       2.542   2.985  17.065  0.00  0.00    +0.000 A 
ATOM     18  C   UNL     1       3.818   3.510  17.238  0.00  0.00    +0.000 A 
ATOM     19  C   UNL     1       4.257   3.811  18.537  0.00  0.00    +0.000 A 
ATOM     20  C   UNL     1       3.388   3.702  19.604  0.00  0.00    +0.000 A 
BRANCH  19  21
ATOM     21  O   UNL     1       5.584   3.438  18.764  0.00  0.00    +0.000 OA
ATOM     22  H   UNL     1       5.871   2.981  17.955  0.00  0.00    +0.000 HD
ENDBRANCH  19  21
ENDBRANCH   9  11
ENDBRANCH   5   7
BRANCH   1  23
ATOM     23  S   UNL     1      -1.164  12.471  19.673  0.00  0.00    +0.000 S 
ATOM     24  O   UNL     1      -2.576  12.618  19.975  0.00  0.00    +0.000 OA
ATOM     25  O   UNL     1      -0.719  12.208  18.325  0.00  0.00    +0.000 OA
BRANCH  23  27
ATOM     26  C   UNL     1       1.008  13.700  20.754  0.00  0.00    +0.000 C 
ATOM     27  N   UNL     1      -0.363  13.864  20.281  0.00  0.00    +0.000 N 
BRANCH  27  28
ATOM     28  C   UNL     1      -0.766  15.148  19.791  0.00  0.00    +0.000 A 
ATOM     29  C   UNL     1      -1.744  15.845  20.495  0.00  0.00    +0.000 A 
ATOM     30  C   UNL     1      -2.127  17.122  20.085  0.00  0.00    +0.000 A 
ATOM     31  C   UNL     1      -1.545  17.696  18.955  0.00  0.00    +0.000 A 
ATOM     32  C   UNL     1      -0.575  17.001  18.234  0.00  0.00    +0.000 A 
ATOM     33  C   UNL     1      -0.178  15.720  18.659  0.00  0.00    +0.000 A 
ENDBRANCH  27  28
ENDBRANCH  23  27
ENDBRANCH   1  23
TORSDOF 6
ENDMDL
MODEL 5
REMARK VINA RESULT:      -8.9      2.227      3.201
REMARK  Name = 
REMARK  7 active torsions:
REMARK  status: ('A' for Active; 'I' for Inactive)
REMARK    1  A    between atoms: C_1  and  N_2
REMARK    2  A    between atoms: N_2  and  C_3
REMARK    3  A    between atoms: N_2  and  S_9
REMARK    4  A    between atoms: S_9  and  C_12
REMARK    5  A    between atoms: C_16  and  C_17
REMARK    6  A    between atoms: N_19  and  N_20
REMARK    7  A    between atoms: C_28  and  O_29
REMARK                            x       y       z     vdW  Elec       q    Type
REMARK                         _______ _______ _______ _____ _____    ______ ____
ROOT
ATOM      1  C   UNL     1      -0.721  11.058  21.304  0.00  0.00    +0.000 A 
ATOM      2  C   UNL     1      -0.899  10.819  22.666  0.00  0.00    +0.000 A 
ATOM      3  C   UNL     1      -0.311   9.682  23.248  0.00  0.00    +0.000 A 
ATOM      4  C   UNL     1       0.461   8.801  22.470  0.00  0.00    +0.000 A 
ATOM      5  C   UNL     1       0.653   9.052  21.106  0.00  0.00    +0.000 A 
ATOM      6  C   UNL     1      -0.003  10.155  20.514  0.00  0.00    +0.000 A 
ENDROOT
BRANCH   5   7
ATOM      7  C   UNL     1       1.487   8.198  20.209  0.00  0.00    +0.000 C 
ATOM      8  O   UNL     1       1.798   8.660  19.114  0.00  0.00    +0.000 OA
ATOM      9  N   UNL     1       1.903   6.950  20.694  0.00  0.00    +0.000 N 
ATOM     10  H   UNL     1       1.961   6.864  21.715  0.00  0.00    +0.000 HD
BRANCH   9  11
ATOM     11  N   UNL     1       2.869   6.220  20.007  0.00  0.00    +0.000 NA
ATOM     12  C   UNL     1       2.891   4.942  20.246  0.00  0.00    +0.000 C 
ATOM     13  C   UNL     1       2.036   4.288  21.340  0.00  0.00    +0.000 C 
ATOM     14  C   UNL     1       2.544   2.876  21.354  0.00  0.00    +0.000 C 
ATOM     15  C   UNL     1       2.835   2.780  19.891  0.00  0.00    +0.000 A 
ATOM     16  C   UNL     1       2.018   2.156  18.944  0.00  0.00    +0.000 A 
ATOM     17  C   UNL     1       2.211   2.421  17.585  0.00  0.00    +0.000 A 
ATOM     18  C   UNL     1       3.298   3.193  17.190  0.00  0.00    +0.000 A 
ATOM     19  C   UNL     1       4.046   3.864  18.170  0.00  0.00    +0.000 A 
ATOM     20  C   UNL     1       3.630   3.853  19.487  0.00  0.00    +0.000 A 
BRANCH  19  21
ATOM     21  O   UNL     1       5.423   3.799  17.945  0.00  0.00    +0.000 OA
ATOM     22  H   UNL     1       5.548   3.109  17.271  0.00  0.00    +0.000 HD
ENDBRANCH  19  21
ENDBRANCH   9  11
ENDBRANCH   5   7
BRANCH   1  23
ATOM     23  S   UNL     1      -1.512  12.444  20.500  0.00  0.00    +0.000 S 
ATOM     24  O   UNL     1      -1.351  13.586  21.382  0.00  0.00    +0.000 OA
ATOM     25  O   UNL     1      -2.824  12.012  20.080  0.00  0.00    +0.000 OA
BRANCH  23  27
ATOM     26  C   UNL     1      -1.089  12.378  17.814  0.00  0.00    +0.000 C 
ATOM     27  N   UNL     1      -0.531  12.724  19.118  0.00  0.00    +0.000 N 
BRANCH  27  28
ATOM     28  C   UNL     1       0.457  13.759  19.183  0.00  0.00    +0.000 A 
ATOM     29  C   UNL     1       1.718  13.436  19.679  0.00  0.00    +0.000 A 
ATOM     30  C   UNL     1       2.726  14.399  19.709  0.00  0.00    +0.000 A 
ATOM     31  C   UNL     1       2.468  15.695  19.262  0.00  0.00    +0.000 A 
ATOM     32  C   UNL     1       1.205  16.032  18.777  0.00  0.00    +0.000 A 
ATOM     33  C   UNL     1       0.194  15.054  18.731  0.00  0.00    +0.000 A 
ENDBRANCH  27  28
ENDBRANCH  23  27
ENDBRANCH   1  23
TORSDOF 6
ENDMDL
MODEL 6
REMARK VINA RESULT:      -8.8      3.227      4.261
REMARK  Name = 
REMARK  7 active torsions:
REMARK  status: ('A' for Active; 'I' for Inactive)
REMARK    1  A    between atoms: C_1  and  N_2
REMARK    2  A    between atoms: N_2  and  C_3
REMARK    3  A    between atoms: N_2  and  S_9
REMARK    4  A    between atoms: S_9  and  C_12
REMARK    5  A    between atoms: C_16  and  C_17
REMARK    6  A    between atoms: N_19  and  N_20
REMARK    7  A    between atoms: C_28  and  O_29
REMARK                            x       y       z     vdW  Elec       q    Type
REMARK                         _______ _______ _______ _____ _____    ______ ____
ROOT
ATOM      1  C   UNL     1       0.192  11.716  19.733  0.00  0.00    +0.000 A 
ATOM      2  C   UNL     1      -1.077  11.746  19.157  0.00  0.00    +0.000 A 
ATOM      3  C   UNL     1      -1.425  10.768  18.208  0.00  0.00    +0.000 A 
ATOM      4  C   UNL     1      -0.511   9.761  17.852  0.00  0.00    +0.000 A 
ATOM      5  C   UNL     1       0.757   9.723  18.444  0.00  0.00    +0.000 A 
ATOM      6  C   UNL     1       1.126  10.752  19.341  0.00  0.00    +0.000 A 
ENDROOT
BRANCH   5   7
ATOM      7  C   UNL     1       1.780   8.673  18.161  0.00  0.00    +0.000 C 
ATOM      8  O   UNL     1       2.497   8.829  17.177  0.00  0.00    +0.000 OA
ATOM      9  N   UNL     1       1.890   7.606  19.065  0.00  0.00    +0.000 N 
ATOM     10  H   UNL     1       1.575   7.797  20.023  0.00  0.00    +0.000 HD
BRANCH   9  11
ATOM     11  N   UNL     1       2.972   6.734  18.988  0.00  0.00    +0.000 NA
ATOM     12  C   UNL     1       2.852   5.621  19.651  0.00  0.00    +0.000 C 
ATOM     13  C   UNL     1       1.682   5.345  20.604  0.00  0.00    +0.000 C 
ATOM     14  C   UNL     1       2.084   4.054  21.254  0.00  0.00    +0.000 C 
ATOM     15  C   UNL     1       2.782   3.471  20.068  0.00  0.00    +0.000 A 
ATOM     16  C   UNL     1       2.242   2.516  19.202  0.00  0.00    +0.000 A 
ATOM     17  C   UNL     1       2.836   2.301  17.955  0.00  0.00    +0.000 A 
ATOM     18  C   UNL     1       4.032   2.942  17.652  0.00  0.00    +0.000 A 
ATOM     19  C   UNL     1       4.499   3.949  18.511  0.00  0.00    +0.000 A 
ATOM     20  C   UNL     1       3.718   4.375  19.567  0.00  0.00    +0.000 A 
BRANCH  19  21
ATOM     21  O   UNL     1       5.876   3.881  18.734  0.00  0.00    +0.000 OA
ATOM     22  H   UNL     1       6.213   3.223  18.103  0.00  0.00    +0.000 HD
ENDBRANCH  19  21
ENDBRANCH   9  11
ENDBRANCH   5   7
BRANCH   1  23
ATOM     23  S   UNL     1       0.714  12.980  20.883  0.00  0.00    +0.000 S 
ATOM     24  O   UNL     1       2.130  12.768  21.123  0.00  0.00    +0.000 OA
ATOM     25  O   UNL     1      -0.229  12.988  21.977  0.00  0.00    +0.000 OA
BRANCH  23  27
ATOM     26  C   UNL     1      -0.597  15.281  20.260  0.00  0.00    +0.000 C 
ATOM     27  N   UNL     1       0.560  14.435  19.982  0.00  0.00    +0.000 N 
BRANCH  27  28
ATOM     28  C   UNL     1       1.751  15.053  19.480  0.00  0.00    +0.000 A 
ATOM     29  C   UNL     1       2.298  14.564  18.296  0.00  0.00    +0.000 A 
ATOM     30  C   UNL     1       3.425  15.170  17.742  0.00  0.00    +0.000 A 
ATOM     31  C   UNL     1       4.020  16.257  18.384  0.00  0.00    +0.000 A 
ATOM     32  C   UNL     1       3.489  16.745  19.577  0.00  0.00    +0.000 A 
ATOM     33  C   UNL     1       2.341  16.142  20.125  0.00  0.00    +0.000 A 
ENDBRANCH  27  28
ENDBRANCH  23  27
ENDBRANCH   1  23
TORSDOF 6
ENDMDL
MODEL 7
REMARK VINA RESULT:      -8.7      2.135      3.743
REMARK  Name = 
REMARK  7 active torsions:
REMARK  status: ('A' for Active; 'I' for Inactive)
REMARK    1  A    between atoms: C_1  and  N_2
REMARK    2  A    between atoms: N_2  and  C_3
REMARK    3  A    between atoms: N_2  and  S_9
REMARK    4  A    between atoms: S_9  and  C_12
REMARK    5  A    between atoms: C_16  and  C_17
REMARK    6  A    between atoms: N_19  and  N_20
REMARK    7  A    between atoms: C_28  and  O_29
REMARK                            x       y       z     vdW  Elec       q    Type
REMARK                         _______ _______ _______ _____ _____    ______ ____
ROOT
ATOM      1  C   UNL     1       0.604  12.032  18.781  0.00  0.00    +0.000 A 
ATOM      2  C   UNL     1      -0.766  11.911  18.554  0.00  0.00    +0.000 A 
ATOM      3  C   UNL     1      -1.285  10.680  18.116  0.00  0.00    +0.000 A 
ATOM      4  C   UNL     1      -0.436   9.576  17.922  0.00  0.00    +0.000 A 
ATOM      5  C   UNL     1       0.937   9.695  18.168  0.00  0.00    +0.000 A 
ATOM      6  C   UNL     1       1.461  10.955  18.536  0.00  0.00    +0.000 A 
ENDROOT
BRANCH   5   7
ATOM      7  C   UNL     1       1.911   8.571  18.029  0.00  0.00    +0.000 C 
ATOM      8  O   UNL     1       2.665   8.589  17.060  0.00  0.00    +0.000 OA
ATOM      9  N   UNL     1       1.936   7.599  19.040  0.00  0.00    +0.000 N 
ATOM     10  H   UNL     1       1.603   7.903  19.962  0.00  0.00    +0.000 HD
BRANCH   9  11
ATOM     11  N   UNL     1       2.972   6.670  19.090  0.00  0.00    +0.000 NA
ATOM     12  C   UNL     1       2.692   5.539  19.668  0.00  0.00    +0.000 C 
ATOM     13  C   UNL     1       1.371   5.290  20.408  0.00  0.00    +0.000 C 
ATOM     14  C   UNL     1       1.600   3.952  21.046  0.00  0.00    +0.000 C 
ATOM     15  C   UNL     1       2.449   3.380  19.958  0.00  0.00    +0.000 A 
ATOM     16  C   UNL     1       2.009   2.495  18.970  0.00  0.00    +0.000 A 
ATOM     17  C   UNL     1       2.784   2.300  17.823  0.00  0.00    +0.000 A 
ATOM     18  C   UNL     1       4.044   2.884  17.746  0.00  0.00    +0.000 A 
ATOM     19  C   UNL     1       4.416   3.826  18.719  0.00  0.00    +0.000 A 
ATOM     20  C   UNL     1       3.498   4.250  19.658  0.00  0.00    +0.000 A 
BRANCH  19  21
ATOM     21  O   UNL     1       5.734   3.669  19.152  0.00  0.00    +0.000 OA
ATOM     22  H   UNL     1       5.956   2.737  18.991  0.00  0.00    +0.000 HD
ENDBRANCH  19  21
ENDBRANCH   9  11
ENDBRANCH   5   7
BRANCH   1  23
ATOM     23  S   UNL     1       1.326  13.595  19.262  0.00  0.00    +0.000 S 
ATOM     24  O   UNL     1       0.427  14.632  18.787  0.00  0.00    +0.000 OA
ATOM     25  O   UNL     1       2.712  13.576  18.860  0.00  0.00    +0.000 OA
BRANCH  23  27
ATOM     26  C   UNL     1       2.002  14.573  21.708  0.00  0.00    +0.000 C 
ATOM     27  N   UNL     1       1.225  13.577  20.977  0.00  0.00    +0.000 N 
BRANCH  27  28
ATOM     28  C   UNL     1       0.033  13.064  21.583  0.00  0.00    +0.000 A 
ATOM     29  C   UNL     1       0.013  11.725  21.967  0.00  0.00    +0.000 A 
ATOM     30  C   UNL     1      -1.107  11.197  22.610  0.00  0.00    +0.000 A 
ATOM     31  C   UNL     1      -2.218  12.005  22.852  0.00  0.00    +0.000 A 
ATOM     32  C   UNL     1      -2.214  13.343  22.459  0.00  0.00    +0.000 A 
ATOM     33  C   UNL     1      -1.076  13.877  21.825  0.00  0.00    +0.000 A 
ENDBRANCH  27  28
ENDBRANCH  23  27
ENDBRANCH   1  23
TORSDOF 6
ENDMDL
MODEL 8
REMARK VINA RESULT:      -8.7      3.331      4.171
REMARK  Name = 
REMARK  7 active torsions:
REMARK  status: ('A' for Active; 'I' for Inactive)
REMARK    1  A    between atoms: C_1  and  N_2
REMARK    2  A    between atoms: N_2  and  C_3
REMARK    3  A    between atoms: N_2  and  S_9
REMARK    4  A    between atoms: S_9  and  C_12
REMARK    5  A    between atoms: C_16  and  C_17
REMARK    6  A    between atoms: N_19  and  N_20
REMARK    7  A    between atoms: C_28  and  O_29
REMARK                            x       y       z     vdW  Elec       q    Type
REMARK                         _______ _______ _______ _____ _____    ______ ____
ROOT
ATOM      1  C   UNL     1       0.938  12.068  19.352  0.00  0.00    +0.000 A 
ATOM      2  C   UNL     1      -0.433  12.098  19.101  0.00  0.00    +0.000 A 
ATOM      3  C   UNL     1      -1.054  10.969  18.538  0.00  0.00    +0.000 A 
ATOM      4  C   UNL     1      -0.306   9.815  18.244  0.00  0.00    +0.000 A 
ATOM      5  C   UNL     1       1.068   9.782  18.513  0.00  0.00    +0.000 A 
ATOM      6  C   UNL     1       1.697  10.946  19.009  0.00  0.00    +0.000 A 
ENDROOT
BRANCH   5   7
ATOM      7  C   UNL     1       1.937   8.592  18.273  0.00  0.00    +0.000 C 
ATOM      8  O   UNL     1       2.514   8.518  17.191  0.00  0.00    +0.000 OA
ATOM      9  N   UNL     1       2.080   7.665  19.316  0.00  0.00    +0.000 N 
ATOM     10  H   UNL     1       1.928   8.030  20.263  0.00  0.00    +0.000 HD
BRANCH   9  11
ATOM     11  N   UNL     1       3.055   6.674  19.241  0.00  0.00    +0.000 NA
ATOM     12  C   UNL     1       2.725   5.516  19.732  0.00  0.00    +0.000 C 
ATOM     13  C   UNL     1       1.421   5.284  20.507  0.00  0.00    +0.000 C 
ATOM     14  C   UNL     1       1.586   3.884  21.018  0.00  0.00    +0.000 C 
ATOM     15  C   UNL     1       2.354   3.359  19.849  0.00  0.00    +0.000 A 
ATOM     16  C   UNL     1       1.818   2.592  18.809  0.00  0.00    +0.000 A 
ATOM     17  C   UNL     1       2.534   2.451  17.617  0.00  0.00    +0.000 A 
ATOM     18  C   UNL     1       3.824   2.961  17.533  0.00  0.00    +0.000 A 
ATOM     19  C   UNL     1       4.295   3.790  18.565  0.00  0.00    +0.000 A 
ATOM     20  C   UNL     1       3.444   4.186  19.578  0.00  0.00    +0.000 A 
BRANCH  19  21
ATOM     21  O   UNL     1       5.616   3.515  18.925  0.00  0.00    +0.000 OA
ATOM     22  H   UNL     1       5.688   2.546  18.945  0.00  0.00    +0.000 HD
ENDBRANCH  19  21
ENDBRANCH   9  11
ENDBRANCH   5   7
BRANCH   1  23
ATOM     23  S   UNL     1       1.789  13.504  19.991  0.00  0.00    +0.000 S 
ATOM     24  O   UNL     1       2.530  14.078  18.883  0.00  0.00    +0.000 OA
ATOM     25  O   UNL     1       2.463  13.105  21.204  0.00  0.00    +0.000 OA
BRANCH  23  27
ATOM     26  C   UNL     1      -0.061  14.511  21.712  0.00  0.00    +0.000 C 
ATOM     27  N   UNL     1       0.516  14.592  20.374  0.00  0.00    +0.000 N 
BRANCH  27  28
ATOM     28  C   UNL     1       0.464  15.847  19.684  0.00  0.00    +0.000 A 
ATOM     29  C   UNL     1      -0.362  15.952  18.568  0.00  0.00    +0.000 A 
ATOM     30  C   UNL     1      -0.485  17.169  17.899  0.00  0.00    +0.000 A 
ATOM     31  C   UNL     1       0.235  18.281  18.335  0.00  0.00    +0.000 A 
ATOM     32  C   UNL     1       1.077  18.184  19.442  0.00  0.00    +0.000 A 
ATOM     33  C   UNL     1       1.187  16.958  20.126  0.00  0.00    +0.000 A 
ENDBRANCH  27  28
ENDBRANCH  23  27
ENDBRANCH   1  23
TORSDOF 6
ENDMDL
MODEL 9
REMARK VINA RESULT:      -8.7      2.275      4.264
REMARK  Name = 
REMARK  7 active torsions:
REMARK  status: ('A' for Active; 'I' for Inactive)
REMARK    1  A    between atoms: C_1  and  N_2
REMARK    2  A    between atoms: N_2  and  C_3
REMARK    3  A    between atoms: N_2  and  S_9
REMARK    4  A    between atoms: S_9  and  C_12
REMARK    5  A    between atoms: C_16  and  C_17
REMARK    6  A    between atoms: N_19  and  N_20
REMARK    7  A    between atoms: C_28  and  O_29
REMARK                            x       y       z     vdW  Elec       q    Type
REMARK                         _______ _______ _______ _____ _____    ______ ____
ROOT
ATOM      1  C   UNL     1      -0.466  11.562  19.807  0.00  0.00    +0.000 A 
ATOM      2  C   UNL     1      -1.626  11.585  19.034  0.00  0.00    +0.000 A 
ATOM      3  C   UNL     1      -1.741  10.711  17.939  0.00  0.00    +0.000 A 
ATOM      4  C   UNL     1      -0.705   9.811  17.633  0.00  0.00    +0.000 A 
ATOM      5  C   UNL     1       0.452   9.777  18.421  0.00  0.00    +0.000 A 
ATOM      6  C   UNL     1       0.590  10.710  19.474  0.00  0.00    +0.000 A 
ENDROOT
BRANCH   5   7
ATOM      7  C   UNL     1       1.586   8.832  18.200  0.00  0.00    +0.000 C 
ATOM      8  O   UNL     1       2.312   9.032  17.229  0.00  0.00    +0.000 OA
ATOM      9  N   UNL     1       1.780   7.811  19.142  0.00  0.00    +0.000 N 
ATOM     10  H   UNL     1       1.419   7.997  20.084  0.00  0.00    +0.000 HD
BRANCH   9  11
ATOM     11  N   UNL     1       2.949   7.055  19.122  0.00  0.00    +0.000 NA
ATOM     12  C   UNL     1       2.881   5.889  19.694  0.00  0.00    +0.000 C 
ATOM     13  C   UNL     1       1.657   5.430  20.499  0.00  0.00    +0.000 C 
ATOM     14  C   UNL     1       2.125   4.139  21.101  0.00  0.00    +0.000 C 
ATOM     15  C   UNL     1       2.993   3.717  19.960  0.00  0.00    +0.000 A 
ATOM     16  C   UNL     1       2.642   2.782  18.981  0.00  0.00    +0.000 A 
ATOM     17  C   UNL     1       3.375   2.721  17.792  0.00  0.00    +0.000 A 
ATOM     18  C   UNL     1       4.522   3.495  17.659  0.00  0.00    +0.000 A 
ATOM     19  C   UNL     1       4.796   4.475  18.627  0.00  0.00    +0.000 A 
ATOM     20  C   UNL     1       3.875   4.742  19.620  0.00  0.00    +0.000 A 
BRANCH  19  21
ATOM     21  O   UNL     1       6.144   4.523  18.988  0.00  0.00    +0.000 OA
ATOM     22  H   UNL     1       6.170   4.316  19.938  0.00  0.00    +0.000 HD
ENDBRANCH  19  21
ENDBRANCH   9  11
ENDBRANCH   5   7
BRANCH   1  23
ATOM     23  S   UNL     1      -0.237  12.707  21.161  0.00  0.00    +0.000 S 
ATOM     24  O   UNL     1      -0.835  13.964  20.749  0.00  0.00    +0.000 OA
ATOM     25  O   UNL     1       1.151  12.641  21.555  0.00  0.00    +0.000 OA
BRANCH  23  27
ATOM     26  C   UNL     1      -0.867  10.740  22.931  0.00  0.00    +0.000 C 
ATOM     27  N   UNL     1      -1.220  12.058  22.411  0.00  0.00    +0.000 N 
BRANCH  27  28
ATOM     28  C   UNL     1      -1.911  12.968  23.274  0.00  0.00    +0.000 A 
ATOM     29  C   UNL     1      -1.215  14.071  23.763  0.00  0.00    +0.000 A 
ATOM     30  C   UNL     1      -1.864  15.012  24.562  0.00  0.00    +0.000 A 
ATOM     31  C   UNL     1      -3.209  14.840  24.890  0.00  0.00    +0.000 A 
ATOM     32  C   UNL     1      -3.912  13.732  24.418  0.00  0.00    +0.000 A 
ATOM     33  C   UNL     1      -3.259  12.793  23.598  0.00  0.00    +0.000 A 
ENDBRANCH  27  28
ENDBRANCH  23  27
ENDBRANCH   1  23
TORSDOF 6
ENDMDL
