MODEL 1
REMARK VINA RESULT:      -9.0      0.000      0.000
REMARK  Name = 
REMARK  6 active torsions:
REMARK  status: ('A' for Active; 'I' for Inactive)
REMARK    1  A    between atoms: C_8  and  C_9
REMARK    2  A    between atoms: C_9  and  O_10
REMARK    3  A    between atoms: O_10  and  C_11
REMARK    4  A    between atoms: C_11  and  C_12
REMARK    5  A    between atoms: C_21  and  C_22
REMARK    6  A    between atoms: C_25  and  C_26
REMARK                            x       y       z     vdW  Elec       q    Type
REMARK                         _______ _______ _______ _____ _____    ______ ____
ROOT
ATOM      1  O   UNL     1      -2.314  14.763  20.409  0.00  0.00    +0.000 OA
ATOM      2  C   UNL     1      -2.249  13.740  21.074  0.00  0.00    +0.000 C 
ATOM      3  N   UNL     1      -3.239  13.184  21.881  0.00  0.00    +0.000 N 
ATOM      4  C   UNL     1      -3.001  12.102  22.846  0.00  0.00    +0.000 C 
ATOM      5  C   UNL     1      -3.657  12.400  24.192  0.00  0.00    +0.000 C 
ATOM      6  C   UNL     1      -5.048  12.924  24.032  0.00  0.00    +0.000 C 
ATOM      7  C   UNL     1      -5.479  13.419  22.861  0.00  0.00    +0.000 C 
ATOM      8  C   UNL     1      -4.649  13.516  21.595  0.00  0.00    +0.000 C 
ATOM      9  N   UNL     1      -1.070  12.988  21.041  0.00  0.00    +0.000 N 
ATOM     10  C   UNL     1       0.186  13.368  21.418  0.00  0.00    +0.000 A 
ATOM     11  N   UNL     1       1.035  12.400  21.171  0.00  0.00    +0.000 NA
ATOM     12  C   UNL     1       0.261  11.432  20.566  0.00  0.00    +0.000 A 
ATOM     13  N   UNL     1      -1.053  11.712  20.562  0.00  0.00    +0.000 NA
ENDROOT
BRANCH  12  14
ATOM     14  C   UNL     1       0.859  10.246  19.965  0.00  0.00    +0.000 A 
ATOM     15  C   UNL     1       1.131   9.130  20.753  0.00  0.00    +0.000 A 
ATOM     16  C   UNL     1       1.756   8.005  20.209  0.00  0.00    +0.000 A 
ATOM     17  C   UNL     1       2.113   7.938  18.850  0.00  0.00    +0.000 A 
ATOM     18  C   UNL     1       1.842   9.071  18.064  0.00  0.00    +0.000 A 
ATOM     19  C   UNL     1       1.222  10.209  18.608  0.00  0.00    +0.000 A 
BRANCH  17  20
ATOM     20  C   UNL     1       2.745   6.716  18.297  0.00  0.00    +0.000 A 
ATOM     21  C   UNL     1       3.928   6.800  17.536  0.00  0.00    +0.000 A 
ATOM     22  C   UNL     1       4.515   5.672  16.959  0.00  0.00    +0.000 A 
ATOM     23  C   UNL     1       3.944   4.420  17.153  0.00  0.00    +0.000 A 
ATOM     24  C   UNL     1       2.791   4.300  17.922  0.00  0.00    +0.000 A 
ATOM     25  C   UNL     1       2.195   5.436  18.483  0.00  0.00    +0.000 A 
ENDBRANCH  17  20
ENDBRANCH  12  14
BRANCH   8  26
ATOM     26  C   UNL     1      -5.201  12.549  20.521  0.00  0.00    +0.000 C 
BRANCH  26  27
ATOM     27  O   UNL     1      -4.883  12.981  19.196  0.00  0.00    +0.000 OA
BRANCH  27  28
ATOM     28  C   UNL     1      -5.460  12.096  18.232  0.00  0.00    +0.000 C 
BRANCH  28  29
ATOM     29  C   UNL     1      -4.365  11.353  17.518  0.00  0.00    +0.000 A 
ATOM     30  C   UNL     1      -4.269  11.406  16.120  0.00  0.00    +0.000 A 
ATOM     31  C   UNL     1      -3.273  10.691  15.453  0.00  0.00    +0.000 A 
ATOM     32  C   UNL     1      -2.356   9.930  16.175  0.00  0.00    +0.000 A 
ATOM     33  C   UNL     1      -2.424   9.894  17.566  0.00  0.00    +0.000 A 
ATOM     34  C   UNL     1      -3.423  10.604  18.236  0.00  0.00    +0.000 A 
ENDBRANCH  28  29
ENDBRANCH  27  28
ENDBRANCH  26  27
ENDBRANCH   8  26
TORSDOF 6
ENDMDL
MODEL 2
REMARK VINA RESULT:      -8.2      2.870      4.551
REMARK  Name = 
REMARK  6 active torsions:
REMARK  status: ('A' for Active; 'I' for Inactive)
REMARK    1  A    between atoms: C_8  and  C_9
REMARK    2  A    between atoms: C_9  and  O_10
REMARK    3  A    between atoms: O_10  and  C_11
REMARK    4  A    between atoms: C_11  and  C_12
REMARK    5  A    between atoms: C_21  and  C_22
REMARK    6  A    between atoms: C_25  and  C_26
REMARK                            x       y       z     vdW  Elec       q    Type
REMARK                         _______ _______ _______ _____ _____    ______ ____
ROOT
ATOM      1  O   UNL     1      -0.443  13.340  23.397  0.00  0.00    +0.000 OA
ATOM      2  C   UNL     1      -1.011  12.771  22.477  0.00  0.00    +0.000 C 
ATOM      3  N   UNL     1      -1.963  13.297  21.607  0.00  0.00    +0.000 N 
ATOM      4  C   UNL     1      -2.784  12.484  20.700  0.00  0.00    +0.000 C 
ATOM      5  C   UNL     1      -4.253  12.900  20.754  0.00  0.00    +0.000 C 
ATOM      6  C   UNL     1      -4.414  14.385  20.729  0.00  0.00    +0.000 C 
ATOM      7  C   UNL     1      -3.392  15.205  21.018  0.00  0.00    +0.000 C 
ATOM      8  C   UNL     1      -1.993  14.758  21.396  0.00  0.00    +0.000 C 
ATOM      9  N   UNL     1      -0.688  11.436  22.209  0.00  0.00    +0.000 N 
ATOM     10  C   UNL     1      -0.826  10.352  23.027  0.00  0.00    +0.000 A 
ATOM     11  N   UNL     1      -0.347   9.285  22.435  0.00  0.00    +0.000 NA
ATOM     12  C   UNL     1       0.152   9.769  21.243  0.00  0.00    +0.000 A 
ATOM     13  N   UNL     1      -0.130  11.064  21.022  0.00  0.00    +0.000 NA
ENDROOT
BRANCH  12  14
ATOM     14  C   UNL     1       0.940   8.927  20.351  0.00  0.00    +0.000 A 
ATOM     15  C   UNL     1       1.413   7.695  20.796  0.00  0.00    +0.000 A 
ATOM     16  C   UNL     1       2.218   6.899  19.978  0.00  0.00    +0.000 A 
ATOM     17  C   UNL     1       2.564   7.289  18.671  0.00  0.00    +0.000 A 
ATOM     18  C   UNL     1       2.089   8.537  18.232  0.00  0.00    +0.000 A 
ATOM     19  C   UNL     1       1.287   9.346  19.056  0.00  0.00    +0.000 A 
BRANCH  17  20
ATOM     20  C   UNL     1       3.392   6.406  17.816  0.00  0.00    +0.000 A 
ATOM     21  C   UNL     1       3.181   5.013  17.804  0.00  0.00    +0.000 A 
ATOM     22  C   UNL     1       3.981   4.152  17.049  0.00  0.00    +0.000 A 
ATOM     23  C   UNL     1       5.001   4.670  16.261  0.00  0.00    +0.000 A 
ATOM     24  C   UNL     1       5.217   6.044  16.228  0.00  0.00    +0.000 A 
ATOM     25  C   UNL     1       4.426   6.902  17.002  0.00  0.00    +0.000 A 
ENDBRANCH  17  20
ENDBRANCH  12  14
BRANCH   8  26
ATOM     26  C   UNL     1      -0.991  15.140  20.281  0.00  0.00    +0.000 C 
BRANCH  26  27
ATOM     27  O   UNL     1      -0.657  16.529  20.313  0.00  0.00    +0.000 OA
BRANCH  27  28
ATOM     28  C   UNL     1       0.757  16.699  20.438  0.00  0.00    +0.000 C 
BRANCH  28  29
ATOM     29  C   UNL     1       1.347  16.984  19.085  0.00  0.00    +0.000 A 
ATOM     30  C   UNL     1       0.710  17.874  18.208  0.00  0.00    +0.000 A 
ATOM     31  C   UNL     1       1.238  18.116  16.939  0.00  0.00    +0.000 A 
ATOM     32  C   UNL     1       2.414  17.484  16.540  0.00  0.00    +0.000 A 
ATOM     33  C   UNL     1       3.072  16.621  17.414  0.00  0.00    +0.000 A 
ATOM     34  C   UNL     1       2.543  16.373  18.682  0.00  0.00    +0.000 A 
ENDBRANCH  28  29
ENDBRANCH  27  28
ENDBRANCH  26  27
ENDBRANCH   8  26
TORSDOF 6
ENDMDL
MODEL 3
REMARK VINA RESULT:      -8.1      2.577      4.480
REMARK  Name = 
REMARK  6 active torsions:
REMARK  status: ('A' for Active; 'I' for Inactive)
REMARK    1  A    between atoms: C_8  and  C_9
REMARK    2  A    between atoms: C_9  and  O_10
REMARK    3  A    between atoms: O_10  and  C_11
REMARK    4  A    between atoms: C_11  and  C_12
REMARK    5  A    between atoms: C_21  and  C_22
REMARK    6  A    between atoms: C_25  and  C_26
REMARK                            x       y       z     vdW  Elec       q    Type
REMARK                         _______ _______ _______ _____ _____    ______ ____
ROOT
ATOM      1  O   UNL     1      -0.458  13.221  23.412  0.00  0.00    +0.000 OA
ATOM      2  C   UNL     1      -0.976  12.650  22.464  0.00  0.00    +0.000 C 
ATOM      3  N   UNL     1      -1.884  13.174  21.547  0.00  0.00    +0.000 N 
ATOM      4  C   UNL     1      -2.655  12.359  20.598  0.00  0.00    +0.000 C 
ATOM      5  C   UNL     1      -4.126  12.770  20.577  0.00  0.00    +0.000 C 
ATOM      6  C   UNL     1      -4.291  14.254  20.545  0.00  0.00    +0.000 C 
ATOM      7  C   UNL     1      -3.287  15.078  20.885  0.00  0.00    +0.000 C 
ATOM      8  C   UNL     1      -1.908  14.635  21.335  0.00  0.00    +0.000 C 
ATOM      9  N   UNL     1      -0.635  11.316  22.212  0.00  0.00    +0.000 N 
ATOM     10  C   UNL     1      -0.811  10.232  23.022  0.00  0.00    +0.000 A 
ATOM     11  N   UNL     1      -0.299   9.167  22.455  0.00  0.00    +0.000 NA
ATOM     12  C   UNL     1       0.258   9.653  21.290  0.00  0.00    +0.000 A 
ATOM     13  N   UNL     1      -0.017  10.947  21.055  0.00  0.00    +0.000 NA
ENDROOT
BRANCH  12  14
ATOM     14  C   UNL     1       1.093   8.814  20.440  0.00  0.00    +0.000 A 
ATOM     15  C   UNL     1       1.414   9.233  19.151  0.00  0.00    +0.000 A 
ATOM     16  C   UNL     1       2.165   8.419  18.299  0.00  0.00    +0.000 A 
ATOM     17  C   UNL     1       2.648   7.162  18.708  0.00  0.00    +0.000 A 
ATOM     18  C   UNL     1       2.314   6.744  20.008  0.00  0.00    +0.000 A 
ATOM     19  C   UNL     1       1.551   7.555  20.865  0.00  0.00    +0.000 A 
BRANCH  17  20
ATOM     20  C   UNL     1       3.471   6.337  17.792  0.00  0.00    +0.000 A 
ATOM     21  C   UNL     1       4.414   6.938  16.935  0.00  0.00    +0.000 A 
ATOM     22  C   UNL     1       5.164   6.191  16.024  0.00  0.00    +0.000 A 
ATOM     23  C   UNL     1       5.007   4.811  15.967  0.00  0.00    +0.000 A 
ATOM     24  C   UNL     1       4.104   4.184  16.819  0.00  0.00    +0.000 A 
ATOM     25  C   UNL     1       3.340   4.939  17.718  0.00  0.00    +0.000 A 
ENDBRANCH  17  20
ENDBRANCH  12  14
BRANCH   8  26
ATOM     26  C   UNL     1      -0.851  15.021  20.273  0.00  0.00    +0.000 C 
BRANCH  26  27
ATOM     27  O   UNL     1      -0.053  16.131  20.688  0.00  0.00    +0.000 OA
BRANCH  27  28
ATOM     28  C   UNL     1       1.275  15.701  20.996  0.00  0.00    +0.000 C 
BRANCH  28  29
ATOM     29  C   UNL     1       2.089  15.651  19.732  0.00  0.00    +0.000 A 
ATOM     30  C   UNL     1       2.123  16.753  18.867  0.00  0.00    +0.000 A 
ATOM     31  C   UNL     1       2.851  16.697  17.678  0.00  0.00    +0.000 A 
ATOM     32  C   UNL     1       3.563  15.546  17.349  0.00  0.00    +0.000 A 
ATOM     33  C   UNL     1       3.561  14.454  18.215  0.00  0.00    +0.000 A 
ATOM     34  C   UNL     1       2.829  14.507  19.403  0.00  0.00    +0.000 A 
ENDBRANCH  28  29
ENDBRANCH  27  28
ENDBRANCH  26  27
ENDBRANCH   8  26
TORSDOF 6
ENDMDL
MODEL 4
REMARK VINA RESULT:      -7.9      1.236      1.664
REMARK  Name = 
REMARK  6 active torsions:
REMARK  status: ('A' for Active; 'I' for Inactive)
REMARK    1  A    between atoms: C_8  and  C_9
REMARK    2  A    between atoms: C_9  and  O_10
REMARK    3  A    between atoms: O_10  and  C_11
REMARK    4  A    between atoms: C_11  and  C_12
REMARK    5  A    between atoms: C_21  and  C_22
REMARK    6  A    between atoms: C_25  and  C_26
REMARK                            x       y       z     vdW  Elec       q    Type
REMARK                         _______ _______ _______ _____ _____    ______ ____
ROOT
ATOM      1  O   UNL     1      -1.293  14.463  19.005  0.00  0.00    +0.000 OA
ATOM      2  C   UNL     1      -1.006  13.715  19.927  0.00  0.00    +0.000 C 
ATOM      3  N   UNL     1      -1.677  13.559  21.138  0.00  0.00    +0.000 N 
ATOM      4  C   UNL     1      -1.128  12.836  22.293  0.00  0.00    +0.000 C 
ATOM      5  C   UNL     1      -1.318  13.626  23.587  0.00  0.00    +0.000 C 
ATOM      6  C   UNL     1      -2.691  14.206  23.691  0.00  0.00    +0.000 C 
ATOM      7  C   UNL     1      -3.482  14.330  22.614  0.00  0.00    +0.000 C 
ATOM      8  C   UNL     1      -3.107  13.920  21.203  0.00  0.00    +0.000 C 
ATOM      9  N   UNL     1       0.107  12.878  19.795  0.00  0.00    +0.000 N 
ATOM     10  C   UNL     1       1.414  13.231  19.613  0.00  0.00    +0.000 A 
ATOM     11  N   UNL     1       2.148  12.155  19.466  0.00  0.00    +0.000 NA
ATOM     12  C   UNL     1       1.230  11.126  19.499  0.00  0.00    +0.000 A 
ATOM     13  N   UNL     1      -0.019  11.521  19.803  0.00  0.00    +0.000 NA
ENDROOT
BRANCH  12  14
ATOM     14  C   UNL     1       1.614   9.754  19.191  0.00  0.00    +0.000 A 
ATOM     15  C   UNL     1       2.053   9.427  17.910  0.00  0.00    +0.000 A 
ATOM     16  C   UNL     1       2.371   8.108  17.577  0.00  0.00    +0.000 A 
ATOM     17  C   UNL     1       2.288   7.064  18.518  0.00  0.00    +0.000 A 
ATOM     18  C   UNL     1       1.838   7.402  19.806  0.00  0.00    +0.000 A 
ATOM     19  C   UNL     1       1.507   8.725  20.142  0.00  0.00    +0.000 A 
BRANCH  17  20
ATOM     20  C   UNL     1       2.666   5.681  18.142  0.00  0.00    +0.000 A 
ATOM     21  C   UNL     1       3.892   5.420  17.499  0.00  0.00    +0.000 A 
ATOM     22  C   UNL     1       4.249   4.134  17.086  0.00  0.00    +0.000 A 
ATOM     23  C   UNL     1       3.394   3.066  17.333  0.00  0.00    +0.000 A 
ATOM     24  C   UNL     1       2.189   3.287  17.991  0.00  0.00    +0.000 A 
ATOM     25  C   UNL     1       1.825   4.580  18.386  0.00  0.00    +0.000 A 
ENDBRANCH  17  20
ENDBRANCH  12  14
BRANCH   8  26
ATOM     26  C   UNL     1      -3.966  12.715  20.751  0.00  0.00    +0.000 C 
BRANCH  26  27
ATOM     27  O   UNL     1      -4.627  12.963  19.508  0.00  0.00    +0.000 OA
BRANCH  27  28
ATOM     28  C   UNL     1      -5.142  11.744  18.967  0.00  0.00    +0.000 C 
BRANCH  28  29
ATOM     29  C   UNL     1      -4.202  11.229  17.913  0.00  0.00    +0.000 A 
ATOM     30  C   UNL     1      -4.493  11.412  16.553  0.00  0.00    +0.000 A 
ATOM     31  C   UNL     1      -3.639  10.906  15.573  0.00  0.00    +0.000 A 
ATOM     32  C   UNL     1      -2.479  10.227  15.940  0.00  0.00    +0.000 A 
ATOM     33  C   UNL     1      -2.164  10.065  17.287  0.00  0.00    +0.000 A 
ATOM     34  C   UNL     1      -3.020  10.566  18.270  0.00  0.00    +0.000 A 
ENDBRANCH  28  29
ENDBRANCH  27  28
ENDBRANCH  26  27
ENDBRANCH   8  26
TORSDOF 6
ENDMDL
MODEL 5
REMARK VINA RESULT:      -7.9      6.140      9.681
REMARK  Name = 
REMARK  6 active torsions:
REMARK  status: ('A' for Active; 'I' for Inactive)
REMARK    1  A    between atoms: C_8  and  C_9
REMARK    2  A    between atoms: C_9  and  O_10
REMARK    3  A    between atoms: O_10  and  C_11
REMARK    4  A    between atoms: C_11  and  C_12
REMARK    5  A    between atoms: C_21  and  C_22
REMARK    6  A    between atoms: C_25  and  C_26
REMARK                            x       y       z     vdW  Elec       q    Type
REMARK                         _______ _______ _______ _____ _____    ______ ____
ROOT
ATOM      1  O   UNL     1       5.255   2.738  20.036  0.00  0.00    +0.000 OA
ATOM      2  C   UNL     1       4.837   3.597  19.275  0.00  0.00    +0.000 C 
ATOM      3  N   UNL     1       3.510   3.918  18.997  0.00  0.00    +0.000 N 
ATOM      4  C   UNL     1       3.089   4.780  17.884  0.00  0.00    +0.000 C 
ATOM      5  C   UNL     1       1.918   4.168  17.117  0.00  0.00    +0.000 C 
ATOM      6  C   UNL     1       0.874   3.622  18.035  0.00  0.00    +0.000 C 
ATOM      7  C   UNL     1       1.139   3.367  19.326  0.00  0.00    +0.000 C 
ATOM      8  C   UNL     1       2.480   3.584  20.001  0.00  0.00    +0.000 C 
ATOM      9  N   UNL     1       5.759   4.398  18.590  0.00  0.00    +0.000 N 
ATOM     10  C   UNL     1       6.719   4.009  17.701  0.00  0.00    +0.000 A 
ATOM     11  N   UNL     1       7.426   5.049  17.329  0.00  0.00    +0.000 NA
ATOM     12  C   UNL     1       6.904   6.084  18.077  0.00  0.00    +0.000 A 
ATOM     13  N   UNL     1       5.813   5.746  18.785  0.00  0.00    +0.000 NA
ENDROOT
BRANCH  12  14
ATOM     14  C   UNL     1       7.531   7.399  18.097  0.00  0.00    +0.000 A 
ATOM     15  C   UNL     1       8.560   7.664  18.999  0.00  0.00    +0.000 A 
ATOM     16  C   UNL     1       9.136   8.935  19.074  0.00  0.00    +0.000 A 
ATOM     17  C   UNL     1       8.725   9.987  18.235  0.00  0.00    +0.000 A 
ATOM     18  C   UNL     1       7.683   9.713  17.334  0.00  0.00    +0.000 A 
ATOM     19  C   UNL     1       7.093   8.440  17.261  0.00  0.00    +0.000 A 
BRANCH  17  20
ATOM     20  C   UNL     1       9.380  11.315  18.317  0.00  0.00    +0.000 A 
ATOM     21  C   UNL     1       8.792  12.362  19.053  0.00  0.00    +0.000 A 
ATOM     22  C   UNL     1       9.359  13.637  19.103  0.00  0.00    +0.000 A 
ATOM     23  C   UNL     1      10.552  13.890  18.437  0.00  0.00    +0.000 A 
ATOM     24  C   UNL     1      11.173  12.869  17.725  0.00  0.00    +0.000 A 
ATOM     25  C   UNL     1      10.591  11.597  17.660  0.00  0.00    +0.000 A 
ENDBRANCH  17  20
ENDBRANCH  12  14
BRANCH   8  26
ATOM     26  C   UNL     1       2.376   4.729  21.036  0.00  0.00    +0.000 C 
BRANCH  26  27
ATOM     27  O   UNL     1       1.401   5.704  20.662  0.00  0.00    +0.000 OA
BRANCH  27  28
ATOM     28  C   UNL     1       1.781   6.997  21.138  0.00  0.00    +0.000 C 
BRANCH  28  29
ATOM     29  C   UNL     1       1.684   7.992  20.014  0.00  0.00    +0.000 A 
ATOM     30  C   UNL     1       2.338   7.752  18.797  0.00  0.00    +0.000 A 
ATOM     31  C   UNL     1       2.276   8.689  17.764  0.00  0.00    +0.000 A 
ATOM     32  C   UNL     1       1.550   9.866  17.932  0.00  0.00    +0.000 A 
ATOM     33  C   UNL     1       0.871  10.102  19.126  0.00  0.00    +0.000 A 
ATOM     34  C   UNL     1       0.936   9.168  20.162  0.00  0.00    +0.000 A 
ENDBRANCH  28  29
ENDBRANCH  27  28
ENDBRANCH  26  27
ENDBRANCH   8  26
TORSDOF 6
ENDMDL
MODEL 6
REMARK VINA RESULT:      -7.9      1.489      2.327
REMARK  Name = 
REMARK  6 active torsions:
REMARK  status: ('A' for Active; 'I' for Inactive)
REMARK    1  A    between atoms: C_8  and  C_9
REMARK    2  A    between atoms: C_9  and  O_10
REMARK    3  A    between atoms: O_10  and  C_11
REMARK    4  A    between atoms: C_11  and  C_12
REMARK    5  A    between atoms: C_21  and  C_22
REMARK    6  A    between atoms: C_25  and  C_26
REMARK                            x       y       z     vdW  Elec       q    Type
REMARK                         _______ _______ _______ _____ _____    ______ ____
ROOT
ATOM      1  O   UNL     1      -2.515  14.711  20.588  0.00  0.00    +0.000 OA
ATOM      2  C   UNL     1      -2.423  13.681  21.237  0.00  0.00    +0.000 C 
ATOM      3  N   UNL     1      -3.393  13.096  22.049  0.00  0.00    +0.000 N 
ATOM      4  C   UNL     1      -3.122  12.005  22.995  0.00  0.00    +0.000 C 
ATOM      5  C   UNL     1      -3.764  12.273  24.354  0.00  0.00    +0.000 C 
ATOM      6  C   UNL     1      -5.166  12.774  24.221  0.00  0.00    +0.000 C 
ATOM      7  C   UNL     1      -5.622  13.278  23.063  0.00  0.00    +0.000 C 
ATOM      8  C   UNL     1      -4.812  13.408  21.788  0.00  0.00    +0.000 C 
ATOM      9  N   UNL     1      -1.232  12.950  21.176  0.00  0.00    +0.000 N 
ATOM     10  C   UNL     1       0.023  13.346  21.541  0.00  0.00    +0.000 A 
ATOM     11  N   UNL     1       0.885  12.397  21.269  0.00  0.00    +0.000 NA
ATOM     12  C   UNL     1       0.119  11.424  20.660  0.00  0.00    +0.000 A 
ATOM     13  N   UNL     1      -1.200  11.681  20.678  0.00  0.00    +0.000 NA
ENDROOT
BRANCH  12  14
ATOM     14  C   UNL     1       0.728  10.258  20.034  0.00  0.00    +0.000 A 
ATOM     15  C   UNL     1       1.085   9.159  20.812  0.00  0.00    +0.000 A 
ATOM     16  C   UNL     1       1.723   8.054  20.242  0.00  0.00    +0.000 A 
ATOM     17  C   UNL     1       2.009   7.991  18.865  0.00  0.00    +0.000 A 
ATOM     18  C   UNL     1       1.652   9.107  18.089  0.00  0.00    +0.000 A 
ATOM     19  C   UNL     1       1.020  10.224  18.660  0.00  0.00    +0.000 A 
BRANCH  17  20
ATOM     20  C   UNL     1       2.656   6.790  18.285  0.00  0.00    +0.000 A 
ATOM     21  C   UNL     1       2.091   5.512  18.464  0.00  0.00    +0.000 A 
ATOM     22  C   UNL     1       2.708   4.358  17.974  0.00  0.00    +0.000 A 
ATOM     23  C   UNL     1       3.899   4.459  17.266  0.00  0.00    +0.000 A 
ATOM     24  C   UNL     1       4.468   5.709  17.048  0.00  0.00    +0.000 A 
ATOM     25  C   UNL     1       3.857   6.862  17.557  0.00  0.00    +0.000 A 
ENDBRANCH  17  20
ENDBRANCH  12  14
BRANCH   8  26
ATOM     26  C   UNL     1      -5.362  12.447  20.707  0.00  0.00    +0.000 C 
BRANCH  26  27
ATOM     27  O   UNL     1      -6.355  11.562  21.230  0.00  0.00    +0.000 OA
BRANCH  27  28
ATOM     28  C   UNL     1      -7.238  11.134  20.191  0.00  0.00    +0.000 C 
BRANCH  28  29
ATOM     29  C   UNL     1      -7.139  12.084  19.029  0.00  0.00    +0.000 A 
ATOM     30  C   UNL     1      -6.313  11.783  17.937  0.00  0.00    +0.000 A 
ATOM     31  C   UNL     1      -6.195  12.678  16.872  0.00  0.00    +0.000 A 
ATOM     32  C   UNL     1      -6.910  13.873  16.882  0.00  0.00    +0.000 A 
ATOM     33  C   UNL     1      -7.757  14.169  17.948  0.00  0.00    +0.000 A 
ATOM     34  C   UNL     1      -7.873  13.277  19.017  0.00  0.00    +0.000 A 
ENDBRANCH  28  29
ENDBRANCH  27  28
ENDBRANCH  26  27
ENDBRANCH   8  26
TORSDOF 6
ENDMDL
MODEL 7
REMARK VINA RESULT:      -7.9      5.085     10.930
REMARK  Name = 
REMARK  6 active torsions:
REMARK  status: ('A' for Active; 'I' for Inactive)
REMARK    1  A    between atoms: C_8  and  C_9
REMARK    2  A    between atoms: C_9  and  O_10
REMARK    3  A    between atoms: O_10  and  C_11
REMARK    4  A    between atoms: C_11  and  C_12
REMARK    5  A    between atoms: C_21  and  C_22
REMARK    6  A    between atoms: C_25  and  C_26
REMARK                            x       y       z     vdW  Elec       q    Type
REMARK                         _______ _______ _______ _____ _____    ______ ____
ROOT
ATOM      1  O   UNL     1       3.333   3.552  17.509  0.00  0.00    +0.000 OA
ATOM      2  C   UNL     1       3.893   4.403  18.183  0.00  0.00    +0.000 C 
ATOM      3  N   UNL     1       5.216   4.831  18.088  0.00  0.00    +0.000 N 
ATOM      4  C   UNL     1       5.883   5.665  19.096  0.00  0.00    +0.000 C 
ATOM      5  C   UNL     1       7.270   5.125  19.437  0.00  0.00    +0.000 C 
ATOM      6  C   UNL     1       8.033   4.731  18.214  0.00  0.00    +0.000 C 
ATOM      7  C   UNL     1       7.416   4.524  17.040  0.00  0.00    +0.000 C 
ATOM      8  C   UNL     1       5.923   4.652  16.804  0.00  0.00    +0.000 C 
ATOM      9  N   UNL     1       3.160   5.074  19.168  0.00  0.00    +0.000 N 
ATOM     10  C   UNL     1       2.538   4.548  20.264  0.00  0.00    +0.000 A 
ATOM     11  N   UNL     1       1.899   5.494  20.908  0.00  0.00    +0.000 NA
ATOM     12  C   UNL     1       2.098   6.613  20.126  0.00  0.00    +0.000 A 
ATOM     13  N   UNL     1       2.951   6.419  19.107  0.00  0.00    +0.000 NA
ENDROOT
BRANCH  12  14
ATOM     14  C   UNL     1       1.397   7.863  20.396  0.00  0.00    +0.000 A 
ATOM     15  C   UNL     1       0.680   8.016  21.580  0.00  0.00    +0.000 A 
ATOM     16  C   UNL     1      -0.046   9.183  21.832  0.00  0.00    +0.000 A 
ATOM     17  C   UNL     1      -0.065  10.256  20.922  0.00  0.00    +0.000 A 
ATOM     18  C   UNL     1       0.655  10.091  19.727  0.00  0.00    +0.000 A 
ATOM     19  C   UNL     1       1.379   8.915  19.465  0.00  0.00    +0.000 A 
BRANCH  17  20
ATOM     20  C   UNL     1      -0.818  11.494  21.235  0.00  0.00    +0.000 A 
ATOM     21  C   UNL     1      -1.270  12.340  20.203  0.00  0.00    +0.000 A 
ATOM     22  C   UNL     1      -1.934  13.539  20.470  0.00  0.00    +0.000 A 
ATOM     23  C   UNL     1      -2.189  13.910  21.785  0.00  0.00    +0.000 A 
ATOM     24  C   UNL     1      -1.780  13.083  22.826  0.00  0.00    +0.000 A 
ATOM     25  C   UNL     1      -1.097  11.891  22.555  0.00  0.00    +0.000 A 
ENDBRANCH  17  20
ENDBRANCH  12  14
BRANCH   8  26
ATOM     26  C   UNL     1       5.630   5.857  15.879  0.00  0.00    +0.000 C 
BRANCH  26  27
ATOM     27  O   UNL     1       5.426   5.456  14.523  0.00  0.00    +0.000 OA
BRANCH  27  28
ATOM     28  C   UNL     1       6.609   4.848  14.000  0.00  0.00    +0.000 C 
BRANCH  28  29
ATOM     29  C   UNL     1       6.230   3.846  12.945  0.00  0.00    +0.000 A 
ATOM     30  C   UNL     1       7.218   3.077  12.311  0.00  0.00    +0.000 A 
ATOM     31  C   UNL     1       6.873   2.170  11.309  0.00  0.00    +0.000 A 
ATOM     32  C   UNL     1       5.539   2.010  10.940  0.00  0.00    +0.000 A 
ATOM     33  C   UNL     1       4.546   2.747  11.583  0.00  0.00    +0.000 A 
ATOM     34  C   UNL     1       4.889   3.659  12.583  0.00  0.00    +0.000 A 
ENDBRANCH  28  29
ENDBRANCH  27  28
ENDBRANCH  26  27
ENDBRANCH   8  26
TORSDOF 6
ENDMDL
MODEL 8
REMARK VINA RESULT:      -7.9      1.278      1.904
REMARK  Name = 
REMARK  6 active torsions:
REMARK  status: ('A' for Active; 'I' for Inactive)
REMARK    1  A    between atoms: C_8  and  C_9
REMARK    2  A    between atoms: C_9  and  O_10
REMARK    3  A    between atoms: O_10  and  C_11
REMARK    4  A    between atoms: C_11  and  C_12
REMARK    5  A    between atoms: C_21  and  C_22
REMARK    6  A    between atoms: C_25  and  C_26
REMARK                            x       y       z     vdW  Elec       q    Type
REMARK                         _______ _______ _______ _____ _____    ______ ____
ROOT
ATOM      1  O   UNL     1      -1.317  14.301  19.097  0.00  0.00    +0.000 OA
ATOM      2  C   UNL     1      -1.057  13.567  20.037  0.00  0.00    +0.000 C 
ATOM      3  N   UNL     1      -1.732  13.464  21.251  0.00  0.00    +0.000 N 
ATOM      4  C   UNL     1      -1.209  12.751  22.424  0.00  0.00    +0.000 C 
ATOM      5  C   UNL     1      -1.372  13.578  23.698  0.00  0.00    +0.000 C 
ATOM      6  C   UNL     1      -2.724  14.207  23.786  0.00  0.00    +0.000 C 
ATOM      7  C   UNL     1      -3.511  14.332  22.706  0.00  0.00    +0.000 C 
ATOM      8  C   UNL     1      -3.149  13.875  21.305  0.00  0.00    +0.000 C 
ATOM      9  N   UNL     1       0.028  12.689  19.927  0.00  0.00    +0.000 N 
ATOM     10  C   UNL     1       1.345  12.992  19.738  0.00  0.00    +0.000 A 
ATOM     11  N   UNL     1       2.042  11.888  19.619  0.00  0.00    +0.000 NA
ATOM     12  C   UNL     1       1.089  10.892  19.676  0.00  0.00    +0.000 A 
ATOM     13  N   UNL     1      -0.145  11.337  19.968  0.00  0.00    +0.000 NA
ENDROOT
BRANCH  12  14
ATOM     14  C   UNL     1       1.426   9.501  19.402  0.00  0.00    +0.000 A 
ATOM     15  C   UNL     1       1.415   8.567  20.435  0.00  0.00    +0.000 A 
ATOM     16  C   UNL     1       1.791   7.241  20.205  0.00  0.00    +0.000 A 
ATOM     17  C   UNL     1       2.169   6.787  18.928  0.00  0.00    +0.000 A 
ATOM     18  C   UNL     1       2.184   7.737  17.893  0.00  0.00    +0.000 A 
ATOM     19  C   UNL     1       1.817   9.074  18.121  0.00  0.00    +0.000 A 
BRANCH  17  20
ATOM     20  C   UNL     1       2.530   5.365  18.711  0.00  0.00    +0.000 A 
ATOM     21  C   UNL     1       1.952   4.349  19.497  0.00  0.00    +0.000 A 
ATOM     22  C   UNL     1       2.313   3.008  19.350  0.00  0.00    +0.000 A 
ATOM     23  C   UNL     1       3.247   2.645  18.388  0.00  0.00    +0.000 A 
ATOM     24  C   UNL     1       3.815   3.621  17.576  0.00  0.00    +0.000 A 
ATOM     25  C   UNL     1       3.465   4.968  17.740  0.00  0.00    +0.000 A 
ENDBRANCH  17  20
ENDBRANCH  12  14
BRANCH   8  26
ATOM     26  C   UNL     1      -4.049  12.690  20.882  0.00  0.00    +0.000 C 
BRANCH  26  27
ATOM     27  O   UNL     1      -4.493  12.809  19.529  0.00  0.00    +0.000 OA
BRANCH  27  28
ATOM     28  C   UNL     1      -4.968  11.549  19.048  0.00  0.00    +0.000 C 
BRANCH  28  29
ATOM     29  C   UNL     1      -4.093  11.085  17.916  0.00  0.00    +0.000 A 
ATOM     30  C   UNL     1      -2.942  10.327  18.175  0.00  0.00    +0.000 A 
ATOM     31  C   UNL     1      -2.111   9.923  17.129  0.00  0.00    +0.000 A 
ATOM     32  C   UNL     1      -2.429  10.260  15.815  0.00  0.00    +0.000 A 
ATOM     33  C   UNL     1      -3.586  10.987  15.543  0.00  0.00    +0.000 A 
ATOM     34  C   UNL     1      -4.416  11.397  16.589  0.00  0.00    +0.000 A 
ENDBRANCH  28  29
ENDBRANCH  27  28
ENDBRANCH  26  27
ENDBRANCH   8  26
TORSDOF 6
ENDMDL
MODEL 9
REMARK VINA RESULT:      -7.9      6.155      9.680
REMARK  Name = 
REMARK  6 active torsions:
REMARK  status: ('A' for Active; 'I' for Inactive)
REMARK    1  A    between atoms: C_8  and  C_9
REMARK    2  A    between atoms: C_9  and  O_10
REMARK    3  A    between atoms: O_10  and  C_11
REMARK    4  A    between atoms: C_11  and  C_12
REMARK    5  A    between atoms: C_21  and  C_22
REMARK    6  A    between atoms: C_25  and  C_26
REMARK                            x       y       z     vdW  Elec       q    Type
REMARK                         _______ _______ _______ _____ _____    ______ ____
ROOT
ATOM      1  O   UNL     1       5.218   2.693  20.011  0.00  0.00    +0.000 OA
ATOM      2  C   UNL     1       4.796   3.571  19.274  0.00  0.00    +0.000 C 
ATOM      3  N   UNL     1       3.467   3.912  19.030  0.00  0.00    +0.000 N 
ATOM      4  C   UNL     1       3.034   4.800  17.942  0.00  0.00    +0.000 C 
ATOM      5  C   UNL     1       1.840   4.216  17.189  0.00  0.00    +0.000 C 
ATOM      6  C   UNL     1       0.808   3.665  18.118  0.00  0.00    +0.000 C 
ATOM      7  C   UNL     1       1.097   3.384  19.398  0.00  0.00    +0.000 C 
ATOM      8  C   UNL     1       2.455   3.573  20.049  0.00  0.00    +0.000 C 
ATOM      9  N   UNL     1       5.713   4.373  18.585  0.00  0.00    +0.000 N 
ATOM     10  C   UNL     1       6.649   3.990  17.668  0.00  0.00    +0.000 A 
ATOM     11  N   UNL     1       7.361   5.027  17.301  0.00  0.00    +0.000 NA
ATOM     12  C   UNL     1       6.868   6.054  18.079  0.00  0.00    +0.000 A 
ATOM     13  N   UNL     1       5.787   5.716  18.803  0.00  0.00    +0.000 NA
ENDROOT
BRANCH  12  14
ATOM     14  C   UNL     1       7.512   7.361  18.110  0.00  0.00    +0.000 A 
ATOM     15  C   UNL     1       8.522   7.616  19.035  0.00  0.00    +0.000 A 
ATOM     16  C   UNL     1       9.112   8.880  19.120  0.00  0.00    +0.000 A 
ATOM     17  C   UNL     1       8.736   9.934  18.268  0.00  0.00    +0.000 A 
ATOM     18  C   UNL     1       7.712   9.671  17.342  0.00  0.00    +0.000 A 
ATOM     19  C   UNL     1       7.108   8.404  17.260  0.00  0.00    +0.000 A 
BRANCH  17  20
ATOM     20  C   UNL     1       9.406  11.253  18.361  0.00  0.00    +0.000 A 
ATOM     21  C   UNL     1       8.830  12.396  17.770  0.00  0.00    +0.000 A 
ATOM     22  C   UNL     1       9.465  13.639  17.797  0.00  0.00    +0.000 A 
ATOM     23  C   UNL     1      10.687  13.777  18.444  0.00  0.00    +0.000 A 
ATOM     24  C   UNL     1      11.269  12.675  19.061  0.00  0.00    +0.000 A 
ATOM     25  C   UNL     1      10.639  11.425  19.015  0.00  0.00    +0.000 A 
ENDBRANCH  17  20
ENDBRANCH  12  14
BRANCH   8  26
ATOM     26  C   UNL     1       2.386   4.700  21.107  0.00  0.00    +0.000 C 
BRANCH  26  27
ATOM     27  O   UNL     1       1.495   5.747  20.719  0.00  0.00    +0.000 OA
BRANCH  27  28
ATOM     28  C   UNL     1       2.231   6.910  20.333  0.00  0.00    +0.000 C 
BRANCH  28  29
ATOM     29  C   UNL     1       1.403   8.137  20.600  0.00  0.00    +0.000 A 
ATOM     30  C   UNL     1       1.156   9.061  19.574  0.00  0.00    +0.000 A 
ATOM     31  C   UNL     1       0.415  10.216  19.826  0.00  0.00    +0.000 A 
ATOM     32  C   UNL     1      -0.098  10.452  21.100  0.00  0.00    +0.000 A 
ATOM     33  C   UNL     1       0.116   9.527  22.120  0.00  0.00    +0.000 A 
ATOM     34  C   UNL     1       0.862   8.373  21.871  0.00  0.00    +0.000 A 
ENDBRANCH  28  29
ENDBRANCH  27  28
ENDBRANCH  26  27
ENDBRANCH   8  26
TORSDOF 6
ENDMDL
