MODEL 1
REMARK VINA RESULT:      -7.1      0.000      0.000
REMARK  Name = 
REMARK  8 active torsions:
REMARK  status: ('A' for Active; 'I' for Inactive)
REMARK    1  A    between atoms: C_1  and  O_2
REMARK    2  A    between atoms: O_2  and  C_3
REMARK    3  A    between atoms: C_8  and  C_9
REMARK    4  A    between atoms: N_11  and  C_12
REMARK    5  A    between atoms: C_12  and  C_13
REMARK    6  A    between atoms: C_13  and  N_14
REMARK    7  A    between atoms: C_24  and  O_25
REMARK    8  A    between atoms: O_25  and  C_26
REMARK                            x       y       z     vdW  Elec       q    Type
REMARK                         _______ _______ _______ _____ _____    ______ ____
ROOT
ATOM      1  C   UNL     1       0.064   9.889  18.734  0.00  0.00    +0.000 C 
ATOM      2  O   UNL     1       1.000   9.824  17.940  0.00  0.00    +0.000 OA
ATOM      3  N   UNL     1       0.176   9.430  20.023  0.00  0.00    +0.000 N 
ATOM      4  H   UNL     1      -0.614   9.550  20.648  0.00  0.00    +0.000 HD
ENDROOT
BRANCH   1  10
ATOM      5  C   UNL     1      -3.286  11.794  18.576  0.00  0.00    +0.000 A 
ATOM      6  C   UNL     1      -3.668  11.431  17.276  0.00  0.00    +0.000 A 
ATOM      7  C   UNL     1      -2.865  10.596  16.506  0.00  0.00    +0.000 A 
ATOM      8 BR   UNL     1      -3.404  10.125  14.757  0.00  0.00    +0.000 Br
ATOM      9  C   UNL     1      -1.669  10.116  17.014  0.00  0.00    +0.000 A 
ATOM     10  C   UNL     1      -1.252  10.474  18.308  0.00  0.00    +0.000 A 
ATOM     11  C   UNL     1      -2.059  11.327  19.105  0.00  0.00    +0.000 A 
BRANCH   5  13
ATOM     12  C   UNL     1      -5.228  12.107  19.930  0.00  0.00    +0.000 C 
ATOM     13  O   UNL     1      -4.052  12.642  19.333  0.00  0.00    +0.000 OA
ENDBRANCH   5  13
BRANCH  11  14
ATOM     14  O   UNL     1      -1.556  11.621  20.348  0.00  0.00    +0.000 OA
ATOM     15  C   UNL     1      -0.925  12.866  20.611  0.00  0.00    +0.000 C 
ENDBRANCH  11  14
ENDBRANCH   1  10
BRANCH   3  16
ATOM     16  C   UNL     1       1.387   8.832  20.533  0.00  0.00    +0.000 C 
BRANCH  16  17
ATOM     17  C   UNL     1       1.137   7.462  21.193  0.00  0.00    +0.000 C 
BRANCH  17  18
ATOM     18  N   UNL     1       1.992   6.386  20.659  0.00  0.00    +0.000 NA
ATOM     19  C   UNL     1       2.617   6.773  19.376  0.00  0.00    +0.000 C 
ATOM     20  C   UNL     1       2.093   6.054  18.119  0.00  0.00    +0.000 C 
ATOM     21  C   UNL     1       2.151   4.568  18.343  0.00  0.00    +0.000 A 
ATOM     22  C   UNL     1       2.524   3.660  17.351  0.00  0.00    +0.000 A 
ATOM     23  C   UNL     1       2.562   2.294  17.643  0.00  0.00    +0.000 A 
ATOM     24  C   UNL     1       2.220   1.835  18.917  0.00  0.00    +0.000 A 
ATOM     25  C   UNL     1       1.825   2.740  19.902  0.00  0.00    +0.000 A 
ATOM     26  C   UNL     1       1.790   4.108  19.619  0.00  0.00    +0.000 A 
ATOM     27  C   UNL     1       1.254   5.108  20.607  0.00  0.00    +0.000 C 
ENDBRANCH  17  18
ENDBRANCH  16  17
ENDBRANCH   3  16
TORSDOF 6
ENDMDL
MODEL 2
REMARK VINA RESULT:      -7.0      3.368      8.606
REMARK  Name = 
REMARK  8 active torsions:
REMARK  status: ('A' for Active; 'I' for Inactive)
REMARK    1  A    between atoms: C_1  and  O_2
REMARK    2  A    between atoms: O_2  and  C_3
REMARK    3  A    between atoms: C_8  and  C_9
REMARK    4  A    between atoms: N_11  and  C_12
REMARK    5  A    between atoms: C_12  and  C_13
REMARK    6  A    between atoms: C_13  and  N_14
REMARK    7  A    between atoms: C_24  and  O_25
REMARK    8  A    between atoms: O_25  and  C_26
REMARK                            x       y       z     vdW  Elec       q    Type
REMARK                         _______ _______ _______ _____ _____    ______ ____
ROOT
ATOM      1  C   UNL     1       2.530   7.268  18.670  0.00  0.00    +0.000 C 
ATOM      2  O   UNL     1       2.298   7.424  19.867  0.00  0.00    +0.000 OA
ATOM      3  N   UNL     1       2.372   8.287  17.764  0.00  0.00    +0.000 N 
ATOM      4  H   UNL     1       2.623   8.114  16.795  0.00  0.00    +0.000 HD
ENDROOT
BRANCH   1  10
ATOM      5  C   UNL     1       4.436   4.416  16.908  0.00  0.00    +0.000 A 
ATOM      6  C   UNL     1       3.640   3.342  17.334  0.00  0.00    +0.000 A 
ATOM      7  C   UNL     1       2.533   3.557  18.148  0.00  0.00    +0.000 A 
ATOM      8 BR   UNL     1       1.481   2.092  18.709  0.00  0.00    +0.000 Br
ATOM      9  C   UNL     1       2.205   4.840  18.555  0.00  0.00    +0.000 A 
ATOM     10  C   UNL     1       2.993   5.935  18.156  0.00  0.00    +0.000 A 
ATOM     11  C   UNL     1       4.127   5.731  17.328  0.00  0.00    +0.000 A 
BRANCH   5  13
ATOM     12  C   UNL     1       5.409   4.393  14.727  0.00  0.00    +0.000 C 
ATOM     13  O   UNL     1       5.548   4.214  16.132  0.00  0.00    +0.000 OA
ENDBRANCH   5  13
BRANCH  11  14
ATOM     14  O   UNL     1       4.830   6.865  17.004  0.00  0.00    +0.000 OA
ATOM     15  C   UNL     1       6.143   7.084  17.500  0.00  0.00    +0.000 C 
ENDBRANCH  11  14
ENDBRANCH   1  10
BRANCH   3  16
ATOM     16  C   UNL     1       1.915   9.602  18.144  0.00  0.00    +0.000 C 
BRANCH  16  17
ATOM     17  C   UNL     1       0.488   9.900  17.644  0.00  0.00    +0.000 C 
BRANCH  17  18
ATOM     18  N   UNL     1      -0.510   9.981  18.726  0.00  0.00    +0.000 NA
ATOM     19  C   UNL     1      -1.645  10.855  18.357  0.00  0.00    +0.000 C 
ATOM     20  C   UNL     1      -1.733  12.203  19.094  0.00  0.00    +0.000 C 
ATOM     21  C   UNL     1      -1.678  11.956  20.578  0.00  0.00    +0.000 A 
ATOM     22  C   UNL     1      -2.451  12.664  21.499  0.00  0.00    +0.000 A 
ATOM     23  C   UNL     1      -2.348  12.367  22.860  0.00  0.00    +0.000 A 
ATOM     24  C   UNL     1      -1.470  11.375  23.301  0.00  0.00    +0.000 A 
ATOM     25  C   UNL     1      -0.681  10.683  22.383  0.00  0.00    +0.000 A 
ATOM     26  C   UNL     1      -0.783  10.970  21.020  0.00  0.00    +0.000 A 
ATOM     27  C   UNL     1       0.133  10.339  20.006  0.00  0.00    +0.000 C 
ENDBRANCH  17  18
ENDBRANCH  16  17
ENDBRANCH   3  16
TORSDOF 6
ENDMDL
MODEL 3
REMARK VINA RESULT:      -7.0      2.174      2.999
REMARK  Name = 
REMARK  8 active torsions:
REMARK  status: ('A' for Active; 'I' for Inactive)
REMARK    1  A    between atoms: C_1  and  O_2
REMARK    2  A    between atoms: O_2  and  C_3
REMARK    3  A    between atoms: C_8  and  C_9
REMARK    4  A    between atoms: N_11  and  C_12
REMARK    5  A    between atoms: C_12  and  C_13
REMARK    6  A    between atoms: C_13  and  N_14
REMARK    7  A    between atoms: C_24  and  O_25
REMARK    8  A    between atoms: O_25  and  C_26
REMARK                            x       y       z     vdW  Elec       q    Type
REMARK                         _______ _______ _______ _____ _____    ______ ____
ROOT
ATOM      1  C   UNL     1       1.036   9.311  18.481  0.00  0.00    +0.000 C 
ATOM      2  O   UNL     1       1.781   9.315  17.503  0.00  0.00    +0.000 OA
ATOM      3  N   UNL     1       1.295   8.537  19.584  0.00  0.00    +0.000 N 
ATOM      4  H   UNL     1       0.670   8.607  20.380  0.00  0.00    +0.000 HD
ENDROOT
BRANCH   1  10
ATOM      5  C   UNL     1      -1.759  11.807  19.393  0.00  0.00    +0.000 A 
ATOM      6  C   UNL     1      -2.582  11.614  18.272  0.00  0.00    +0.000 A 
ATOM      7  C   UNL     1      -2.230  10.703  17.282  0.00  0.00    +0.000 A 
ATOM      8 BR   UNL     1      -3.355  10.467  15.782  0.00  0.00    +0.000 Br
ATOM      9  C   UNL     1      -1.057   9.976  17.387  0.00  0.00    +0.000 A 
ATOM     10  C   UNL     1      -0.205  10.157  18.491  0.00  0.00    +0.000 A 
ATOM     11  C   UNL     1      -0.548  11.085  19.509  0.00  0.00    +0.000 A 
BRANCH   5  13
ATOM     12  C   UNL     1      -3.445  13.097  20.487  0.00  0.00    +0.000 C 
ATOM     13  O   UNL     1      -2.078  12.725  20.361  0.00  0.00    +0.000 OA
ENDBRANCH   5  13
BRANCH  11  14
ATOM     14  O   UNL     1       0.356  11.191  20.538  0.00  0.00    +0.000 OA
ATOM     15  C   UNL     1       1.252  12.289  20.619  0.00  0.00    +0.000 C 
ENDBRANCH  11  14
ENDBRANCH   1  10
BRANCH   3  16
ATOM     16  C   UNL     1       2.448   7.672  19.674  0.00  0.00    +0.000 C 
BRANCH  16  17
ATOM     17  C   UNL     1       2.100   6.195  19.404  0.00  0.00    +0.000 C 
BRANCH  17  18
ATOM     18  N   UNL     1       2.528   5.723  18.074  0.00  0.00    +0.000 NA
ATOM     19  C   UNL     1       2.480   4.248  17.978  0.00  0.00    +0.000 C 
ATOM     20  C   UNL     1       3.839   3.525  17.923  0.00  0.00    +0.000 C 
ATOM     21  C   UNL     1       4.672   4.130  16.826  0.00  0.00    +0.000 A 
ATOM     22  C   UNL     1       5.490   3.375  15.983  0.00  0.00    +0.000 A 
ATOM     23  C   UNL     1       6.226   4.013  14.982  0.00  0.00    +0.000 A 
ATOM     24  C   UNL     1       6.153   5.399  14.827  0.00  0.00    +0.000 A 
ATOM     25  C   UNL     1       5.354   6.156  15.683  0.00  0.00    +0.000 A 
ATOM     26  C   UNL     1       4.611   5.524  16.683  0.00  0.00    +0.000 A 
ATOM     27  C   UNL     1       3.833   6.308  17.706  0.00  0.00    +0.000 C 
ENDBRANCH  17  18
ENDBRANCH  16  17
ENDBRANCH   3  16
TORSDOF 6
ENDMDL
MODEL 4
REMARK VINA RESULT:      -7.0      3.460      3.945
REMARK  Name = 
REMARK  8 active torsions:
REMARK  status: ('A' for Active; 'I' for Inactive)
REMARK    1  A    between atoms: C_1  and  O_2
REMARK    2  A    between atoms: O_2  and  C_3
REMARK    3  A    between atoms: C_8  and  C_9
REMARK    4  A    between atoms: N_11  and  C_12
REMARK    5  A    between atoms: C_12  and  C_13
REMARK    6  A    between atoms: C_13  and  N_14
REMARK    7  A    between atoms: C_24  and  O_25
REMARK    8  A    between atoms: O_25  and  C_26
REMARK                            x       y       z     vdW  Elec       q    Type
REMARK                         _______ _______ _______ _____ _____    ______ ____
ROOT
ATOM      1  C   UNL     1      -0.123  10.185  22.779  0.00  0.00    +0.000 C 
ATOM      2  O   UNL     1       0.361   9.788  23.836  0.00  0.00    +0.000 OA
ATOM      3  N   UNL     1      -0.001   9.471  21.614  0.00  0.00    +0.000 N 
ATOM      4  H   UNL     1      -0.459   9.825  20.780  0.00  0.00    +0.000 HD
ENDROOT
BRANCH   1  10
ATOM      5  C   UNL     1      -1.198  13.835  22.145  0.00  0.00    +0.000 A 
ATOM      6  C   UNL     1      -2.449  13.795  22.778  0.00  0.00    +0.000 A 
ATOM      7  C   UNL     1      -2.900  12.628  23.387  0.00  0.00    +0.000 A 
ATOM      8 BR   UNL     1      -4.590  12.601  24.230  0.00  0.00    +0.000 Br
ATOM      9  C   UNL     1      -2.118  11.485  23.369  0.00  0.00    +0.000 A 
ATOM     10  C   UNL     1      -0.866  11.490  22.729  0.00  0.00    +0.000 A 
ATOM     11  C   UNL     1      -0.393  12.672  22.102  0.00  0.00    +0.000 A 
BRANCH   5  13
ATOM     12  C   UNL     1      -1.610  15.553  20.538  0.00  0.00    +0.000 C 
ATOM     13  O   UNL     1      -0.755  14.969  21.514  0.00  0.00    +0.000 OA
ENDBRANCH   5  13
BRANCH  11  14
ATOM     14  O   UNL     1       0.837  12.567  21.500  0.00  0.00    +0.000 OA
ATOM     15  C   UNL     1       0.962  12.512  20.086  0.00  0.00    +0.000 C 
ENDBRANCH  11  14
ENDBRANCH   1  10
BRANCH   3  16
ATOM     16  C   UNL     1       0.709   8.215  21.543  0.00  0.00    +0.000 C 
BRANCH  16  17
ATOM     17  C   UNL     1       1.698   8.161  20.362  0.00  0.00    +0.000 C 
BRANCH  17  18
ATOM     18  N   UNL     1       2.305   6.832  20.164  0.00  0.00    +0.000 NA
ATOM     19  C   UNL     1       2.981   6.732  18.852  0.00  0.00    +0.000 C 
ATOM     20  C   UNL     1       2.304   5.829  17.805  0.00  0.00    +0.000 C 
ATOM     21  C   UNL     1       2.057   4.474  18.411  0.00  0.00    +0.000 A 
ATOM     22  C   UNL     1       2.223   3.280  17.707  0.00  0.00    +0.000 A 
ATOM     23  C   UNL     1       1.981   2.062  18.346  0.00  0.00    +0.000 A 
ATOM     24  C   UNL     1       1.567   2.035  19.679  0.00  0.00    +0.000 A 
ATOM     25  C   UNL     1       1.379   3.227  20.376  0.00  0.00    +0.000 A 
ATOM     26  C   UNL     1       1.625   4.450  19.746  0.00  0.00    +0.000 A 
ATOM     27  C   UNL     1       1.319   5.763  20.415  0.00  0.00    +0.000 C 
ENDBRANCH  17  18
ENDBRANCH  16  17
ENDBRANCH   3  16
TORSDOF 6
ENDMDL
MODEL 5
REMARK VINA RESULT:      -6.9      3.375      8.771
REMARK  Name = 
REMARK  8 active torsions:
REMARK  status: ('A' for Active; 'I' for Inactive)
REMARK    1  A    between atoms: C_1  and  O_2
REMARK    2  A    between atoms: O_2  and  C_3
REMARK    3  A    between atoms: C_8  and  C_9
REMARK    4  A    between atoms: N_11  and  C_12
REMARK    5  A    between atoms: C_12  and  C_13
REMARK    6  A    between atoms: C_13  and  N_14
REMARK    7  A    between atoms: C_24  and  O_25
REMARK    8  A    between atoms: O_25  and  C_26
REMARK                            x       y       z     vdW  Elec       q    Type
REMARK                         _______ _______ _______ _____ _____    ______ ____
ROOT
ATOM      1  C   UNL     1       2.553   7.451  18.536  0.00  0.00    +0.000 C 
ATOM      2  O   UNL     1       2.346   7.660  19.729  0.00  0.00    +0.000 OA
ATOM      3  N   UNL     1       2.426   8.442  17.595  0.00  0.00    +0.000 N 
ATOM      4  H   UNL     1       2.654   8.223  16.630  0.00  0.00    +0.000 HD
ENDROOT
BRANCH   1  10
ATOM      5  C   UNL     1       4.326   4.450  16.884  0.00  0.00    +0.000 A 
ATOM      6  C   UNL     1       3.463   3.434  17.321  0.00  0.00    +0.000 A 
ATOM      7  C   UNL     1       2.355   3.733  18.108  0.00  0.00    +0.000 A 
ATOM      8 BR   UNL     1       1.212   2.344  18.685  0.00  0.00    +0.000 Br
ATOM      9  C   UNL     1       2.093   5.042  18.476  0.00  0.00    +0.000 A 
ATOM     10  C   UNL     1       2.948   6.081  18.065  0.00  0.00    +0.000 A 
ATOM     11  C   UNL     1       4.084   5.791  17.264  0.00  0.00    +0.000 A 
BRANCH   5  13
ATOM     12  C   UNL     1       5.359   4.386  14.732  0.00  0.00    +0.000 C 
ATOM     13  O   UNL     1       5.439   4.166  16.135  0.00  0.00    +0.000 OA
ENDBRANCH   5  13
BRANCH  11  14
ATOM     14  O   UNL     1       4.856   6.875  16.926  0.00  0.00    +0.000 OA
ATOM     15  C   UNL     1       6.188   7.007  17.401  0.00  0.00    +0.000 C 
ENDBRANCH  11  14
ENDBRANCH   1  10
BRANCH   3  16
ATOM     16  C   UNL     1       2.033   9.789  17.932  0.00  0.00    +0.000 C 
BRANCH  16  17
ATOM     17  C   UNL     1       0.506   9.941  18.076  0.00  0.00    +0.000 C 
BRANCH  17  18
ATOM     18  N   UNL     1       0.105  11.077  18.927  0.00  0.00    +0.000 NA
ATOM     19  C   UNL     1       0.920  11.150  20.159  0.00  0.00    +0.000 C 
ATOM     20  C   UNL     1       0.202  10.790  21.472  0.00  0.00    +0.000 C 
ATOM     21  C   UNL     1      -1.055  11.608  21.585  0.00  0.00    +0.000 A 
ATOM     22  C   UNL     1      -1.504  12.157  22.787  0.00  0.00    +0.000 A 
ATOM     23  C   UNL     1      -2.678  12.914  22.805  0.00  0.00    +0.000 A 
ATOM     24  C   UNL     1      -3.407  13.114  21.631  0.00  0.00    +0.000 A 
ATOM     25  C   UNL     1      -2.971  12.546  20.434  0.00  0.00    +0.000 A 
ATOM     26  C   UNL     1      -1.795  11.794  20.407  0.00  0.00    +0.000 A 
ATOM     27  C   UNL     1      -1.351  11.060  19.169  0.00  0.00    +0.000 C 
ENDBRANCH  17  18
ENDBRANCH  16  17
ENDBRANCH   3  16
TORSDOF 6
ENDMDL
MODEL 6
REMARK VINA RESULT:      -6.8      3.419      8.653
REMARK  Name = 
REMARK  8 active torsions:
REMARK  status: ('A' for Active; 'I' for Inactive)
REMARK    1  A    between atoms: C_1  and  O_2
REMARK    2  A    between atoms: O_2  and  C_3
REMARK    3  A    between atoms: C_8  and  C_9
REMARK    4  A    between atoms: N_11  and  C_12
REMARK    5  A    between atoms: C_12  and  C_13
REMARK    6  A    between atoms: C_13  and  N_14
REMARK    7  A    between atoms: C_24  and  O_25
REMARK    8  A    between atoms: O_25  and  C_26
REMARK                            x       y       z     vdW  Elec       q    Type
REMARK                         _______ _______ _______ _____ _____    ______ ____
ROOT
ATOM      1  C   UNL     1       2.562   7.298  18.661  0.00  0.00    +0.000 C 
ATOM      2  O   UNL     1       2.339   7.361  19.868  0.00  0.00    +0.000 OA
ATOM      3  N   UNL     1       2.267   8.338  17.816  0.00  0.00    +0.000 N 
ATOM      4  H   UNL     1       2.514   8.247  16.835  0.00  0.00    +0.000 HD
ENDROOT
BRANCH   1  10
ATOM      5  C   UNL     1       3.283   3.675  17.551  0.00  0.00    +0.000 A 
ATOM      6  C   UNL     1       4.488   3.904  16.870  0.00  0.00    +0.000 A 
ATOM      7  C   UNL     1       5.030   5.183  16.795  0.00  0.00    +0.000 A 
ATOM      8 BR   UNL     1       6.653   5.463  15.869  0.00  0.00    +0.000 Br
ATOM      9  C   UNL     1       4.380   6.252  17.390  0.00  0.00    +0.000 A 
ATOM     10  C   UNL     1       3.163   6.057  18.067  0.00  0.00    +0.000 A 
ATOM     11  C   UNL     1       2.597   4.758  18.150  0.00  0.00    +0.000 A 
BRANCH   5  13
ATOM     12  C   UNL     1       3.373   1.448  18.409  0.00  0.00    +0.000 C 
ATOM     13  O   UNL     1       2.722   2.425  17.605  0.00  0.00    +0.000 OA
ENDBRANCH   5  13
BRANCH  11  14
ATOM     14  O   UNL     1       1.404   4.678  18.825  0.00  0.00    +0.000 OA
ATOM     15  C   UNL     1       1.331   4.115  20.127  0.00  0.00    +0.000 C 
ENDBRANCH  11  14
ENDBRANCH   1  10
BRANCH   3  16
ATOM     16  C   UNL     1       1.670   9.569  18.276  0.00  0.00    +0.000 C 
BRANCH  16  17
ATOM     17  C   UNL     1       0.222   9.745  17.779  0.00  0.00    +0.000 C 
BRANCH  17  18
ATOM     18  N   UNL     1      -0.750   9.972  18.865  0.00  0.00    +0.000 NA
ATOM     19  C   UNL     1      -1.889  10.799  18.414  0.00  0.00    +0.000 C 
ATOM     20  C   UNL     1      -1.954  12.232  18.974  0.00  0.00    +0.000 C 
ATOM     21  C   UNL     1      -1.863  12.177  20.475  0.00  0.00    +0.000 A 
ATOM     22  C   UNL     1      -2.611  13.003  21.316  0.00  0.00    +0.000 A 
ATOM     23  C   UNL     1      -2.476  12.883  22.701  0.00  0.00    +0.000 A 
ATOM     24  C   UNL     1      -1.592  11.948  23.245  0.00  0.00    +0.000 A 
ATOM     25  C   UNL     1      -0.828  11.139  22.405  0.00  0.00    +0.000 A 
ATOM     26  C   UNL     1      -0.962  11.249  21.019  0.00  0.00    +0.000 A 
ATOM     27  C   UNL     1      -0.074  10.487  20.073  0.00  0.00    +0.000 C 
ENDBRANCH  17  18
ENDBRANCH  16  17
ENDBRANCH   3  16
TORSDOF 6
ENDMDL
MODEL 7
REMARK VINA RESULT:      -6.7      1.029      1.153
REMARK  Name = 
REMARK  8 active torsions:
REMARK  status: ('A' for Active; 'I' for Inactive)
REMARK    1  A    between atoms: C_1  and  O_2
REMARK    2  A    between atoms: O_2  and  C_3
REMARK    3  A    between atoms: C_8  and  C_9
REMARK    4  A    between atoms: N_11  and  C_12
REMARK    5  A    between atoms: C_12  and  C_13
REMARK    6  A    between atoms: C_13  and  N_14
REMARK    7  A    between atoms: C_24  and  O_25
REMARK    8  A    between atoms: O_25  and  C_26
REMARK                            x       y       z     vdW  Elec       q    Type
REMARK                         _______ _______ _______ _____ _____    ______ ____
ROOT
ATOM      1  C   UNL     1      -0.213  10.722  18.456  0.00  0.00    +0.000 C 
ATOM      2  O   UNL     1       0.491  11.669  18.800  0.00  0.00    +0.000 OA
ATOM      3  N   UNL     1       0.268   9.437  18.427  0.00  0.00    +0.000 N 
ATOM      4  H   UNL     1      -0.371   8.688  18.179  0.00  0.00    +0.000 HD
ENDROOT
BRANCH   1  10
ATOM      5  C   UNL     1      -3.946  11.683  18.340  0.00  0.00    +0.000 A 
ATOM      6  C   UNL     1      -4.229  11.257  17.033  0.00  0.00    +0.000 A 
ATOM      7  C   UNL     1      -3.239  10.677  16.246  0.00  0.00    +0.000 A 
ATOM      8 BR   UNL     1      -3.647  10.114  14.489  0.00  0.00    +0.000 Br
ATOM      9  C   UNL     1      -1.956  10.518  16.743  0.00  0.00    +0.000 A 
ATOM     10  C   UNL     1      -1.639  10.949  18.043  0.00  0.00    +0.000 A 
ATOM     11  C   UNL     1      -2.637  11.545  18.858  0.00  0.00    +0.000 A 
BRANCH   5  13
ATOM     12  C   UNL     1      -6.046  12.817  18.451  0.00  0.00    +0.000 C 
ATOM     13  O   UNL     1      -4.904  12.286  19.114  0.00  0.00    +0.000 OA
ENDBRANCH   5  13
BRANCH  11  14
ATOM     14  O   UNL     1      -2.221  11.937  20.106  0.00  0.00    +0.000 OA
ATOM     15  C   UNL     1      -2.063  13.310  20.432  0.00  0.00    +0.000 C 
ENDBRANCH  11  14
ENDBRANCH   1  10
BRANCH   3  16
ATOM     16  C   UNL     1       1.627   9.107  18.785  0.00  0.00    +0.000 C 
BRANCH  16  17
ATOM     17  C   UNL     1       1.726   8.426  20.164  0.00  0.00    +0.000 C 
BRANCH  17  18
ATOM     18  N   UNL     1       2.319   7.077  20.113  0.00  0.00    +0.000 NA
ATOM     19  C   UNL     1       2.850   6.765  18.769  0.00  0.00    +0.000 C 
ATOM     20  C   UNL     1       2.071   5.715  17.956  0.00  0.00    +0.000 C 
ATOM     21  C   UNL     1       1.900   4.475  18.791  0.00  0.00    +0.000 A 
ATOM     22  C   UNL     1       1.998   3.184  18.270  0.00  0.00    +0.000 A 
ATOM     23  C   UNL     1       1.836   2.083  19.115  0.00  0.00    +0.000 A 
ATOM     24  C   UNL     1       1.568   2.270  20.472  0.00  0.00    +0.000 A 
ATOM     25  C   UNL     1       1.448   3.560  20.989  0.00  0.00    +0.000 A 
ATOM     26  C   UNL     1       1.615   4.665  20.151  0.00  0.00    +0.000 A 
ATOM     27  C   UNL     1       1.373   6.070  20.635  0.00  0.00    +0.000 C 
ENDBRANCH  17  18
ENDBRANCH  16  17
ENDBRANCH   3  16
TORSDOF 6
ENDMDL
MODEL 8
REMARK VINA RESULT:      -6.7      2.705      3.551
REMARK  Name = 
REMARK  8 active torsions:
REMARK  status: ('A' for Active; 'I' for Inactive)
REMARK    1  A    between atoms: C_1  and  O_2
REMARK    2  A    between atoms: O_2  and  C_3
REMARK    3  A    between atoms: C_8  and  C_9
REMARK    4  A    between atoms: N_11  and  C_12
REMARK    5  A    between atoms: C_12  and  C_13
REMARK    6  A    between atoms: C_13  and  N_14
REMARK    7  A    between atoms: C_24  and  O_25
REMARK    8  A    between atoms: O_25  and  C_26
REMARK                            x       y       z     vdW  Elec       q    Type
REMARK                         _______ _______ _______ _____ _____    ______ ____
ROOT
ATOM      1  C   UNL     1       1.482   9.296  18.392  0.00  0.00    +0.000 C 
ATOM      2  O   UNL     1       2.237   9.195  17.428  0.00  0.00    +0.000 OA
ATOM      3  N   UNL     1       1.606   8.491  19.497  0.00  0.00    +0.000 N 
ATOM      4  H   UNL     1       0.982   8.649  20.282  0.00  0.00    +0.000 HD
ENDROOT
BRANCH   1  10
ATOM      5  C   UNL     1      -0.613  12.518  18.718  0.00  0.00    +0.000 A 
ATOM      6  C   UNL     1      -1.845  12.008  18.280  0.00  0.00    +0.000 A 
ATOM      7  C   UNL     1      -1.970  10.673  17.910  0.00  0.00    +0.000 A 
ATOM      8 BR   UNL     1      -3.641  10.015  17.322  0.00  0.00    +0.000 Br
ATOM      9  C   UNL     1      -0.874   9.828  17.964  0.00  0.00    +0.000 A 
ATOM     10  C   UNL     1       0.377  10.313  18.384  0.00  0.00    +0.000 A 
ATOM     11  C   UNL     1       0.521  11.674  18.763  0.00  0.00    +0.000 A 
BRANCH   5  13
ATOM     12  C   UNL     1      -1.188  14.309  20.189  0.00  0.00    +0.000 C 
ATOM     13  O   UNL     1      -0.469  13.839  19.055  0.00  0.00    +0.000 OA
ENDBRANCH   5  13
BRANCH  11  14
ATOM     14  O   UNL     1       1.785  12.046  19.149  0.00  0.00    +0.000 OA
ATOM     15  C   UNL     1       2.625  12.804  18.290  0.00  0.00    +0.000 C 
ENDBRANCH  11  14
ENDBRANCH   1  10
BRANCH   3  16
ATOM     16  C   UNL     1       2.619   7.468  19.603  0.00  0.00    +0.000 C 
BRANCH  16  17
ATOM     17  C   UNL     1       2.065   6.057  19.321  0.00  0.00    +0.000 C 
BRANCH  17  18
ATOM     18  N   UNL     1       2.989   5.206  18.549  0.00  0.00    +0.000 NA
ATOM     19  C   UNL     1       3.968   4.528  19.426  0.00  0.00    +0.000 C 
ATOM     20  C   UNL     1       5.423   5.023  19.331  0.00  0.00    +0.000 C 
ATOM     21  C   UNL     1       5.856   5.002  17.890  0.00  0.00    +0.000 A 
ATOM     22  C   UNL     1       7.132   4.612  17.482  0.00  0.00    +0.000 A 
ATOM     23  C   UNL     1       7.452   4.612  16.122  0.00  0.00    +0.000 A 
ATOM     24  C   UNL     1       6.506   5.008  15.175  0.00  0.00    +0.000 A 
ATOM     25  C   UNL     1       5.238   5.419  15.584  0.00  0.00    +0.000 A 
ATOM     26  C   UNL     1       4.909   5.416  16.942  0.00  0.00    +0.000 A 
ATOM     27  C   UNL     1       3.600   5.967  17.441  0.00  0.00    +0.000 C 
ENDBRANCH  17  18
ENDBRANCH  16  17
ENDBRANCH   3  16
TORSDOF 6
ENDMDL
MODEL 9
REMARK VINA RESULT:      -6.6      2.496      3.325
REMARK  Name = 
REMARK  8 active torsions:
REMARK  status: ('A' for Active; 'I' for Inactive)
REMARK    1  A    between atoms: C_1  and  O_2
REMARK    2  A    between atoms: O_2  and  C_3
REMARK    3  A    between atoms: C_8  and  C_9
REMARK    4  A    between atoms: N_11  and  C_12
REMARK    5  A    between atoms: C_12  and  C_13
REMARK    6  A    between atoms: C_13  and  N_14
REMARK    7  A    between atoms: C_24  and  O_25
REMARK    8  A    between atoms: O_25  and  C_26
REMARK                            x       y       z     vdW  Elec       q    Type
REMARK                         _______ _______ _______ _____ _____    ______ ____
ROOT
ATOM      1  C   UNL     1      -0.133  11.121  21.510  0.00  0.00    +0.000 C 
ATOM      2  O   UNL     1       0.842  11.847  21.692  0.00  0.00    +0.000 OA
ATOM      3  N   UNL     1      -0.002   9.770  21.311  0.00  0.00    +0.000 N 
ATOM      4  H   UNL     1      -0.844   9.213  21.211  0.00  0.00    +0.000 HD
ENDROOT
BRANCH   1  10
ATOM      5  C   UNL     1      -3.537  12.592  20.450  0.00  0.00    +0.000 A 
ATOM      6  C   UNL     1      -4.087  12.780  21.727  0.00  0.00    +0.000 A 
ATOM      7  C   UNL     1      -3.364  12.448  22.867  0.00  0.00    +0.000 A 
ATOM      8 BR   UNL     1      -4.131  12.710  24.574  0.00  0.00    +0.000 Br
ATOM      9  C   UNL     1      -2.089  11.919  22.756  0.00  0.00    +0.000 A 
ATOM     10  C   UNL     1      -1.517  11.704  21.490  0.00  0.00    +0.000 A 
ATOM     11  C   UNL     1      -2.243  12.036  20.316  0.00  0.00    +0.000 A 
BRANCH   5  13
ATOM     12  C   UNL     1      -5.368  12.058  19.013  0.00  0.00    +0.000 C 
ATOM     13  O   UNL     1      -4.251  12.885  19.316  0.00  0.00    +0.000 OA
ENDBRANCH   5  13
BRANCH  11  14
ATOM     14  O   UNL     1      -1.596  11.779  19.132  0.00  0.00    +0.000 OA
ATOM     15  C   UNL     1      -1.907  10.630  18.358  0.00  0.00    +0.000 C 
ENDBRANCH  11  14
ENDBRANCH   1  10
BRANCH   3  16
ATOM     16  C   UNL     1       1.281   9.108  21.292  0.00  0.00    +0.000 C 
BRANCH  16  17
ATOM     17  C   UNL     1       1.641   8.557  19.898  0.00  0.00    +0.000 C 
BRANCH  17  18
ATOM     18  N   UNL     1       2.279   7.228  19.937  0.00  0.00    +0.000 NA
ATOM     19  C   UNL     1       2.748   6.808  18.599  0.00  0.00    +0.000 C 
ATOM     20  C   UNL     1       1.965   5.662  17.932  0.00  0.00    +0.000 C 
ATOM     21  C   UNL     1       1.886   4.501  18.886  0.00  0.00    +0.000 A 
ATOM     22  C   UNL     1       2.003   3.171  18.481  0.00  0.00    +0.000 A 
ATOM     23  C   UNL     1       1.928   2.150  19.431  0.00  0.00    +0.000 A 
ATOM     24  C   UNL     1       1.728   2.455  20.779  0.00  0.00    +0.000 A 
ATOM     25  C   UNL     1       1.588   3.782  21.181  0.00  0.00    +0.000 A 
ATOM     26  C   UNL     1       1.668   4.809  20.237  0.00  0.00    +0.000 A 
ATOM     27  C   UNL     1       1.401   6.245  20.603  0.00  0.00    +0.000 C 
ENDBRANCH  17  18
ENDBRANCH  16  17
ENDBRANCH   3  16
TORSDOF 6
ENDMDL
