MODEL 1
REMARK VINA RESULT:      -7.4      0.000      0.000
REMARK  Name = 
REMARK  4 active torsions:
REMARK  status: ('A' for Active; 'I' for Inactive)
REMARK    1  A    between atoms: C_1  and  O_2
REMARK    2  A    between atoms: O_2  and  C_3
REMARK    3  A    between atoms: C_6  and  C_7
REMARK    4  A    between atoms: C_13  and  C_14
REMARK                            x       y       z     vdW  Elec       q    Type
REMARK                         _______ _______ _______ _____ _____    ______ ____
ROOT
ATOM      1  C   UNL     1       1.864   7.896  19.805  0.00  0.00    +0.000 C 
ATOM      2  O   UNL     1       2.083   8.219  18.641  0.00  0.00    +0.000 OA
ATOM      3  N   UNL     1       2.252   6.706  20.374  0.00  0.00    +0.000 N 
ATOM      4  C   UNL     1       2.992   5.783  19.685  0.00  0.00    +0.000 A 
ATOM      5  N   UNL     1       3.220   4.541  20.050  0.00  0.00    +0.000 NA
ATOM      6  N   UNL     1       4.035   3.997  19.077  0.00  0.00    +0.000 NA
ATOM      7  C   UNL     1       4.287   4.957  18.203  0.00  0.00    +0.000 A 
ATOM      8  O   UNL     1       3.636   6.121  18.534  0.00  0.00    +0.000 OA
ATOM      9  H   UNL     1       1.917   6.391  21.268  0.00  0.00    +0.000 HD
ENDROOT
BRANCH   1  13
ATOM     10  C   UNL     1      -0.382  10.517  22.404  0.00  0.00    +0.000 A 
ATOM     11  C   UNL     1       0.417   9.495  22.909  0.00  0.00    +0.000 A 
ATOM     12  C   UNL     1       1.146   8.675  22.046  0.00  0.00    +0.000 A 
ATOM     13  C   UNL     1       1.074   8.846  20.657  0.00  0.00    +0.000 A 
ATOM     14  C   UNL     1       0.252   9.865  20.148  0.00  0.00    +0.000 A 
ATOM     15  C   UNL     1      -0.470  10.697  21.023  0.00  0.00    +0.000 A 
BRANCH  10  17
ATOM     16  C   UNL     1      -2.166  11.998  22.873  0.00  0.00    +0.000 C 
ATOM     17  O   UNL     1      -1.066  11.231  23.347  0.00  0.00    +0.000 OA
ENDBRANCH  10  17
ENDBRANCH   1  13
BRANCH   7  18
ATOM     18  C   UNL     1       5.173   4.809  17.083  0.00  0.00    +0.000 A 
ATOM     19  C   UNL     1       4.930   4.108  15.916  0.00  0.00    +0.000 A 
ATOM     20  C   UNL     1       6.041   4.127  15.022  0.00  0.00    +0.000 A 
ATOM     21  C   UNL     1       7.097   4.848  15.533  0.00  0.00    +0.000 A 
ATOM     22  S   UNL     1       6.742   5.497  17.076  0.00  0.00    +0.000 S 
ENDBRANCH   7  18
TORSDOF 3
ENDMDL
MODEL 2
REMARK VINA RESULT:      -7.4      6.653      7.785
REMARK  Name = 
REMARK  4 active torsions:
REMARK  status: ('A' for Active; 'I' for Inactive)
REMARK    1  A    between atoms: C_1  and  O_2
REMARK    2  A    between atoms: O_2  and  C_3
REMARK    3  A    between atoms: C_6  and  C_7
REMARK    4  A    between atoms: C_13  and  C_14
REMARK                            x       y       z     vdW  Elec       q    Type
REMARK                         _______ _______ _______ _____ _____    ______ ____
ROOT
ATOM      1  C   UNL     1       8.588   9.320  18.425  0.00  0.00    +0.000 C 
ATOM      2  O   UNL     1       7.877   9.489  17.437  0.00  0.00    +0.000 OA
ATOM      3  N   UNL     1       8.741   8.124  19.084  0.00  0.00    +0.000 N 
ATOM      4  C   UNL     1       8.144   6.973  18.643  0.00  0.00    +0.000 A 
ATOM      5  N   UNL     1       8.042   5.846  19.309  0.00  0.00    +0.000 NA
ATOM      6  N   UNL     1       7.401   4.957  18.469  0.00  0.00    +0.000 NA
ATOM      7  C   UNL     1       7.193   5.589  17.325  0.00  0.00    +0.000 A 
ATOM      8  O   UNL     1       7.637   6.888  17.382  0.00  0.00    +0.000 OA
ATOM      9  H   UNL     1       9.186   8.046  19.982  0.00  0.00    +0.000 HD
ENDROOT
BRANCH   1  13
ATOM     10  C   UNL     1      10.722  12.794  19.856  0.00  0.00    +0.000 A 
ATOM     11  C   UNL     1      10.565  12.540  18.496  0.00  0.00    +0.000 A 
ATOM     12  C   UNL     1       9.854  11.420  18.063  0.00  0.00    +0.000 A 
ATOM     13  C   UNL     1       9.304  10.516  18.982  0.00  0.00    +0.000 A 
ATOM     14  C   UNL     1       9.480  10.762  20.353  0.00  0.00    +0.000 A 
ATOM     15  C   UNL     1      10.185  11.901  20.784  0.00  0.00    +0.000 A 
BRANCH  10  17
ATOM     16  C   UNL     1      11.528  14.898  19.135  0.00  0.00    +0.000 C 
ATOM     17  O   UNL     1      11.459  13.905  20.152  0.00  0.00    +0.000 OA
ENDBRANCH  10  17
ENDBRANCH   1  13
BRANCH   7  18
ATOM     18  C   UNL     1       6.623   4.972  16.161  0.00  0.00    +0.000 A 
ATOM     19  C   UNL     1       7.188   4.889  14.902  0.00  0.00    +0.000 A 
ATOM     20  C   UNL     1       6.334   4.245  13.958  0.00  0.00    +0.000 A 
ATOM     21  C   UNL     1       5.145   3.850  14.529  0.00  0.00    +0.000 A 
ATOM     22  S   UNL     1       5.068   4.252  16.190  0.00  0.00    +0.000 S 
ENDBRANCH   7  18
TORSDOF 3
ENDMDL
MODEL 3
REMARK VINA RESULT:      -7.4      3.193      8.712
REMARK  Name = 
REMARK  4 active torsions:
REMARK  status: ('A' for Active; 'I' for Inactive)
REMARK    1  A    between atoms: C_1  and  O_2
REMARK    2  A    between atoms: O_2  and  C_3
REMARK    3  A    between atoms: C_6  and  C_7
REMARK    4  A    between atoms: C_13  and  C_14
REMARK                            x       y       z     vdW  Elec       q    Type
REMARK                         _______ _______ _______ _____ _____    ______ ____
ROOT
ATOM      1  C   UNL     1       2.863   6.814  18.193  0.00  0.00    +0.000 C 
ATOM      2  O   UNL     1       2.258   6.353  19.158  0.00  0.00    +0.000 OA
ATOM      3  N   UNL     1       2.716   8.094  17.715  0.00  0.00    +0.000 N 
ATOM      4  C   UNL     1       1.905   9.008  18.333  0.00  0.00    +0.000 A 
ATOM      5  N   UNL     1       1.524  10.166  17.842  0.00  0.00    +0.000 NA
ATOM      6  N   UNL     1       0.748  10.761  18.817  0.00  0.00    +0.000 NA
ATOM      7  C   UNL     1       0.743   9.945  19.858  0.00  0.00    +0.000 A 
ATOM      8  O   UNL     1       1.457   8.800  19.602  0.00  0.00    +0.000 OA
ATOM      9  H   UNL     1       3.087   8.394  16.830  0.00  0.00    +0.000 HD
ENDROOT
BRANCH   1  13
ATOM     10  C   UNL     1       5.591   4.327  15.947  0.00  0.00    +0.000 A 
ATOM     11  C   UNL     1       5.603   5.715  15.833  0.00  0.00    +0.000 A 
ATOM     12  C   UNL     1       4.722   6.493  16.585  0.00  0.00    +0.000 A 
ATOM     13  C   UNL     1       3.794   5.899  17.452  0.00  0.00    +0.000 A 
ATOM     14  C   UNL     1       3.770   4.499  17.550  0.00  0.00    +0.000 A 
ATOM     15  C   UNL     1       4.669   3.719  16.801  0.00  0.00    +0.000 A 
BRANCH  10  17
ATOM     16  C   UNL     1       6.366   3.937  13.746  0.00  0.00    +0.000 C 
ATOM     17  O   UNL     1       6.481   3.676  15.140  0.00  0.00    +0.000 OA
ENDBRANCH  10  17
ENDBRANCH   1  13
BRANCH   7  18
ATOM     18  C   UNL     1       0.113  10.250  21.112  0.00  0.00    +0.000 A 
ATOM     19  C   UNL     1       0.016   9.425  22.217  0.00  0.00    +0.000 A 
ATOM     20  C   UNL     1      -0.714  10.023  23.287  0.00  0.00    +0.000 A 
ATOM     21  C   UNL     1      -1.147  11.290  22.966  0.00  0.00    +0.000 A 
ATOM     22  S   UNL     1      -0.669  11.750  21.388  0.00  0.00    +0.000 S 
ENDBRANCH   7  18
TORSDOF 3
ENDMDL
MODEL 4
REMARK VINA RESULT:      -7.2      6.648      7.465
REMARK  Name = 
REMARK  4 active torsions:
REMARK  status: ('A' for Active; 'I' for Inactive)
REMARK    1  A    between atoms: C_1  and  O_2
REMARK    2  A    between atoms: O_2  and  C_3
REMARK    3  A    between atoms: C_6  and  C_7
REMARK    4  A    between atoms: C_13  and  C_14
REMARK                            x       y       z     vdW  Elec       q    Type
REMARK                         _______ _______ _______ _____ _____    ______ ____
ROOT
ATOM      1  C   UNL     1       8.535   9.283  18.287  0.00  0.00    +0.000 C 
ATOM      2  O   UNL     1       7.831   9.419  17.290  0.00  0.00    +0.000 OA
ATOM      3  N   UNL     1       8.687   8.108  18.984  0.00  0.00    +0.000 N 
ATOM      4  C   UNL     1       8.097   6.943  18.574  0.00  0.00    +0.000 A 
ATOM      5  N   UNL     1       7.993   5.836  19.275  0.00  0.00    +0.000 NA
ATOM      6  N   UNL     1       7.361   4.920  18.458  0.00  0.00    +0.000 NA
ATOM      7  C   UNL     1       7.159   5.515  17.294  0.00  0.00    +0.000 A 
ATOM      8  O   UNL     1       7.599   6.817  17.313  0.00  0.00    +0.000 OA
ATOM      9  H   UNL     1       9.126   8.060  19.887  0.00  0.00    +0.000 HD
ENDROOT
BRANCH   1  13
ATOM     10  C   UNL     1      10.504  12.742  19.969  0.00  0.00    +0.000 A 
ATOM     11  C   UNL     1       9.948  11.752  20.775  0.00  0.00    +0.000 A 
ATOM     12  C   UNL     1       9.334  10.637  20.204  0.00  0.00    +0.000 A 
ATOM     13  C   UNL     1       9.244  10.498  18.812  0.00  0.00    +0.000 A 
ATOM     14  C   UNL     1       9.787  11.506  18.000  0.00  0.00    +0.000 A 
ATOM     15  C   UNL     1      10.417  12.621  18.581  0.00  0.00    +0.000 A 
BRANCH  10  17
ATOM     16  C   UNL     1      10.177  14.492  21.526  0.00  0.00    +0.000 C 
ATOM     17  O   UNL     1      11.051  13.795  20.646  0.00  0.00    +0.000 OA
ENDBRANCH  10  17
ENDBRANCH   1  13
BRANCH   7  18
ATOM     18  C   UNL     1       6.599   4.861  16.145  0.00  0.00    +0.000 A 
ATOM     19  C   UNL     1       7.134   4.812  14.871  0.00  0.00    +0.000 A 
ATOM     20  C   UNL     1       6.299   4.112  13.951  0.00  0.00    +0.000 A 
ATOM     21  C   UNL     1       5.154   3.642  14.554  0.00  0.00    +0.000 A 
ATOM     22  S   UNL     1       5.095   4.042  16.217  0.00  0.00    +0.000 S 
ENDBRANCH   7  18
TORSDOF 3
ENDMDL
MODEL 5
REMARK VINA RESULT:      -7.1      0.956      1.152
REMARK  Name = 
REMARK  4 active torsions:
REMARK  status: ('A' for Active; 'I' for Inactive)
REMARK    1  A    between atoms: C_1  and  O_2
REMARK    2  A    between atoms: O_2  and  C_3
REMARK    3  A    between atoms: C_6  and  C_7
REMARK    4  A    between atoms: C_13  and  C_14
REMARK                            x       y       z     vdW  Elec       q    Type
REMARK                         _______ _______ _______ _____ _____    ______ ____
ROOT
ATOM      1  C   UNL     1       1.693   7.990  20.209  0.00  0.00    +0.000 C 
ATOM      2  O   UNL     1       2.140   8.308  19.110  0.00  0.00    +0.000 OA
ATOM      3  N   UNL     1       1.871   6.764  20.802  0.00  0.00    +0.000 N 
ATOM      4  C   UNL     1       2.638   5.786  20.226  0.00  0.00    +0.000 A 
ATOM      5  N   UNL     1       2.690   4.525  20.590  0.00  0.00    +0.000 NA
ATOM      6  N   UNL     1       3.611   3.921  19.757  0.00  0.00    +0.000 NA
ATOM      7  C   UNL     1       4.095   4.866  18.967  0.00  0.00    +0.000 A 
ATOM      8  O   UNL     1       3.499   6.079  19.214  0.00  0.00    +0.000 OA
ATOM      9  H   UNL     1       1.359   6.469  21.616  0.00  0.00    +0.000 HD
ENDROOT
BRANCH   1  13
ATOM     10  C   UNL     1      -0.767  10.757  22.437  0.00  0.00    +0.000 A 
ATOM     11  C   UNL     1      -0.345   9.548  22.985  0.00  0.00    +0.000 A 
ATOM     12  C   UNL     1       0.465   8.683  22.248  0.00  0.00    +0.000 A 
ATOM     13  C   UNL     1       0.852   8.998  20.938  0.00  0.00    +0.000 A 
ATOM     14  C   UNL     1       0.409  10.207  20.380  0.00  0.00    +0.000 A 
ATOM     15  C   UNL     1      -0.396  11.083  21.132  0.00  0.00    +0.000 A 
BRANCH  10  17
ATOM     16  C   UNL     1      -2.574  12.277  22.590  0.00  0.00    +0.000 C 
ATOM     17  O   UNL     1      -1.576  11.503  23.247  0.00  0.00    +0.000 OA
ENDBRANCH  10  17
ENDBRANCH   1  13
BRANCH   7  18
ATOM     18  C   UNL     1       5.147   4.653  18.013  0.00  0.00    +0.000 A 
ATOM     19  C   UNL     1       6.504   4.810  18.221  0.00  0.00    +0.000 A 
ATOM     20  C   UNL     1       7.273   4.556  17.047  0.00  0.00    +0.000 A 
ATOM     21  C   UNL     1       6.477   4.206  15.980  0.00  0.00    +0.000 A 
ATOM     22  S   UNL     1       4.818   4.182  16.398  0.00  0.00    +0.000 S 
ENDBRANCH   7  18
TORSDOF 3
ENDMDL
MODEL 6
REMARK VINA RESULT:      -7.1      0.486      1.132
REMARK  Name = 
REMARK  4 active torsions:
REMARK  status: ('A' for Active; 'I' for Inactive)
REMARK    1  A    between atoms: C_1  and  O_2
REMARK    2  A    between atoms: O_2  and  C_3
REMARK    3  A    between atoms: C_6  and  C_7
REMARK    4  A    between atoms: C_13  and  C_14
REMARK                            x       y       z     vdW  Elec       q    Type
REMARK                         _______ _______ _______ _____ _____    ______ ____
ROOT
ATOM      1  C   UNL     1       1.833   7.888  19.877  0.00  0.00    +0.000 C 
ATOM      2  O   UNL     1       2.093   8.233  18.727  0.00  0.00    +0.000 OA
ATOM      3  N   UNL     1       2.175   6.676  20.426  0.00  0.00    +0.000 N 
ATOM      4  C   UNL     1       2.909   5.750  19.735  0.00  0.00    +0.000 A 
ATOM      5  N   UNL     1       3.094   4.494  20.075  0.00  0.00    +0.000 NA
ATOM      6  N   UNL     1       3.920   3.951  19.111  0.00  0.00    +0.000 NA
ATOM      7  C   UNL     1       4.221   4.925  18.268  0.00  0.00    +0.000 A 
ATOM      8  O   UNL     1       3.592   6.097  18.609  0.00  0.00    +0.000 OA
ATOM      9  H   UNL     1       1.808   6.349  21.303  0.00  0.00    +0.000 HD
ENDROOT
BRANCH   1  13
ATOM     10  C   UNL     1      -0.407  10.760  22.201  0.00  0.00    +0.000 A 
ATOM     11  C   UNL     1      -0.092  10.987  20.864  0.00  0.00    +0.000 A 
ATOM     12  C   UNL     1       0.617  10.033  20.133  0.00  0.00    +0.000 A 
ATOM     13  C   UNL     1       1.046   8.840  20.730  0.00  0.00    +0.000 A 
ATOM     14  C   UNL     1       0.745   8.621  22.084  0.00  0.00    +0.000 A 
ATOM     15  C   UNL     1       0.018   9.580  22.812  0.00  0.00    +0.000 A 
BRANCH  10  17
ATOM     16  C   UNL     1      -0.792  13.090  22.341  0.00  0.00    +0.000 C 
ATOM     17  O   UNL     1      -1.079  11.779  22.814  0.00  0.00    +0.000 OA
ENDBRANCH  10  17
ENDBRANCH   1  13
BRANCH   7  18
ATOM     18  C   UNL     1       5.132   4.779  17.168  0.00  0.00    +0.000 A 
ATOM     19  C   UNL     1       4.937   4.041  16.015  0.00  0.00    +0.000 A 
ATOM     20  C   UNL     1       6.063   4.076  15.142  0.00  0.00    +0.000 A 
ATOM     21  C   UNL     1       7.083   4.847  15.652  0.00  0.00    +0.000 A 
ATOM     22  S   UNL     1       6.677   5.523  17.170  0.00  0.00    +0.000 S 
ENDBRANCH   7  18
TORSDOF 3
ENDMDL
MODEL 7
REMARK VINA RESULT:      -7.1      1.109      1.643
REMARK  Name = 
REMARK  4 active torsions:
REMARK  status: ('A' for Active; 'I' for Inactive)
REMARK    1  A    between atoms: C_1  and  O_2
REMARK    2  A    between atoms: O_2  and  C_3
REMARK    3  A    between atoms: C_6  and  C_7
REMARK    4  A    between atoms: C_13  and  C_14
REMARK                            x       y       z     vdW  Elec       q    Type
REMARK                         _______ _______ _______ _____ _____    ______ ____
ROOT
ATOM      1  C   UNL     1       1.575   8.089  20.466  0.00  0.00    +0.000 C 
ATOM      2  O   UNL     1       2.068   8.441  19.397  0.00  0.00    +0.000 OA
ATOM      3  N   UNL     1       1.682   6.827  20.999  0.00  0.00    +0.000 N 
ATOM      4  C   UNL     1       2.423   5.847  20.395  0.00  0.00    +0.000 A 
ATOM      5  N   UNL     1       2.411   4.567  20.694  0.00  0.00    +0.000 NA
ATOM      6  N   UNL     1       3.330   3.966  19.857  0.00  0.00    +0.000 NA
ATOM      7  C   UNL     1       3.877   4.927  19.131  0.00  0.00    +0.000 A 
ATOM      8  O   UNL     1       3.327   6.152  19.423  0.00  0.00    +0.000 OA
ATOM      9  H   UNL     1       1.135   6.514  21.782  0.00  0.00    +0.000 HD
ENDROOT
BRANCH   1  13
ATOM     10  C   UNL     1      -0.715  11.118  22.527  0.00  0.00    +0.000 A 
ATOM     11  C   UNL     1      -0.121  11.364  21.292  0.00  0.00    +0.000 A 
ATOM     12  C   UNL     1       0.597  10.360  20.641  0.00  0.00    +0.000 A 
ATOM     13  C   UNL     1       0.756   9.094  21.222  0.00  0.00    +0.000 A 
ATOM     14  C   UNL     1       0.174   8.855  22.477  0.00  0.00    +0.000 A 
ATOM     15  C   UNL     1      -0.561   9.866  23.122  0.00  0.00    +0.000 A 
BRANCH  10  17
ATOM     16  C   UNL     1      -2.778  12.060  23.201  0.00  0.00    +0.000 C 
ATOM     17  O   UNL     1      -1.366  12.187  23.074  0.00  0.00    +0.000 OA
ENDBRANCH  10  17
ENDBRANCH   1  13
BRANCH   7  18
ATOM     18  C   UNL     1       4.947   4.716  18.197  0.00  0.00    +0.000 A 
ATOM     19  C   UNL     1       6.295   4.938  18.410  0.00  0.00    +0.000 A 
ATOM     20  C   UNL     1       7.085   4.665  17.255  0.00  0.00    +0.000 A 
ATOM     21  C   UNL     1       6.316   4.236  16.197  0.00  0.00    +0.000 A 
ATOM     22  S   UNL     1       4.655   4.161  16.602  0.00  0.00    +0.000 S 
ENDBRANCH   7  18
TORSDOF 3
ENDMDL
MODEL 8
REMARK VINA RESULT:      -7.1      1.291      1.726
REMARK  Name = 
REMARK  4 active torsions:
REMARK  status: ('A' for Active; 'I' for Inactive)
REMARK    1  A    between atoms: C_1  and  O_2
REMARK    2  A    between atoms: O_2  and  C_3
REMARK    3  A    between atoms: C_6  and  C_7
REMARK    4  A    between atoms: C_13  and  C_14
REMARK                            x       y       z     vdW  Elec       q    Type
REMARK                         _______ _______ _______ _____ _____    ______ ____
ROOT
ATOM      1  C   UNL     1       1.217   8.565  20.287  0.00  0.00    +0.000 C 
ATOM      2  O   UNL     1       1.401   8.892  19.117  0.00  0.00    +0.000 OA
ATOM      3  N   UNL     1       1.582   7.355  20.828  0.00  0.00    +0.000 N 
ATOM      4  C   UNL     1       2.258   6.412  20.101  0.00  0.00    +0.000 A 
ATOM      5  N   UNL     1       2.453   5.159  20.445  0.00  0.00    +0.000 NA
ATOM      6  N   UNL     1       3.206   4.594  19.435  0.00  0.00    +0.000 NA
ATOM      7  C   UNL     1       3.459   5.554  18.560  0.00  0.00    +0.000 A 
ATOM      8  O   UNL     1       2.867   6.738  18.928  0.00  0.00    +0.000 OA
ATOM      9  H   UNL     1       1.272   7.044  21.732  0.00  0.00    +0.000 HD
ENDROOT
BRANCH   1  13
ATOM     10  C   UNL     1      -0.767  11.501  22.759  0.00  0.00    +0.000 A 
ATOM     11  C   UNL     1      -0.130  11.854  21.572  0.00  0.00    +0.000 A 
ATOM     12  C   UNL     1       0.486  10.880  20.784  0.00  0.00    +0.000 A 
ATOM     13  C   UNL     1       0.499   9.535  21.179  0.00  0.00    +0.000 A 
ATOM     14  C   UNL     1      -0.126   9.184  22.386  0.00  0.00    +0.000 A 
ATOM     15  C   UNL     1      -0.758  10.167  23.169  0.00  0.00    +0.000 A 
BRANCH  10  17
ATOM     16  C   UNL     1      -1.002  13.846  22.963  0.00  0.00    +0.000 C 
ATOM     17  O   UNL     1      -1.308  12.546  23.453  0.00  0.00    +0.000 OA
ENDBRANCH  10  17
ENDBRANCH   1  13
BRANCH   7  18
ATOM     18  C   UNL     1       4.292   5.384  17.403  0.00  0.00    +0.000 A 
ATOM     19  C   UNL     1       4.814   6.380  16.598  0.00  0.00    +0.000 A 
ATOM     20  C   UNL     1       5.568   5.864  15.504  0.00  0.00    +0.000 A 
ATOM     21  C   UNL     1       5.605   4.488  15.511  0.00  0.00    +0.000 A 
ATOM     22  S   UNL     1       4.738   3.831  16.832  0.00  0.00    +0.000 S 
ENDBRANCH   7  18
TORSDOF 3
ENDMDL
MODEL 9
REMARK VINA RESULT:      -6.9      1.096      1.316
REMARK  Name = 
REMARK  4 active torsions:
REMARK  status: ('A' for Active; 'I' for Inactive)
REMARK    1  A    between atoms: C_1  and  O_2
REMARK    2  A    between atoms: O_2  and  C_3
REMARK    3  A    between atoms: C_6  and  C_7
REMARK    4  A    between atoms: C_13  and  C_14
REMARK                            x       y       z     vdW  Elec       q    Type
REMARK                         _______ _______ _______ _____ _____    ______ ____
ROOT
ATOM      1  C   UNL     1       1.227   8.751  20.306  0.00  0.00    +0.000 C 
ATOM      2  O   UNL     1       1.499   9.005  19.135  0.00  0.00    +0.000 OA
ATOM      3  N   UNL     1       1.481   7.551  20.926  0.00  0.00    +0.000 N 
ATOM      4  C   UNL     1       2.136   6.531  20.288  0.00  0.00    +0.000 A 
ATOM      5  N   UNL     1       2.229   5.288  20.703  0.00  0.00    +0.000 NA
ATOM      6  N   UNL     1       3.001   4.627  19.769  0.00  0.00    +0.000 NA
ATOM      7  C   UNL     1       3.367   5.522  18.866  0.00  0.00    +0.000 A 
ATOM      8  O   UNL     1       2.832   6.758  19.140  0.00  0.00    +0.000 OA
ATOM      9  H   UNL     1       1.100   7.306  21.823  0.00  0.00    +0.000 HD
ENDROOT
BRANCH   1  13
ATOM     10  C   UNL     1      -0.892  11.659  22.697  0.00  0.00    +0.000 A 
ATOM     11  C   UNL     1      -0.873  10.308  23.035  0.00  0.00    +0.000 A 
ATOM     12  C   UNL     1      -0.165   9.395  22.253  0.00  0.00    +0.000 A 
ATOM     13  C   UNL     1       0.522   9.809  21.104  0.00  0.00    +0.000 A 
ATOM     14  C   UNL     1       0.486  11.168  20.754  0.00  0.00    +0.000 A 
ATOM     15  C   UNL     1      -0.218  12.087  21.553  0.00  0.00    +0.000 A 
BRANCH  10  17
ATOM     16  C   UNL     1      -3.047  12.225  23.494  0.00  0.00    +0.000 C 
ATOM     17  O   UNL     1      -1.642  12.447  23.524  0.00  0.00    +0.000 OA
ENDBRANCH  10  17
ENDBRANCH   1  13
BRANCH   7  18
ATOM     18  C   UNL     1       4.253   5.242  17.772  0.00  0.00    +0.000 A 
ATOM     19  C   UNL     1       4.252   4.118  16.966  0.00  0.00    +0.000 A 
ATOM     20  C   UNL     1       5.297   4.137  15.996  0.00  0.00    +0.000 A 
ATOM     21  C   UNL     1       6.060   5.279  16.087  0.00  0.00    +0.000 A 
ATOM     22  S   UNL     1       5.512   6.318  17.332  0.00  0.00    +0.000 S 
ENDBRANCH   7  18
TORSDOF 3
ENDMDL
