MODEL 1
REMARK VINA RESULT:      -6.5      0.000      0.000
REMARK  Name = 
REMARK  17 active torsions:
REMARK  status: ('A' for Active; 'I' for Inactive)
REMARK    1  A    between atoms: C_1  and  C_2
REMARK    2  A    between atoms: C_2  and  C_16
REMARK    3  A    between atoms: C_3  and  C_4
REMARK    4  A    between atoms: C_4  and  C_5
REMARK    5  A    between atoms: C_5  and  C_6
REMARK    6  A    between atoms: C_6  and  C_7
REMARK    7  A    between atoms: C_6  and  C_8
REMARK    8  A    between atoms: C_8  and  C_9
REMARK    9  A    between atoms: C_9  and  C_11
REMARK   10  A    between atoms: C_11  and  O_12
REMARK   11  A    between atoms: C_11  and  C_13
REMARK   12  A    between atoms: C_13  and  C_14
REMARK   13  A    between atoms: C_16  and  C_17
REMARK   14  A    between atoms: C_17  and  C_18
REMARK   15  A    between atoms: C_18  and  C_19
REMARK   16  A    between atoms: C_22  and  C_23
REMARK   17  A    between atoms: C_23  and  C_24
REMARK                            x       y       z     vdW  Elec       q    Type
REMARK                         _______ _______ _______ _____ _____    ______ ____
ROOT
ATOM      1  C   UNL     1       0.340   2.486  18.952  0.00  0.00    +0.000 C 
ATOM      2  C   UNL     1       0.886   3.403  20.019  0.00  0.00    +0.000 C 
ATOM      3  C   UNL     1       1.002   4.718  19.732  0.00  0.00    +0.000 C 
ENDROOT
BRANCH   3   4
ATOM      4  C   UNL     1       1.630   5.807  20.558  0.00  0.00    +0.000 C 
BRANCH   4   5
ATOM      5  C   UNL     1       2.620   6.688  19.777  0.00  0.00    +0.000 C 
BRANCH   5   6
ATOM      6  C   UNL     1       2.165   8.146  19.534  0.00  0.00    +0.000 C 
ATOM      7  C   UNL     1       1.826   8.374  18.057  0.00  0.00    +0.000 C 
BRANCH   6   8
ATOM      8  C   UNL     1       0.932   8.506  20.385  0.00  0.00    +0.000 C 
BRANCH   8   9
ATOM      9  C   UNL     1       1.181   9.560  21.456  0.00  0.00    +0.000 C 
ATOM     10  O   UNL     1       1.819   9.331  22.484  0.00  0.00    +0.000 OA
BRANCH   9  11
ATOM     11  C   UNL     1       0.558  10.932  21.201  0.00  0.00    +0.000 C 
BRANCH  11  12
ATOM     12  C   UNL     1      -0.756  11.103  21.986  0.00  0.00    +0.000 C 
ATOM     13  C   UNL     1      -0.868  10.159  23.180  0.00  0.00    +0.000 C 
ATOM     14 CL   UNL     1      -0.881  12.792  22.599  0.00  0.00    +0.000 Cl
ENDBRANCH  11  12
BRANCH  11  15
ATOM     15  O   UNL     1       0.355  11.021  19.787  0.00  0.00    +0.000 OA
ATOM     16  H   UNL     1       1.228  10.954  19.357  0.00  0.00    +0.000 HD
ENDBRANCH  11  15
ENDBRANCH   9  11
ENDBRANCH   8   9
ENDBRANCH   6   8
ENDBRANCH   5   6
ENDBRANCH   4   5
ENDBRANCH   3   4
BRANCH   2  17
ATOM     17  C   UNL     1       1.413   2.739  21.283  0.00  0.00    +0.000 C 
BRANCH  17  18
ATOM     18  C   UNL     1       2.886   2.984  21.659  0.00  0.00    +0.000 C 
BRANCH  18  19
ATOM     19  C   UNL     1       3.901   2.104  20.924  0.00  0.00    +0.000 C 
BRANCH  19  20
ATOM     20  C   UNL     1       3.956   2.385  19.458  0.00  0.00    +0.000 A 
ATOM     21  C   UNL     1       3.634   1.535  18.420  0.00  0.00    +0.000 A 
ATOM     22  O   UNL     1       3.843   2.135  17.221  0.00  0.00    +0.000 OA
ATOM     23  C   UNL     1       4.299   3.395  17.476  0.00  0.00    +0.000 A 
ATOM     24  C   UNL     1       4.383   3.594  18.837  0.00  0.00    +0.000 A 
BRANCH  23  25
ATOM     25  C   UNL     1       4.626   4.239  16.295  0.00  0.00    +0.000 C 
BRANCH  25  26
ATOM     26  C   UNL     1       5.615   5.313  16.600  0.00  0.00    +0.000 A 
ATOM     27  C   UNL     1       5.352   6.610  17.132  0.00  0.00    +0.000 A 
ATOM     28  C   UNL     1       6.561   7.255  17.212  0.00  0.00    +0.000 A 
ATOM     29  O   UNL     1       7.558   6.447  16.767  0.00  0.00    +0.000 OA
ATOM     30  C   UNL     1       6.979   5.276  16.401  0.00  0.00    +0.000 A 
ENDBRANCH  25  26
ENDBRANCH  23  25
ENDBRANCH  19  20
ENDBRANCH  18  19
ENDBRANCH  17  18
ENDBRANCH   2  17
TORSDOF 14
ENDMDL
MODEL 2
REMARK VINA RESULT:      -6.4      1.897      2.893
REMARK  Name = 
REMARK  17 active torsions:
REMARK  status: ('A' for Active; 'I' for Inactive)
REMARK    1  A    between atoms: C_1  and  C_2
REMARK    2  A    between atoms: C_2  and  C_16
REMARK    3  A    between atoms: C_3  and  C_4
REMARK    4  A    between atoms: C_4  and  C_5
REMARK    5  A    between atoms: C_5  and  C_6
REMARK    6  A    between atoms: C_6  and  C_7
REMARK    7  A    between atoms: C_6  and  C_8
REMARK    8  A    between atoms: C_8  and  C_9
REMARK    9  A    between atoms: C_9  and  C_11
REMARK   10  A    between atoms: C_11  and  O_12
REMARK   11  A    between atoms: C_11  and  C_13
REMARK   12  A    between atoms: C_13  and  C_14
REMARK   13  A    between atoms: C_16  and  C_17
REMARK   14  A    between atoms: C_17  and  C_18
REMARK   15  A    between atoms: C_18  and  C_19
REMARK   16  A    between atoms: C_22  and  C_23
REMARK   17  A    between atoms: C_23  and  C_24
REMARK                            x       y       z     vdW  Elec       q    Type
REMARK                         _______ _______ _______ _____ _____    ______ ____
ROOT
ATOM      1  C   UNL     1       3.752   6.115  19.503  0.00  0.00    +0.000 C 
ATOM      2  C   UNL     1       2.430   6.216  20.224  0.00  0.00    +0.000 C 
ATOM      3  C   UNL     1       1.894   7.443  20.406  0.00  0.00    +0.000 C 
ENDROOT
BRANCH   3   4
ATOM      4  C   UNL     1       0.672   7.825  21.197  0.00  0.00    +0.000 C 
BRANCH   4   5
ATOM      5  C   UNL     1       0.403   9.340  21.232  0.00  0.00    +0.000 C 
BRANCH   5   6
ATOM      6  C   UNL     1       0.812  10.117  19.960  0.00  0.00    +0.000 C 
ATOM      7  C   UNL     1      -0.211   9.908  18.838  0.00  0.00    +0.000 C 
BRANCH   6   8
ATOM      8  C   UNL     1       0.943  11.628  20.234  0.00  0.00    +0.000 C 
BRANCH   8   9
ATOM      9  C   UNL     1       0.979  12.502  18.987  0.00  0.00    +0.000 C 
ATOM     10  O   UNL     1       1.902  12.468  18.172  0.00  0.00    +0.000 OA
BRANCH   9  11
ATOM     11  C   UNL     1      -0.194  13.467  18.813  0.00  0.00    +0.000 C 
BRANCH  11  12
ATOM     12  C   UNL     1      -1.120  13.448  20.043  0.00  0.00    +0.000 C 
ATOM     13  C   UNL     1      -1.557  14.842  20.484  0.00  0.00    +0.000 C 
ATOM     14 CL   UNL     1      -2.601  12.493  19.673  0.00  0.00    +0.000 Cl
ENDBRANCH  11  12
BRANCH  11  15
ATOM     15  O   UNL     1      -0.874  13.056  17.621  0.00  0.00    +0.000 OA
ATOM     16  H   UNL     1      -1.823  12.984  17.831  0.00  0.00    +0.000 HD
ENDBRANCH  11  15
ENDBRANCH   9  11
ENDBRANCH   8   9
ENDBRANCH   6   8
ENDBRANCH   5   6
ENDBRANCH   4   5
ENDBRANCH   3   4
BRANCH   2  17
ATOM     17  C   UNL     1       1.886   4.931  20.831  0.00  0.00    +0.000 C 
BRANCH  17  18
ATOM     18  C   UNL     1       0.695   4.254  20.126  0.00  0.00    +0.000 C 
BRANCH  18  19
ATOM     19  C   UNL     1       1.007   2.906  19.470  0.00  0.00    +0.000 C 
BRANCH  19  20
ATOM     20  C   UNL     1       2.267   2.930  18.670  0.00  0.00    +0.000 A 
ATOM     21  C   UNL     1       3.444   2.255  18.924  0.00  0.00    +0.000 A 
ATOM     22  O   UNL     1       4.383   2.553  17.991  0.00  0.00    +0.000 OA
ATOM     23  C   UNL     1       3.814   3.427  17.111  0.00  0.00    +0.000 A 
ATOM     24  C   UNL     1       2.513   3.686  17.488  0.00  0.00    +0.000 A 
BRANCH  23  25
ATOM     25  C   UNL     1       4.676   3.919  16.005  0.00  0.00    +0.000 C 
BRANCH  25  26
ATOM     26  C   UNL     1       5.728   4.872  16.463  0.00  0.00    +0.000 A 
ATOM     27  C   UNL     1       5.647   6.295  16.516  0.00  0.00    +0.000 A 
ATOM     28  C   UNL     1       6.861   6.743  16.973  0.00  0.00    +0.000 A 
ATOM     29  O   UNL     1       7.692   5.694  17.207  0.00  0.00    +0.000 OA
ATOM     30  C   UNL     1       7.001   4.569  16.899  0.00  0.00    +0.000 A 
ENDBRANCH  25  26
ENDBRANCH  23  25
ENDBRANCH  19  20
ENDBRANCH  18  19
ENDBRANCH  17  18
ENDBRANCH   2  17
TORSDOF 14
ENDMDL
MODEL 3
REMARK VINA RESULT:      -6.3      2.872      7.578
REMARK  Name = 
REMARK  17 active torsions:
REMARK  status: ('A' for Active; 'I' for Inactive)
REMARK    1  A    between atoms: C_1  and  C_2
REMARK    2  A    between atoms: C_2  and  C_16
REMARK    3  A    between atoms: C_3  and  C_4
REMARK    4  A    between atoms: C_4  and  C_5
REMARK    5  A    between atoms: C_5  and  C_6
REMARK    6  A    between atoms: C_6  and  C_7
REMARK    7  A    between atoms: C_6  and  C_8
REMARK    8  A    between atoms: C_8  and  C_9
REMARK    9  A    between atoms: C_9  and  C_11
REMARK   10  A    between atoms: C_11  and  O_12
REMARK   11  A    between atoms: C_11  and  C_13
REMARK   12  A    between atoms: C_13  and  C_14
REMARK   13  A    between atoms: C_16  and  C_17
REMARK   14  A    between atoms: C_17  and  C_18
REMARK   15  A    between atoms: C_18  and  C_19
REMARK   16  A    between atoms: C_22  and  C_23
REMARK   17  A    between atoms: C_23  and  C_24
REMARK                            x       y       z     vdW  Elec       q    Type
REMARK                         _______ _______ _______ _____ _____    ______ ____
ROOT
ATOM      1  C   UNL     1       1.210   2.716  22.121  0.00  0.00    +0.000 C 
ATOM      2  C   UNL     1       2.009   3.070  20.891  0.00  0.00    +0.000 C 
ATOM      3  C   UNL     1       3.272   2.599  20.792  0.00  0.00    +0.000 C 
ENDROOT
BRANCH   3   4
ATOM      4  C   UNL     1       4.310   2.909  19.748  0.00  0.00    +0.000 C 
BRANCH   4   5
ATOM      5  C   UNL     1       4.024   2.271  18.378  0.00  0.00    +0.000 C 
BRANCH   5   6
ATOM      6  C   UNL     1       3.979   3.252  17.184  0.00  0.00    +0.000 C 
ATOM      7  C   UNL     1       2.534   3.513  16.744  0.00  0.00    +0.000 C 
BRANCH   6   8
ATOM      8  C   UNL     1       4.641   4.599  17.530  0.00  0.00    +0.000 C 
BRANCH   8   9
ATOM      9  C   UNL     1       5.749   5.030  16.578  0.00  0.00    +0.000 C 
ATOM     10  O   UNL     1       6.325   4.246  15.823  0.00  0.00    +0.000 OA
BRANCH   9  11
ATOM     11  C   UNL     1       6.141   6.507  16.632  0.00  0.00    +0.000 C 
BRANCH  11  12
ATOM     12  C   UNL     1       7.467   6.706  17.389  0.00  0.00    +0.000 C 
ATOM     13  C   UNL     1       7.785   8.173  17.662  0.00  0.00    +0.000 C 
ATOM     14 CL   UNL     1       7.398   5.848  18.971  0.00  0.00    +0.000 Cl
ENDBRANCH  11  12
BRANCH  11  15
ATOM     15  O   UNL     1       5.052   7.184  17.268  0.00  0.00    +0.000 OA
ATOM     16  H   UNL     1       4.362   7.333  16.595  0.00  0.00    +0.000 HD
ENDBRANCH  11  15
ENDBRANCH   9  11
ENDBRANCH   8   9
ENDBRANCH   6   8
ENDBRANCH   5   6
ENDBRANCH   4   5
ENDBRANCH   3   4
BRANCH   2  17
ATOM     17  C   UNL     1       1.377   4.068  19.932  0.00  0.00    +0.000 C 
BRANCH  17  18
ATOM     18  C   UNL     1       1.989   5.479  19.861  0.00  0.00    +0.000 C 
BRANCH  18  19
ATOM     19  C   UNL     1       1.809   6.332  21.119  0.00  0.00    +0.000 C 
BRANCH  19  20
ATOM     20  C   UNL     1       1.464   7.752  20.811  0.00  0.00    +0.000 A 
ATOM     21  C   UNL     1       1.130   8.754  21.699  0.00  0.00    +0.000 A 
ATOM     22  O   UNL     1       0.846   9.907  21.043  0.00  0.00    +0.000 OA
ATOM     23  C   UNL     1       1.001   9.660  19.710  0.00  0.00    +0.000 A 
ATOM     24  C   UNL     1       1.382   8.349  19.520  0.00  0.00    +0.000 A 
BRANCH  23  25
ATOM     25  C   UNL     1       0.713  10.787  18.783  0.00  0.00    +0.000 C 
BRANCH  25  26
ATOM     26  C   UNL     1      -0.746  11.038  18.606  0.00  0.00    +0.000 A 
ATOM     27  C   UNL     1      -1.617  10.454  17.639  0.00  0.00    +0.000 A 
ATOM     28  C   UNL     1      -2.856  11.008  17.838  0.00  0.00    +0.000 A 
ATOM     29  O   UNL     1      -2.816  11.898  18.864  0.00  0.00    +0.000 OA
ATOM     30  C   UNL     1      -1.539  11.909  19.323  0.00  0.00    +0.000 A 
ENDBRANCH  25  26
ENDBRANCH  23  25
ENDBRANCH  19  20
ENDBRANCH  18  19
ENDBRANCH  17  18
ENDBRANCH   2  17
TORSDOF 14
ENDMDL
MODEL 4
REMARK VINA RESULT:      -6.3      4.935      8.468
REMARK  Name = 
REMARK  17 active torsions:
REMARK  status: ('A' for Active; 'I' for Inactive)
REMARK    1  A    between atoms: C_1  and  C_2
REMARK    2  A    between atoms: C_2  and  C_16
REMARK    3  A    between atoms: C_3  and  C_4
REMARK    4  A    between atoms: C_4  and  C_5
REMARK    5  A    between atoms: C_5  and  C_6
REMARK    6  A    between atoms: C_6  and  C_7
REMARK    7  A    between atoms: C_6  and  C_8
REMARK    8  A    between atoms: C_8  and  C_9
REMARK    9  A    between atoms: C_9  and  C_11
REMARK   10  A    between atoms: C_11  and  O_12
REMARK   11  A    between atoms: C_11  and  C_13
REMARK   12  A    between atoms: C_13  and  C_14
REMARK   13  A    between atoms: C_16  and  C_17
REMARK   14  A    between atoms: C_17  and  C_18
REMARK   15  A    between atoms: C_18  and  C_19
REMARK   16  A    between atoms: C_22  and  C_23
REMARK   17  A    between atoms: C_23  and  C_24
REMARK                            x       y       z     vdW  Elec       q    Type
REMARK                         _______ _______ _______ _____ _____    ______ ____
ROOT
ATOM      1  C   UNL     1       7.387   4.678  16.533  0.00  0.00    +0.000 C 
ATOM      2  C   UNL     1       6.640   5.868  17.085  0.00  0.00    +0.000 C 
ATOM      3  C   UNL     1       5.492   6.238  16.477  0.00  0.00    +0.000 C 
ENDROOT
BRANCH   3   4
ATOM      4  C   UNL     1       4.639   7.449  16.742  0.00  0.00    +0.000 C 
BRANCH   4   5
ATOM      5  C   UNL     1       3.332   7.137  17.493  0.00  0.00    +0.000 C 
BRANCH   5   6
ATOM      6  C   UNL     1       3.469   6.166  18.689  0.00  0.00    +0.000 C 
ATOM      7  C   UNL     1       2.447   6.499  19.783  0.00  0.00    +0.000 C 
BRANCH   6   8
ATOM      8  C   UNL     1       3.272   4.701  18.257  0.00  0.00    +0.000 C 
BRANCH   8   9
ATOM      9  C   UNL     1       4.048   3.683  19.083  0.00  0.00    +0.000 C 
ATOM     10  O   UNL     1       5.265   3.751  19.259  0.00  0.00    +0.000 OA
BRANCH   9  11
ATOM     11  C   UNL     1       3.229   2.530  19.665  0.00  0.00    +0.000 C 
BRANCH  11  12
ATOM     12  C   UNL     1       1.780   2.965  19.955  0.00  0.00    +0.000 C 
ATOM     13  C   UNL     1       0.753   2.228  19.100  0.00  0.00    +0.000 C 
ATOM     14 CL   UNL     1       1.389   2.655  21.685  0.00  0.00    +0.000 Cl
ENDBRANCH  11  12
BRANCH  11  15
ATOM     15  O   UNL     1       3.914   2.114  20.852  0.00  0.00    +0.000 OA
ATOM     16  H   UNL     1       4.826   1.879  20.601  0.00  0.00    +0.000 HD
ENDBRANCH  11  15
ENDBRANCH   9  11
ENDBRANCH   8   9
ENDBRANCH   6   8
ENDBRANCH   5   6
ENDBRANCH   4   5
ENDBRANCH   3   4
BRANCH   2  17
ATOM     17  C   UNL     1       7.333   6.653  18.189  0.00  0.00    +0.000 C 
BRANCH  17  18
ATOM     18  C   UNL     1       8.332   7.748  17.771  0.00  0.00    +0.000 C 
BRANCH  18  19
ATOM     19  C   UNL     1       7.798   9.181  17.844  0.00  0.00    +0.000 C 
BRANCH  19  20
ATOM     20  C   UNL     1       8.808  10.149  18.366  0.00  0.00    +0.000 A 
ATOM     21  C   UNL     1       9.762  10.844  17.653  0.00  0.00    +0.000 A 
ATOM     22  O   UNL     1      10.524  11.606  18.478  0.00  0.00    +0.000 OA
ATOM     23  C   UNL     1      10.059  11.412  19.746  0.00  0.00    +0.000 A 
ATOM     24  C   UNL     1       9.003  10.526  19.726  0.00  0.00    +0.000 A 
BRANCH  23  25
ATOM     25  C   UNL     1      10.769  12.134  20.836  0.00  0.00    +0.000 C 
BRANCH  25  26
ATOM     26  C   UNL     1       9.876  13.038  21.616  0.00  0.00    +0.000 A 
ATOM     27  C   UNL     1       9.111  12.713  22.776  0.00  0.00    +0.000 A 
ATOM     28  C   UNL     1       8.424  13.849  23.125  0.00  0.00    +0.000 A 
ATOM     29  O   UNL     1       8.711  14.858  22.263  0.00  0.00    +0.000 OA
ATOM     30  C   UNL     1       9.589  14.361  21.356  0.00  0.00    +0.000 A 
ENDBRANCH  25  26
ENDBRANCH  23  25
ENDBRANCH  19  20
ENDBRANCH  18  19
ENDBRANCH  17  18
ENDBRANCH   2  17
TORSDOF 14
ENDMDL
MODEL 5
REMARK VINA RESULT:      -6.2      5.119      8.507
REMARK  Name = 
REMARK  17 active torsions:
REMARK  status: ('A' for Active; 'I' for Inactive)
REMARK    1  A    between atoms: C_1  and  C_2
REMARK    2  A    between atoms: C_2  and  C_16
REMARK    3  A    between atoms: C_3  and  C_4
REMARK    4  A    between atoms: C_4  and  C_5
REMARK    5  A    between atoms: C_5  and  C_6
REMARK    6  A    between atoms: C_6  and  C_7
REMARK    7  A    between atoms: C_6  and  C_8
REMARK    8  A    between atoms: C_8  and  C_9
REMARK    9  A    between atoms: C_9  and  C_11
REMARK   10  A    between atoms: C_11  and  O_12
REMARK   11  A    between atoms: C_11  and  C_13
REMARK   12  A    between atoms: C_13  and  C_14
REMARK   13  A    between atoms: C_16  and  C_17
REMARK   14  A    between atoms: C_17  and  C_18
REMARK   15  A    between atoms: C_18  and  C_19
REMARK   16  A    between atoms: C_22  and  C_23
REMARK   17  A    between atoms: C_23  and  C_24
REMARK                            x       y       z     vdW  Elec       q    Type
REMARK                         _______ _______ _______ _____ _____    ______ ____
ROOT
ATOM      1  C   UNL     1       7.841   5.523  19.349  0.00  0.00    +0.000 C 
ATOM      2  C   UNL     1       6.905   6.154  18.347  0.00  0.00    +0.000 C 
ATOM      3  C   UNL     1       5.602   5.798  18.379  0.00  0.00    +0.000 C 
ENDROOT
BRANCH   3   4
ATOM      4  C   UNL     1       4.503   6.172  17.422  0.00  0.00    +0.000 C 
BRANCH   4   5
ATOM      5  C   UNL     1       3.091   6.072  18.026  0.00  0.00    +0.000 C 
BRANCH   5   6
ATOM      6  C   UNL     1       2.939   6.635  19.457  0.00  0.00    +0.000 C 
ATOM      7  C   UNL     1       2.011   7.855  19.469  0.00  0.00    +0.000 C 
BRANCH   6   8
ATOM      8  C   UNL     1       2.378   5.578  20.428  0.00  0.00    +0.000 C 
BRANCH   8   9
ATOM      9  C   UNL     1       1.987   4.257  19.777  0.00  0.00    +0.000 C 
ATOM     10  O   UNL     1       0.840   4.007  19.408  0.00  0.00    +0.000 OA
BRANCH   9  11
ATOM     11  C   UNL     1       3.106   3.225  19.635  0.00  0.00    +0.000 C 
BRANCH  11  12
ATOM     12  C   UNL     1       2.774   2.187  18.548  0.00  0.00    +0.000 C 
ATOM     13  C   UNL     1       2.758   2.779  17.141  0.00  0.00    +0.000 C 
ATOM     14 CL   UNL     1       3.995   0.863  18.580  0.00  0.00    +0.000 Cl
ENDBRANCH  11  12
BRANCH  11  15
ATOM     15  O   UNL     1       3.259   2.623  20.925  0.00  0.00    +0.000 OA
ATOM     16  H   UNL     1       2.555   2.973  21.501  0.00  0.00    +0.000 HD
ENDBRANCH  11  15
ENDBRANCH   9  11
ENDBRANCH   8   9
ENDBRANCH   6   8
ENDBRANCH   5   6
ENDBRANCH   4   5
ENDBRANCH   3   4
BRANCH   2  17
ATOM     17  C   UNL     1       7.543   7.023  17.273  0.00  0.00    +0.000 C 
BRANCH  17  18
ATOM     18  C   UNL     1       7.765   8.512  17.596  0.00  0.00    +0.000 C 
BRANCH  18  19
ATOM     19  C   UNL     1       8.765   8.793  18.721  0.00  0.00    +0.000 C 
BRANCH  19  20
ATOM     20  C   UNL     1       9.028  10.251  18.911  0.00  0.00    +0.000 A 
ATOM     21  C   UNL     1       9.456  10.892  20.055  0.00  0.00    +0.000 A 
ATOM     22  O   UNL     1       9.549  12.231  19.853  0.00  0.00    +0.000 OA
ATOM     23  C   UNL     1       9.185  12.469  18.560  0.00  0.00    +0.000 A 
ATOM     24  C   UNL     1       8.858  11.281  17.941  0.00  0.00    +0.000 A 
BRANCH  23  25
ATOM     25  C   UNL     1       9.185  13.888  18.116  0.00  0.00    +0.000 C 
BRANCH  25  26
ATOM     26  C   UNL     1       7.918  14.603  18.444  0.00  0.00    +0.000 A 
ATOM     27  C   UNL     1       6.678  14.539  17.743  0.00  0.00    +0.000 A 
ATOM     28  C   UNL     1       5.814  15.385  18.392  0.00  0.00    +0.000 A 
ATOM     29  O   UNL     1       6.433  15.971  19.450  0.00  0.00    +0.000 OA
ATOM     30  C   UNL     1       7.702  15.493  19.475  0.00  0.00    +0.000 A 
ENDBRANCH  25  26
ENDBRANCH  23  25
ENDBRANCH  19  20
ENDBRANCH  18  19
ENDBRANCH  17  18
ENDBRANCH   2  17
TORSDOF 14
ENDMDL
MODEL 6
REMARK VINA RESULT:      -6.2      4.115      8.472
REMARK  Name = 
REMARK  17 active torsions:
REMARK  status: ('A' for Active; 'I' for Inactive)
REMARK    1  A    between atoms: C_1  and  C_2
REMARK    2  A    between atoms: C_2  and  C_16
REMARK    3  A    between atoms: C_3  and  C_4
REMARK    4  A    between atoms: C_4  and  C_5
REMARK    5  A    between atoms: C_5  and  C_6
REMARK    6  A    between atoms: C_6  and  C_7
REMARK    7  A    between atoms: C_6  and  C_8
REMARK    8  A    between atoms: C_8  and  C_9
REMARK    9  A    between atoms: C_9  and  C_11
REMARK   10  A    between atoms: C_11  and  O_12
REMARK   11  A    between atoms: C_11  and  C_13
REMARK   12  A    between atoms: C_13  and  C_14
REMARK   13  A    between atoms: C_16  and  C_17
REMARK   14  A    between atoms: C_17  and  C_18
REMARK   15  A    between atoms: C_18  and  C_19
REMARK   16  A    between atoms: C_22  and  C_23
REMARK   17  A    between atoms: C_23  and  C_24
REMARK                            x       y       z     vdW  Elec       q    Type
REMARK                         _______ _______ _______ _____ _____    ______ ____
ROOT
ATOM      1  C   UNL     1       4.470   2.527  20.167  0.00  0.00    +0.000 C 
ATOM      2  C   UNL     1       4.591   3.357  18.913  0.00  0.00    +0.000 C 
ATOM      3  C   UNL     1       5.129   4.593  19.014  0.00  0.00    +0.000 C 
ENDROOT
BRANCH   3   4
ATOM      4  C   UNL     1       5.240   5.657  17.956  0.00  0.00    +0.000 C 
BRANCH   4   5
ATOM      5  C   UNL     1       4.958   5.150  16.532  0.00  0.00    +0.000 C 
BRANCH   5   6
ATOM      6  C   UNL     1       6.198   5.014  15.617  0.00  0.00    +0.000 C 
ATOM      7  C   UNL     1       7.328   4.268  16.336  0.00  0.00    +0.000 C 
BRANCH   6   8
ATOM      8  C   UNL     1       5.863   4.266  14.313  0.00  0.00    +0.000 C 
BRANCH   8   9
ATOM      9  C   UNL     1       6.802   4.560  13.150  0.00  0.00    +0.000 C 
ATOM     10  O   UNL     1       7.729   5.366  13.225  0.00  0.00    +0.000 OA
BRANCH   9  11
ATOM     11  C   UNL     1       6.507   3.813  11.849  0.00  0.00    +0.000 C 
BRANCH  11  12
ATOM     12  C   UNL     1       5.296   2.876  12.003  0.00  0.00    +0.000 C 
ATOM     13  C   UNL     1       4.053   3.379  11.273  0.00  0.00    +0.000 C 
ATOM     14 CL   UNL     1       5.701   1.247  11.353  0.00  0.00    +0.000 Cl
ENDBRANCH  11  12
BRANCH  11  15
ATOM     15  O   UNL     1       7.703   3.097  11.521  0.00  0.00    +0.000 OA
ATOM     16  H   UNL     1       7.597   2.740  10.620  0.00  0.00    +0.000 HD
ENDBRANCH  11  15
ENDBRANCH   9  11
ENDBRANCH   8   9
ENDBRANCH   6   8
ENDBRANCH   5   6
ENDBRANCH   4   5
ENDBRANCH   3   4
BRANCH   2  17
ATOM     17  C   UNL     1       3.945   2.791  17.657  0.00  0.00    +0.000 C 
BRANCH  17  18
ATOM     18  C   UNL     1       2.433   2.499  17.699  0.00  0.00    +0.000 C 
BRANCH  18  19
ATOM     19  C   UNL     1       1.529   3.729  17.579  0.00  0.00    +0.000 C 
BRANCH  19  20
ATOM     20  C   UNL     1       1.552   4.585  18.802  0.00  0.00    +0.000 A 
ATOM     21  C   UNL     1       1.209   4.230  20.091  0.00  0.00    +0.000 A 
ATOM     22  O   UNL     1       1.325   5.289  20.932  0.00  0.00    +0.000 OA
ATOM     23  C   UNL     1       1.755   6.349  20.187  0.00  0.00    +0.000 A 
ATOM     24  C   UNL     1       1.910   5.962  18.872  0.00  0.00    +0.000 A 
BRANCH  23  25
ATOM     25  C   UNL     1       1.929   7.641  20.901  0.00  0.00    +0.000 C 
BRANCH  25  26
ATOM     26  C   UNL     1       1.080   8.734  20.346  0.00  0.00    +0.000 A 
ATOM     27  C   UNL     1      -0.114   9.278  20.909  0.00  0.00    +0.000 A 
ATOM     28  C   UNL     1      -0.560  10.237  20.035  0.00  0.00    +0.000 A 
ATOM     29  O   UNL     1       0.275  10.328  18.967  0.00  0.00    +0.000 OA
ATOM     30  C   UNL     1       1.262   9.419  19.164  0.00  0.00    +0.000 A 
ENDBRANCH  25  26
ENDBRANCH  23  25
ENDBRANCH  19  20
ENDBRANCH  18  19
ENDBRANCH  17  18
ENDBRANCH   2  17
TORSDOF 14
ENDMDL
MODEL 7
REMARK VINA RESULT:      -6.2      3.502      8.173
REMARK  Name = 
REMARK  17 active torsions:
REMARK  status: ('A' for Active; 'I' for Inactive)
REMARK    1  A    between atoms: C_1  and  C_2
REMARK    2  A    between atoms: C_2  and  C_16
REMARK    3  A    between atoms: C_3  and  C_4
REMARK    4  A    between atoms: C_4  and  C_5
REMARK    5  A    between atoms: C_5  and  C_6
REMARK    6  A    between atoms: C_6  and  C_7
REMARK    7  A    between atoms: C_6  and  C_8
REMARK    8  A    between atoms: C_8  and  C_9
REMARK    9  A    between atoms: C_9  and  C_11
REMARK   10  A    between atoms: C_11  and  O_12
REMARK   11  A    between atoms: C_11  and  C_13
REMARK   12  A    between atoms: C_13  and  C_14
REMARK   13  A    between atoms: C_16  and  C_17
REMARK   14  A    between atoms: C_17  and  C_18
REMARK   15  A    between atoms: C_18  and  C_19
REMARK   16  A    between atoms: C_22  and  C_23
REMARK   17  A    between atoms: C_23  and  C_24
REMARK                            x       y       z     vdW  Elec       q    Type
REMARK                         _______ _______ _______ _____ _____    ______ ____
ROOT
ATOM      1  C   UNL     1       1.131   3.047  20.932  0.00  0.00    +0.000 C 
ATOM      2  C   UNL     1       1.698   4.140  20.060  0.00  0.00    +0.000 C 
ATOM      3  C   UNL     1       1.749   3.930  18.726  0.00  0.00    +0.000 C 
ENDROOT
BRANCH   3   4
ATOM      4  C   UNL     1       2.379   4.790  17.664  0.00  0.00    +0.000 C 
BRANCH   4   5
ATOM      5  C   UNL     1       3.897   4.978  17.834  0.00  0.00    +0.000 C 
BRANCH   5   6
ATOM      6  C   UNL     1       4.511   6.164  17.056  0.00  0.00    +0.000 C 
ATOM      7  C   UNL     1       3.807   7.477  17.416  0.00  0.00    +0.000 C 
BRANCH   6   8
ATOM      8  C   UNL     1       6.017   6.314  17.345  0.00  0.00    +0.000 C 
BRANCH   8   9
ATOM      9  C   UNL     1       6.907   5.298  16.641  0.00  0.00    +0.000 C 
ATOM     10  O   UNL     1       7.746   4.620  17.234  0.00  0.00    +0.000 OA
BRANCH   9  11
ATOM     11  C   UNL     1       6.725   5.185  15.128  0.00  0.00    +0.000 C 
BRANCH  11  12
ATOM     12  C   UNL     1       6.404   3.739  14.709  0.00  0.00    +0.000 C 
ATOM     13  C   UNL     1       5.206   3.153  15.453  0.00  0.00    +0.000 C 
ATOM     14 CL   UNL     1       6.046   3.683  12.945  0.00  0.00    +0.000 Cl
ENDBRANCH  11  12
BRANCH  11  15
ATOM     15  O   UNL     1       7.946   5.656  14.544  0.00  0.00    +0.000 OA
ATOM     16  H   UNL     1       8.610   5.718  15.255  0.00  0.00    +0.000 HD
ENDBRANCH  11  15
ENDBRANCH   9  11
ENDBRANCH   8   9
ENDBRANCH   6   8
ENDBRANCH   5   6
ENDBRANCH   4   5
ENDBRANCH   3   4
BRANCH   2  17
ATOM     17  C   UNL     1       2.317   5.331  20.777  0.00  0.00    +0.000 C 
BRANCH  17  18
ATOM     18  C   UNL     1       1.868   6.739  20.344  0.00  0.00    +0.000 C 
BRANCH  18  19
ATOM     19  C   UNL     1       0.791   7.379  21.224  0.00  0.00    +0.000 C 
BRANCH  19  20
ATOM     20  C   UNL     1       0.770   8.869  21.122  0.00  0.00    +0.000 A 
ATOM     21  C   UNL     1       1.092   9.788  22.099  0.00  0.00    +0.000 A 
ATOM     22  O   UNL     1       0.921  11.056  21.646  0.00  0.00    +0.000 OA
ATOM     23  C   UNL     1       0.488  10.966  20.355  0.00  0.00    +0.000 A 
ATOM     24  C   UNL     1       0.382   9.641  19.990  0.00  0.00    +0.000 A 
BRANCH  23  25
ATOM     25  C   UNL     1       0.203  12.247  19.655  0.00  0.00    +0.000 C 
BRANCH  25  26
ATOM     26  C   UNL     1       1.432  13.041  19.367  0.00  0.00    +0.000 A 
ATOM     27  C   UNL     1       2.310  12.909  18.251  0.00  0.00    +0.000 A 
ATOM     28  C   UNL     1       3.314  13.827  18.428  0.00  0.00    +0.000 A 
ATOM     29  O   UNL     1       3.119  14.523  19.578  0.00  0.00    +0.000 OA
ATOM     30  C   UNL     1       1.981  14.044  20.138  0.00  0.00    +0.000 A 
ENDBRANCH  25  26
ENDBRANCH  23  25
ENDBRANCH  19  20
ENDBRANCH  18  19
ENDBRANCH  17  18
ENDBRANCH   2  17
TORSDOF 14
ENDMDL
MODEL 8
REMARK VINA RESULT:      -6.2      1.870      2.999
REMARK  Name = 
REMARK  17 active torsions:
REMARK  status: ('A' for Active; 'I' for Inactive)
REMARK    1  A    between atoms: C_1  and  C_2
REMARK    2  A    between atoms: C_2  and  C_16
REMARK    3  A    between atoms: C_3  and  C_4
REMARK    4  A    between atoms: C_4  and  C_5
REMARK    5  A    between atoms: C_5  and  C_6
REMARK    6  A    between atoms: C_6  and  C_7
REMARK    7  A    between atoms: C_6  and  C_8
REMARK    8  A    between atoms: C_8  and  C_9
REMARK    9  A    between atoms: C_9  and  C_11
REMARK   10  A    between atoms: C_11  and  O_12
REMARK   11  A    between atoms: C_11  and  C_13
REMARK   12  A    between atoms: C_13  and  C_14
REMARK   13  A    between atoms: C_16  and  C_17
REMARK   14  A    between atoms: C_17  and  C_18
REMARK   15  A    between atoms: C_18  and  C_19
REMARK   16  A    between atoms: C_22  and  C_23
REMARK   17  A    between atoms: C_23  and  C_24
REMARK                            x       y       z     vdW  Elec       q    Type
REMARK                         _______ _______ _______ _____ _____    ______ ____
ROOT
ATOM      1  C   UNL     1       3.945   5.635  19.723  0.00  0.00    +0.000 C 
ATOM      2  C   UNL     1       2.562   5.911  20.262  0.00  0.00    +0.000 C 
ATOM      3  C   UNL     1       2.147   7.195  20.323  0.00  0.00    +0.000 C 
ENDROOT
BRANCH   3   4
ATOM      4  C   UNL     1       0.885   7.745  20.932  0.00  0.00    +0.000 C 
BRANCH   4   5
ATOM      5  C   UNL     1       0.912   9.268  21.151  0.00  0.00    +0.000 C 
BRANCH   5   6
ATOM      6  C   UNL     1      -0.440   9.992  20.955  0.00  0.00    +0.000 C 
ATOM      7  C   UNL     1      -0.539  11.222  21.865  0.00  0.00    +0.000 C 
BRANCH   6   8
ATOM      8  C   UNL     1      -0.638  10.440  19.495  0.00  0.00    +0.000 C 
BRANCH   8   9
ATOM      9  C   UNL     1       0.170  11.665  19.087  0.00  0.00    +0.000 C 
ATOM     10  O   UNL     1       1.399  11.708  19.154  0.00  0.00    +0.000 OA
BRANCH   9  11
ATOM     11  C   UNL     1      -0.638  12.872  18.614  0.00  0.00    +0.000 C 
BRANCH  11  12
ATOM     12  C   UNL     1      -0.431  14.083  19.542  0.00  0.00    +0.000 C 
ATOM     13  C   UNL     1      -0.132  15.374  18.784  0.00  0.00    +0.000 C 
ATOM     14 CL   UNL     1      -1.911  14.349  20.532  0.00  0.00    +0.000 Cl
ENDBRANCH  11  12
BRANCH  11  15
ATOM     15  O   UNL     1      -2.006  12.448  18.581  0.00  0.00    +0.000 OA
ATOM     16  H   UNL     1      -2.556  13.197  18.876  0.00  0.00    +0.000 HD
ENDBRANCH  11  15
ENDBRANCH   9  11
ENDBRANCH   8   9
ENDBRANCH   6   8
ENDBRANCH   5   6
ENDBRANCH   4   5
ENDBRANCH   3   4
BRANCH   2  17
ATOM     17  C   UNL     1       1.809   4.724  20.845  0.00  0.00    +0.000 C 
BRANCH  17  18
ATOM     18  C   UNL     1       0.671   4.116  20.004  0.00  0.00    +0.000 C 
BRANCH  18  19
ATOM     19  C   UNL     1       0.984   2.758  19.370  0.00  0.00    +0.000 C 
BRANCH  19  20
ATOM     20  C   UNL     1       2.206   2.788  18.512  0.00  0.00    +0.000 A 
ATOM     21  C   UNL     1       3.322   1.981  18.598  0.00  0.00    +0.000 A 
ATOM     22  O   UNL     1       4.245   2.330  17.667  0.00  0.00    +0.000 OA
ATOM     23  C   UNL     1       3.726   3.373  16.957  0.00  0.00    +0.000 A 
ATOM     24  C   UNL     1       2.473   3.688  17.440  0.00  0.00    +0.000 A 
BRANCH  23  25
ATOM     25  C   UNL     1       4.584   3.946  15.886  0.00  0.00    +0.000 C 
BRANCH  25  26
ATOM     26  C   UNL     1       5.631   4.871  16.408  0.00  0.00    +0.000 A 
ATOM     27  C   UNL     1       5.530   6.282  16.590  0.00  0.00    +0.000 A 
ATOM     28  C   UNL     1       6.746   6.706  17.062  0.00  0.00    +0.000 A 
ATOM     29  O   UNL     1       7.597   5.655  17.188  0.00  0.00    +0.000 OA
ATOM     30  C   UNL     1       6.915   4.550  16.793  0.00  0.00    +0.000 A 
ENDBRANCH  25  26
ENDBRANCH  23  25
ENDBRANCH  19  20
ENDBRANCH  18  19
ENDBRANCH  17  18
ENDBRANCH   2  17
TORSDOF 14
ENDMDL
MODEL 9
REMARK VINA RESULT:      -6.1      5.594      8.623
REMARK  Name = 
REMARK  17 active torsions:
REMARK  status: ('A' for Active; 'I' for Inactive)
REMARK    1  A    between atoms: C_1  and  C_2
REMARK    2  A    between atoms: C_2  and  C_16
REMARK    3  A    between atoms: C_3  and  C_4
REMARK    4  A    between atoms: C_4  and  C_5
REMARK    5  A    between atoms: C_5  and  C_6
REMARK    6  A    between atoms: C_6  and  C_7
REMARK    7  A    between atoms: C_6  and  C_8
REMARK    8  A    between atoms: C_8  and  C_9
REMARK    9  A    between atoms: C_9  and  C_11
REMARK   10  A    between atoms: C_11  and  O_12
REMARK   11  A    between atoms: C_11  and  C_13
REMARK   12  A    between atoms: C_13  and  C_14
REMARK   13  A    between atoms: C_16  and  C_17
REMARK   14  A    between atoms: C_17  and  C_18
REMARK   15  A    between atoms: C_18  and  C_19
REMARK   16  A    between atoms: C_22  and  C_23
REMARK   17  A    between atoms: C_23  and  C_24
REMARK                            x       y       z     vdW  Elec       q    Type
REMARK                         _______ _______ _______ _____ _____    ______ ____
ROOT
ATOM      1  C   UNL     1       8.133   6.275  18.940  0.00  0.00    +0.000 C 
ATOM      2  C   UNL     1       8.086   7.583  18.188  0.00  0.00    +0.000 C 
ATOM      3  C   UNL     1       8.586   8.684  18.790  0.00  0.00    +0.000 C 
ENDROOT
BRANCH   3   4
ATOM      4  C   UNL     1       8.543  10.113  18.319  0.00  0.00    +0.000 C 
BRANCH   4   5
ATOM      5  C   UNL     1       9.908  10.661  17.870  0.00  0.00    +0.000 C 
BRANCH   5   6
ATOM      6  C   UNL     1      10.374  11.950  18.584  0.00  0.00    +0.000 C 
ATOM      7  C   UNL     1      11.546  11.659  19.530  0.00  0.00    +0.000 C 
BRANCH   6   8
ATOM      8  C   UNL     1      10.809  13.033  17.579  0.00  0.00    +0.000 C 
BRANCH   8   9
ATOM      9  C   UNL     1      10.847  14.448  18.140  0.00  0.00    +0.000 C 
ATOM     10  O   UNL     1      11.586  14.781  19.068  0.00  0.00    +0.000 OA
BRANCH   9  11
ATOM     11  C   UNL     1       9.877  15.445  17.506  0.00  0.00    +0.000 C 
BRANCH  11  12
ATOM     12  C   UNL     1       9.911  16.800  18.236  0.00  0.00    +0.000 C 
ATOM     13  C   UNL     1      10.705  17.866  17.486  0.00  0.00    +0.000 C 
ATOM     14 CL   UNL     1       8.231  17.412  18.458  0.00  0.00    +0.000 Cl
ENDBRANCH  11  12
BRANCH  11  15
ATOM     15  O   UNL     1       8.583  14.835  17.563  0.00  0.00    +0.000 OA
ATOM     16  H   UNL     1       8.602  14.167  18.273  0.00  0.00    +0.000 HD
ENDBRANCH  11  15
ENDBRANCH   9  11
ENDBRANCH   8   9
ENDBRANCH   6   8
ENDBRANCH   5   6
ENDBRANCH   4   5
ENDBRANCH   3   4
BRANCH   2  17
ATOM     17  C   UNL     1       7.328   7.582  16.868  0.00  0.00    +0.000 C 
BRANCH  17  18
ATOM     18  C   UNL     1       6.972   6.218  16.248  0.00  0.00    +0.000 C 
BRANCH  18  19
ATOM     19  C   UNL     1       5.521   6.074  15.781  0.00  0.00    +0.000 C 
BRANCH  19  20
ATOM     20  C   UNL     1       4.689   5.264  16.722  0.00  0.00    +0.000 A 
ATOM     21  C   UNL     1       3.694   5.708  17.568  0.00  0.00    +0.000 A 
ATOM     22  O   UNL     1       3.185   4.683  18.297  0.00  0.00    +0.000 OA
ATOM     23  C   UNL     1       3.849   3.552  17.918  0.00  0.00    +0.000 A 
ATOM     24  C   UNL     1       4.782   3.861  16.950  0.00  0.00    +0.000 A 
BRANCH  23  25
ATOM     25  C   UNL     1       3.473   2.292  18.612  0.00  0.00    +0.000 C 
BRANCH  25  26
ATOM     26  C   UNL     1       2.632   2.519  19.822  0.00  0.00    +0.000 A 
ATOM     27  C   UNL     1       3.070   2.632  21.175  0.00  0.00    +0.000 A 
ATOM     28  C   UNL     1       1.944   2.805  21.940  0.00  0.00    +0.000 A 
ATOM     29  O   UNL     1       0.836   2.808  21.155  0.00  0.00    +0.000 OA
ATOM     30  C   UNL     1       1.260   2.637  19.878  0.00  0.00    +0.000 A 
ENDBRANCH  25  26
ENDBRANCH  23  25
ENDBRANCH  19  20
ENDBRANCH  18  19
ENDBRANCH  17  18
ENDBRANCH   2  17
TORSDOF 14
ENDMDL
