MODEL 1
REMARK VINA RESULT:      -8.6      0.000      0.000
REMARK  Name = 
REMARK  12 active torsions:
REMARK  status: ('A' for Active; 'I' for Inactive)
REMARK    1  A    between atoms: C_1  and  O_2
REMARK    2  A    between atoms: O_2  and  C_3
REMARK    3  A    between atoms: C_8  and  C_9
REMARK    4  A    between atoms: C_9  and  N_10
REMARK    5  A    between atoms: C_11  and  C_12
REMARK    6  A    between atoms: C_12  and  N_13
REMARK    7  A    between atoms: N_13  and  S_14
REMARK    8  A    between atoms: S_14  and  C_17
REMARK    9  A    between atoms: C_20  and  C_21
REMARK   10  A    between atoms: C_21  and  C_22
REMARK   11  A    between atoms: C_22  and  C_23
REMARK   12  A    between atoms: C_22  and  C_24
REMARK                            x       y       z     vdW  Elec       q    Type
REMARK                         _______ _______ _______ _____ _____    ______ ____
ROOT
ATOM      1  N   UNL     1       3.011   5.710  18.678  0.00  0.00    +0.000 N 
ATOM      2  C   UNL     1       2.368   6.693  19.416  0.00  0.00    +0.000 A 
ATOM      3  N   UNL     1       1.714   6.166  20.441  0.00  0.00    +0.000 NA
ATOM      4  C   UNL     1       1.896   4.816  20.338  0.00  0.00    +0.000 A 
ATOM      5  C   UNL     1       1.279   3.759  21.014  0.00  0.00    +0.000 A 
ATOM      6  C   UNL     1       1.593   2.465  20.595  0.00  0.00    +0.000 A 
ATOM      7  C   UNL     1       2.551   2.291  19.602  0.00  0.00    +0.000 A 
ATOM      8  N   UNL     1       3.194   3.280  18.936  0.00  0.00    +0.000 NA
ATOM      9  C   UNL     1       2.780   4.509  19.316  0.00  0.00    +0.000 A 
ENDROOT
BRANCH   1  10
ATOM     10  C   UNL     1       3.693   5.822  17.389  0.00  0.00    +0.000 C 
BRANCH  10  16
ATOM     11  C   UNL     1       5.913   4.782  16.531  0.00  0.00    +0.000 A 
ATOM     12  C   UNL     1       7.239   4.398  16.816  0.00  0.00    +0.000 A 
ATOM     13  C   UNL     1       7.870   4.783  17.990  0.00  0.00    +0.000 A 
ATOM     14  C   UNL     1       7.181   5.546  18.915  0.00  0.00    +0.000 A 
ATOM     15  C   UNL     1       5.850   5.887  18.674  0.00  0.00    +0.000 A 
ATOM     16  C   UNL     1       5.170   5.487  17.490  0.00  0.00    +0.000 A 
BRANCH  11  18
ATOM     17  C   UNL     1       6.270   4.155  14.289  0.00  0.00    +0.000 C 
ATOM     18  O   UNL     1       5.327   4.492  15.317  0.00  0.00    +0.000 OA
ENDBRANCH  11  18
ENDBRANCH  10  16
ENDBRANCH   1  10
BRANCH   2  19
ATOM     19  C   UNL     1       2.265   8.138  19.068  0.00  0.00    +0.000 C 
BRANCH  19  20
ATOM     20  N   UNL     1       1.070   8.817  19.567  0.00  0.00    +0.000 NA
ATOM     21  H   UNL     1       0.871   8.581  20.543  0.00  0.00    +0.000 HD
BRANCH  20  22
ATOM     22  S   UNL     1       0.914  10.479  19.374  0.00  0.00    +0.000 S 
ATOM     23  O   UNL     1       0.975  11.152  20.652  0.00  0.00    +0.000 OA
ATOM     24  O   UNL     1       1.825  10.841  18.311  0.00  0.00    +0.000 OA
BRANCH  22  25
ATOM     25  C   UNL     1      -0.733  10.654  18.711  0.00  0.00    +0.000 A 
ATOM     26  C   UNL     1      -1.603  11.620  19.232  0.00  0.00    +0.000 A 
ATOM     27  C   UNL     1      -2.880  11.771  18.682  0.00  0.00    +0.000 A 
ATOM     28  C   UNL     1      -3.290  10.992  17.587  0.00  0.00    +0.000 A 
ATOM     29  C   UNL     1      -2.406  10.035  17.067  0.00  0.00    +0.000 A 
ATOM     30  C   UNL     1      -1.135   9.863  17.625  0.00  0.00    +0.000 A 
BRANCH  28  31
ATOM     31  C   UNL     1      -4.672  11.168  16.989  0.00  0.00    +0.000 C 
BRANCH  31  32
ATOM     32  C   UNL     1      -5.688  11.892  17.900  0.00  0.00    +0.000 C 
ATOM     33  C   UNL     1      -6.405  13.039  17.179  0.00  0.00    +0.000 C 
ATOM     34  C   UNL     1      -6.735  10.900  18.420  0.00  0.00    +0.000 C 
ENDBRANCH  31  32
ENDBRANCH  28  31
ENDBRANCH  22  25
ENDBRANCH  20  22
ENDBRANCH  19  20
ENDBRANCH   2  19
TORSDOF 9
ENDMDL
MODEL 2
REMARK VINA RESULT:      -8.5      0.597      1.045
REMARK  Name = 
REMARK  12 active torsions:
REMARK  status: ('A' for Active; 'I' for Inactive)
REMARK    1  A    between atoms: C_1  and  O_2
REMARK    2  A    between atoms: O_2  and  C_3
REMARK    3  A    between atoms: C_8  and  C_9
REMARK    4  A    between atoms: C_9  and  N_10
REMARK    5  A    between atoms: C_11  and  C_12
REMARK    6  A    between atoms: C_12  and  N_13
REMARK    7  A    between atoms: N_13  and  S_14
REMARK    8  A    between atoms: S_14  and  C_17
REMARK    9  A    between atoms: C_20  and  C_21
REMARK   10  A    between atoms: C_21  and  C_22
REMARK   11  A    between atoms: C_22  and  C_23
REMARK   12  A    between atoms: C_22  and  C_24
REMARK                            x       y       z     vdW  Elec       q    Type
REMARK                         _______ _______ _______ _____ _____    ______ ____
ROOT
ATOM      1  N   UNL     1       2.896   5.756  18.705  0.00  0.00    +0.000 N 
ATOM      2  C   UNL     1       2.203   6.409  19.713  0.00  0.00    +0.000 A 
ATOM      3  N   UNL     1       1.458   5.558  20.405  0.00  0.00    +0.000 NA
ATOM      4  C   UNL     1       1.633   4.345  19.805  0.00  0.00    +0.000 A 
ATOM      5  C   UNL     1       0.950   3.136  19.975  0.00  0.00    +0.000 A 
ATOM      6  C   UNL     1       1.284   2.089  19.116  0.00  0.00    +0.000 A 
ATOM      7  C   UNL     1       2.321   2.266  18.206  0.00  0.00    +0.000 A 
ATOM      8  N   UNL     1       3.029   3.406  18.022  0.00  0.00    +0.000 NA
ATOM      9  C   UNL     1       2.598   4.414  18.812  0.00  0.00    +0.000 A 
ENDROOT
BRANCH   1  10
ATOM     10  C   UNL     1       3.686   6.322  17.612  0.00  0.00    +0.000 C 
BRANCH  10  16
ATOM     11  C   UNL     1       5.873   5.403  16.554  0.00  0.00    +0.000 A 
ATOM     12  C   UNL     1       7.157   4.858  16.753  0.00  0.00    +0.000 A 
ATOM     13  C   UNL     1       7.757   4.851  18.005  0.00  0.00    +0.000 A 
ATOM     14  C   UNL     1       7.076   5.374  19.089  0.00  0.00    +0.000 A 
ATOM     15  C   UNL     1       5.782   5.866  18.920  0.00  0.00    +0.000 A 
ATOM     16  C   UNL     1       5.133   5.865  17.653  0.00  0.00    +0.000 A 
BRANCH  11  18
ATOM     17  C   UNL     1       5.574   4.366  14.461  0.00  0.00    +0.000 C 
ATOM     18  O   UNL     1       5.326   5.509  15.292  0.00  0.00    +0.000 OA
ENDBRANCH  11  18
ENDBRANCH  10  16
ENDBRANCH   1  10
BRANCH   2  19
ATOM     19  C   UNL     1       2.146   7.881  19.941  0.00  0.00    +0.000 C 
BRANCH  19  20
ATOM     20  N   UNL     1       0.956   8.548  19.415  0.00  0.00    +0.000 NA
ATOM     21  H   UNL     1       0.099   8.231  19.876  0.00  0.00    +0.000 HD
BRANCH  20  22
ATOM     22  S   UNL     1       0.920  10.224  19.309  0.00  0.00    +0.000 S 
ATOM     23  O   UNL     1       0.958  10.823  20.624  0.00  0.00    +0.000 OA
ATOM     24  O   UNL     1       1.907  10.579  18.314  0.00  0.00    +0.000 OA
BRANCH  22  25
ATOM     25  C   UNL     1      -0.674  10.547  18.577  0.00  0.00    +0.000 A 
ATOM     26  C   UNL     1      -1.093   9.827  17.452  0.00  0.00    +0.000 A 
ATOM     27  C   UNL     1      -2.359  10.064  16.908  0.00  0.00    +0.000 A 
ATOM     28  C   UNL     1      -3.235  10.991  17.498  0.00  0.00    +0.000 A 
ATOM     29  C   UNL     1      -2.809  11.699  18.631  0.00  0.00    +0.000 A 
ATOM     30  C   UNL     1      -1.537  11.482  19.169  0.00  0.00    +0.000 A 
BRANCH  28  31
ATOM     31  C   UNL     1      -4.610  11.237  16.908  0.00  0.00    +0.000 C 
BRANCH  31  32
ATOM     32  C   UNL     1      -5.620  11.903  17.866  0.00  0.00    +0.000 C 
ATOM     33  C   UNL     1      -6.455  12.986  17.175  0.00  0.00    +0.000 C 
ATOM     34  C   UNL     1      -6.564  10.849  18.457  0.00  0.00    +0.000 C 
ENDBRANCH  31  32
ENDBRANCH  28  31
ENDBRANCH  22  25
ENDBRANCH  20  22
ENDBRANCH  19  20
ENDBRANCH   2  19
TORSDOF 9
ENDMDL
MODEL 3
REMARK VINA RESULT:      -8.4      1.423      3.601
REMARK  Name = 
REMARK  12 active torsions:
REMARK  status: ('A' for Active; 'I' for Inactive)
REMARK    1  A    between atoms: C_1  and  O_2
REMARK    2  A    between atoms: O_2  and  C_3
REMARK    3  A    between atoms: C_8  and  C_9
REMARK    4  A    between atoms: C_9  and  N_10
REMARK    5  A    between atoms: C_11  and  C_12
REMARK    6  A    between atoms: C_12  and  N_13
REMARK    7  A    between atoms: N_13  and  S_14
REMARK    8  A    between atoms: S_14  and  C_17
REMARK    9  A    between atoms: C_20  and  C_21
REMARK   10  A    between atoms: C_21  and  C_22
REMARK   11  A    between atoms: C_22  and  C_23
REMARK   12  A    between atoms: C_22  and  C_24
REMARK                            x       y       z     vdW  Elec       q    Type
REMARK                         _______ _______ _______ _____ _____    ______ ____
ROOT
ATOM      1  N   UNL     1       3.028   5.836  17.642  0.00  0.00    +0.000 N 
ATOM      2  C   UNL     1       3.111   7.159  18.049  0.00  0.00    +0.000 A 
ATOM      3  N   UNL     1       4.320   7.652  17.818  0.00  0.00    +0.000 NA
ATOM      4  C   UNL     1       5.045   6.618  17.298  0.00  0.00    +0.000 A 
ATOM      5  C   UNL     1       6.417   6.496  17.058  0.00  0.00    +0.000 A 
ATOM      6  C   UNL     1       6.881   5.252  16.628  0.00  0.00    +0.000 A 
ATOM      7  C   UNL     1       5.963   4.237  16.381  0.00  0.00    +0.000 A 
ATOM      8  N   UNL     1       4.624   4.315  16.573  0.00  0.00    +0.000 NA
ATOM      9  C   UNL     1       4.244   5.508  17.080  0.00  0.00    +0.000 A 
ENDROOT
BRANCH   1  10
ATOM     10  C   UNL     1       1.953   4.869  17.863  0.00  0.00    +0.000 C 
BRANCH  10  16
ATOM     11  C   UNL     1       2.479   2.711  19.211  0.00  0.00    +0.000 A 
ATOM     12  C   UNL     1       2.477   2.053  20.457  0.00  0.00    +0.000 A 
ATOM     13  C   UNL     1       2.252   2.741  21.641  0.00  0.00    +0.000 A 
ATOM     14  C   UNL     1       2.004   4.101  21.602  0.00  0.00    +0.000 A 
ATOM     15  C   UNL     1       1.946   4.758  20.372  0.00  0.00    +0.000 A 
ATOM     16  C   UNL     1       2.150   4.074  19.141  0.00  0.00    +0.000 A 
BRANCH  11  18
ATOM     17  C   UNL     1       3.881   1.105  18.212  0.00  0.00    +0.000 C 
ATOM     18  O   UNL     1       2.812   2.047  18.049  0.00  0.00    +0.000 OA
ENDBRANCH  11  18
ENDBRANCH  10  16
ENDBRANCH   1  10
BRANCH   2  19
ATOM     19  C   UNL     1       2.070   7.927  18.788  0.00  0.00    +0.000 C 
BRANCH  19  20
ATOM     20  N   UNL     1       1.573   9.121  18.105  0.00  0.00    +0.000 NA
ATOM     21  H   UNL     1       0.881   8.896  17.386  0.00  0.00    +0.000 HD
BRANCH  20  22
ATOM     22  S   UNL     1       1.007  10.421  19.007  0.00  0.00    +0.000 S 
ATOM     23  O   UNL     1       0.978  10.095  20.415  0.00  0.00    +0.000 OA
ATOM     24  O   UNL     1       1.737  11.577  18.537  0.00  0.00    +0.000 OA
BRANCH  22  25
ATOM     25  C   UNL     1      -0.670  10.612  18.429  0.00  0.00    +0.000 A 
ATOM     26  C   UNL     1      -1.512  11.567  19.011  0.00  0.00    +0.000 A 
ATOM     27  C   UNL     1      -2.814  11.732  18.526  0.00  0.00    +0.000 A 
ATOM     28  C   UNL     1      -3.278  10.977  17.436  0.00  0.00    +0.000 A 
ATOM     29  C   UNL     1      -2.422  10.030  16.854  0.00  0.00    +0.000 A 
ATOM     30  C   UNL     1      -1.126   9.845  17.346  0.00  0.00    +0.000 A 
BRANCH  28  31
ATOM     31  C   UNL     1      -4.687  11.166  16.910  0.00  0.00    +0.000 C 
BRANCH  31  32
ATOM     32  C   UNL     1      -5.656  11.872  17.884  0.00  0.00    +0.000 C 
ATOM     33  C   UNL     1      -6.405  13.034  17.223  0.00  0.00    +0.000 C 
ATOM     34  C   UNL     1      -6.679  10.869  18.434  0.00  0.00    +0.000 C 
ENDBRANCH  31  32
ENDBRANCH  28  31
ENDBRANCH  22  25
ENDBRANCH  20  22
ENDBRANCH  19  20
ENDBRANCH   2  19
TORSDOF 9
ENDMDL
MODEL 4
REMARK VINA RESULT:      -8.3      3.995      8.642
REMARK  Name = 
REMARK  12 active torsions:
REMARK  status: ('A' for Active; 'I' for Inactive)
REMARK    1  A    between atoms: C_1  and  O_2
REMARK    2  A    between atoms: O_2  and  C_3
REMARK    3  A    between atoms: C_8  and  C_9
REMARK    4  A    between atoms: C_9  and  N_10
REMARK    5  A    between atoms: C_11  and  C_12
REMARK    6  A    between atoms: C_12  and  N_13
REMARK    7  A    between atoms: N_13  and  S_14
REMARK    8  A    between atoms: S_14  and  C_17
REMARK    9  A    between atoms: C_20  and  C_21
REMARK   10  A    between atoms: C_21  and  C_22
REMARK   11  A    between atoms: C_22  and  C_23
REMARK   12  A    between atoms: C_22  and  C_24
REMARK                            x       y       z     vdW  Elec       q    Type
REMARK                         _______ _______ _______ _____ _____    ______ ____
ROOT
ATOM      1  N   UNL     1       2.809   6.377  19.503  0.00  0.00    +0.000 N 
ATOM      2  C   UNL     1       3.272   6.367  18.196  0.00  0.00    +0.000 A 
ATOM      3  N   UNL     1       2.925   7.478  17.562  0.00  0.00    +0.000 NA
ATOM      4  C   UNL     1       2.185   8.196  18.456  0.00  0.00    +0.000 A 
ATOM      5  C   UNL     1       1.398   9.339  18.278  0.00  0.00    +0.000 A 
ATOM      6  C   UNL     1       0.653   9.775  19.375  0.00  0.00    +0.000 A 
ATOM      7  C   UNL     1       0.791   9.116  20.591  0.00  0.00    +0.000 A 
ATOM      8  N   UNL     1       1.559   8.024  20.819  0.00  0.00    +0.000 NA
ATOM      9  C   UNL     1       2.181   7.589  19.701  0.00  0.00    +0.000 A 
ENDROOT
BRANCH   1  10
ATOM     10  C   UNL     1       2.813   5.299  20.492  0.00  0.00    +0.000 C 
BRANCH  10  16
ATOM     11  C   UNL     1       3.173   2.882  19.612  0.00  0.00    +0.000 A 
ATOM     12  C   UNL     1       2.646   1.773  18.921  0.00  0.00    +0.000 A 
ATOM     13  C   UNL     1       1.298   1.692  18.600  0.00  0.00    +0.000 A 
ATOM     14  C   UNL     1       0.451   2.728  18.949  0.00  0.00    +0.000 A 
ATOM     15  C   UNL     1       0.968   3.858  19.583  0.00  0.00    +0.000 A 
ATOM     16  C   UNL     1       2.349   3.979  19.904  0.00  0.00    +0.000 A 
BRANCH  11  18
ATOM     17  C   UNL     1       4.929   1.682  20.624  0.00  0.00    +0.000 C 
ATOM     18  O   UNL     1       4.489   2.910  20.026  0.00  0.00    +0.000 OA
ENDBRANCH  11  18
ENDBRANCH  10  16
ENDBRANCH   1  10
BRANCH   2  19
ATOM     19  C   UNL     1       3.940   5.231  17.501  0.00  0.00    +0.000 C 
BRANCH  19  20
ATOM     20  N   UNL     1       5.359   5.059  17.807  0.00  0.00    +0.000 NA
ATOM     21  H   UNL     1       5.576   4.105  18.109  0.00  0.00    +0.000 HD
BRANCH  20  22
ATOM     22  S   UNL     1       6.517   5.546  16.692  0.00  0.00    +0.000 S 
ATOM     23  O   UNL     1       7.497   4.504  16.482  0.00  0.00    +0.000 OA
ATOM     24  O   UNL     1       5.783   6.097  15.574  0.00  0.00    +0.000 OA
BRANCH  22  25
ATOM     25  C   UNL     1       7.308   6.922  17.506  0.00  0.00    +0.000 A 
ATOM     26  C   UNL     1       8.115   6.706  18.630  0.00  0.00    +0.000 A 
ATOM     27  C   UNL     1       8.758   7.788  19.240  0.00  0.00    +0.000 A 
ATOM     28  C   UNL     1       8.634   9.087  18.718  0.00  0.00    +0.000 A 
ATOM     29  C   UNL     1       7.832   9.289  17.586  0.00  0.00    +0.000 A 
ATOM     30  C   UNL     1       7.169   8.215  16.983  0.00  0.00    +0.000 A 
BRANCH  28  31
ATOM     31  C   UNL     1       9.341  10.254  19.379  0.00  0.00    +0.000 C 
BRANCH  31  32
ATOM     32  C   UNL     1       9.998  11.255  18.404  0.00  0.00    +0.000 C 
ATOM     33  C   UNL     1       9.203  12.559  18.280  0.00  0.00    +0.000 C 
ATOM     34  C   UNL     1      11.424  11.585  18.864  0.00  0.00    +0.000 C 
ENDBRANCH  31  32
ENDBRANCH  28  31
ENDBRANCH  22  25
ENDBRANCH  20  22
ENDBRANCH  19  20
ENDBRANCH   2  19
TORSDOF 9
ENDMDL
MODEL 5
REMARK VINA RESULT:      -8.3      3.742      8.823
REMARK  Name = 
REMARK  12 active torsions:
REMARK  status: ('A' for Active; 'I' for Inactive)
REMARK    1  A    between atoms: C_1  and  O_2
REMARK    2  A    between atoms: O_2  and  C_3
REMARK    3  A    between atoms: C_8  and  C_9
REMARK    4  A    between atoms: C_9  and  N_10
REMARK    5  A    between atoms: C_11  and  C_12
REMARK    6  A    between atoms: C_12  and  N_13
REMARK    7  A    between atoms: N_13  and  S_14
REMARK    8  A    between atoms: S_14  and  C_17
REMARK    9  A    between atoms: C_20  and  C_21
REMARK   10  A    between atoms: C_21  and  C_22
REMARK   11  A    between atoms: C_22  and  C_23
REMARK   12  A    between atoms: C_22  and  C_24
REMARK                            x       y       z     vdW  Elec       q    Type
REMARK                         _______ _______ _______ _____ _____    ______ ____
ROOT
ATOM      1  N   UNL     1       2.915   5.121  19.561  0.00  0.00    +0.000 N 
ATOM      2  C   UNL     1       4.127   4.867  18.937  0.00  0.00    +0.000 A 
ATOM      3  N   UNL     1       4.103   3.696  18.315  0.00  0.00    +0.000 NA
ATOM      4  C   UNL     1       2.875   3.163  18.580  0.00  0.00    +0.000 A 
ATOM      5  C   UNL     1       2.371   1.878  18.357  0.00  0.00    +0.000 A 
ATOM      6  C   UNL     1       1.099   1.597  18.858  0.00  0.00    +0.000 A 
ATOM      7  C   UNL     1       0.372   2.614  19.466  0.00  0.00    +0.000 A 
ATOM      8  N   UNL     1       0.806   3.879  19.682  0.00  0.00    +0.000 NA
ATOM      9  C   UNL     1       2.077   4.067  19.264  0.00  0.00    +0.000 A 
ENDROOT
BRANCH   1  10
ATOM     10  C   UNL     1       2.563   6.195  20.489  0.00  0.00    +0.000 C 
BRANCH  10  16
ATOM     11  C   UNL     1       1.406   8.516  20.336  0.00  0.00    +0.000 A 
ATOM     12  C   UNL     1       0.936   9.563  19.518  0.00  0.00    +0.000 A 
ATOM     13  C   UNL     1       1.258   9.631  18.169  0.00  0.00    +0.000 A 
ATOM     14  C   UNL     1       2.044   8.642  17.606  0.00  0.00    +0.000 A 
ATOM     15  C   UNL     1       2.470   7.569  18.389  0.00  0.00    +0.000 A 
ATOM     16  C   UNL     1       2.137   7.461  19.768  0.00  0.00    +0.000 A 
BRANCH  11  18
ATOM     17  C   UNL     1      -0.188   8.772  22.050  0.00  0.00    +0.000 C 
ATOM     18  O   UNL     1       1.178   8.510  21.696  0.00  0.00    +0.000 OA
ENDBRANCH  11  18
ENDBRANCH  10  16
ENDBRANCH   1  10
BRANCH   2  19
ATOM     19  C   UNL     1       5.368   5.684  19.043  0.00  0.00    +0.000 C 
BRANCH  19  20
ATOM     20  N   UNL     1       5.751   6.397  17.825  0.00  0.00    +0.000 NA
ATOM     21  H   UNL     1       5.546   7.398  17.882  0.00  0.00    +0.000 HD
BRANCH  20  22
ATOM     22  S   UNL     1       7.297   6.201  17.197  0.00  0.00    +0.000 S 
ATOM     23  O   UNL     1       7.942   7.481  17.012  0.00  0.00    +0.000 OA
ATOM     24  O   UNL     1       7.923   5.174  17.999  0.00  0.00    +0.000 OA
BRANCH  22  25
ATOM     25  C   UNL     1       6.992   5.476  15.596  0.00  0.00    +0.000 A 
ATOM     26  C   UNL     1       7.942   5.598  14.574  0.00  0.00    +0.000 A 
ATOM     27  C   UNL     1       7.707   4.996  13.334  0.00  0.00    +0.000 A 
ATOM     28  C   UNL     1       6.546   4.238  13.108  0.00  0.00    +0.000 A 
ATOM     29  C   UNL     1       5.606   4.114  14.142  0.00  0.00    +0.000 A 
ATOM     30  C   UNL     1       5.824   4.730  15.379  0.00  0.00    +0.000 A 
BRANCH  28  31
ATOM     31  C   UNL     1       6.302   3.581  11.764  0.00  0.00    +0.000 C 
BRANCH  31  32
ATOM     32  C   UNL     1       5.229   2.471  11.766  0.00  0.00    +0.000 C 
ATOM     33  C   UNL     1       3.976   2.867  10.978  0.00  0.00    +0.000 C 
ATOM     34  C   UNL     1       5.803   1.178  11.171  0.00  0.00    +0.000 C 
ENDBRANCH  31  32
ENDBRANCH  28  31
ENDBRANCH  22  25
ENDBRANCH  20  22
ENDBRANCH  19  20
ENDBRANCH   2  19
TORSDOF 9
ENDMDL
MODEL 6
REMARK VINA RESULT:      -8.2      3.400      8.754
REMARK  Name = 
REMARK  12 active torsions:
REMARK  status: ('A' for Active; 'I' for Inactive)
REMARK    1  A    between atoms: C_1  and  O_2
REMARK    2  A    between atoms: O_2  and  C_3
REMARK    3  A    between atoms: C_8  and  C_9
REMARK    4  A    between atoms: C_9  and  N_10
REMARK    5  A    between atoms: C_11  and  C_12
REMARK    6  A    between atoms: C_12  and  N_13
REMARK    7  A    between atoms: N_13  and  S_14
REMARK    8  A    between atoms: S_14  and  C_17
REMARK    9  A    between atoms: C_20  and  C_21
REMARK   10  A    between atoms: C_21  and  C_22
REMARK   11  A    between atoms: C_22  and  C_23
REMARK   12  A    between atoms: C_22  and  C_24
REMARK                            x       y       z     vdW  Elec       q    Type
REMARK                         _______ _______ _______ _____ _____    ______ ____
ROOT
ATOM      1  N   UNL     1       2.696   5.747  18.916  0.00  0.00    +0.000 N 
ATOM      2  C   UNL     1       3.286   5.463  17.693  0.00  0.00    +0.000 A 
ATOM      3  N   UNL     1       2.950   4.250  17.276  0.00  0.00    +0.000 NA
ATOM      4  C   UNL     1       2.171   3.723  18.266  0.00  0.00    +0.000 A 
ATOM      5  C   UNL     1       1.707   2.418  18.463  0.00  0.00    +0.000 A 
ATOM      6  C   UNL     1       1.023   2.160  19.652  0.00  0.00    +0.000 A 
ATOM      7  C   UNL     1       0.766   3.210  20.527  0.00  0.00    +0.000 A 
ATOM      8  N   UNL     1       1.171   4.492  20.367  0.00  0.00    +0.000 NA
ATOM      9  C   UNL     1       1.910   4.664  19.249  0.00  0.00    +0.000 A 
ENDROOT
BRANCH   1  10
ATOM     10  C   UNL     1       2.927   6.882  19.809  0.00  0.00    +0.000 C 
BRANCH  10  16
ATOM     11  C   UNL     1       1.194   8.717  20.423  0.00  0.00    +0.000 A 
ATOM     12  C   UNL     1       0.274   9.686  19.976  0.00  0.00    +0.000 A 
ATOM     13  C   UNL     1       0.221  10.077  18.645  0.00  0.00    +0.000 A 
ATOM     14  C   UNL     1       1.076   9.492  17.729  0.00  0.00    +0.000 A 
ATOM     15  C   UNL     1       1.953   8.491  18.144  0.00  0.00    +0.000 A 
ATOM     16  C   UNL     1       2.014   8.054  19.497  0.00  0.00    +0.000 A 
BRANCH  11  18
ATOM     17  C   UNL     1       0.616   9.314  22.627  0.00  0.00    +0.000 C 
ATOM     18  O   UNL     1       1.321   8.411  21.762  0.00  0.00    +0.000 OA
ENDBRANCH  11  18
ENDBRANCH  10  16
ENDBRANCH   1  10
BRANCH   2  19
ATOM     19  C   UNL     1       4.286   6.301  16.974  0.00  0.00    +0.000 C 
BRANCH  19  20
ATOM     20  N   UNL     1       5.356   5.560  16.307  0.00  0.00    +0.000 NA
ATOM     21  H   UNL     1       5.702   6.046  15.475  0.00  0.00    +0.000 HD
BRANCH  20  22
ATOM     22  S   UNL     1       6.673   5.017  17.198  0.00  0.00    +0.000 S 
ATOM     23  O   UNL     1       6.236   4.284  18.365  0.00  0.00    +0.000 OA
ATOM     24  O   UNL     1       7.572   4.407  16.244  0.00  0.00    +0.000 OA
BRANCH  22  25
ATOM     25  C   UNL     1       7.451   6.531  17.730  0.00  0.00    +0.000 A 
ATOM     26  C   UNL     1       7.318   7.699  16.968  0.00  0.00    +0.000 A 
ATOM     27  C   UNL     1       7.903   8.888  17.413  0.00  0.00    +0.000 A 
ATOM     28  C   UNL     1       8.594   8.938  18.635  0.00  0.00    +0.000 A 
ATOM     29  C   UNL     1       8.713   7.766  19.395  0.00  0.00    +0.000 A 
ATOM     30  C   UNL     1       8.148   6.567  18.947  0.00  0.00    +0.000 A 
BRANCH  28  31
ATOM     31  C   UNL     1       9.219  10.233  19.115  0.00  0.00    +0.000 C 
BRANCH  31  32
ATOM     32  C   UNL     1       9.543  11.252  18.001  0.00  0.00    +0.000 C 
ATOM     33  C   UNL     1       8.761  12.560  18.160  0.00  0.00    +0.000 C 
ATOM     34  C   UNL     1      11.044  11.569  17.992  0.00  0.00    +0.000 C 
ENDBRANCH  31  32
ENDBRANCH  28  31
ENDBRANCH  22  25
ENDBRANCH  20  22
ENDBRANCH  19  20
ENDBRANCH   2  19
TORSDOF 9
ENDMDL
MODEL 7
REMARK VINA RESULT:      -8.2      1.243      1.865
REMARK  Name = 
REMARK  12 active torsions:
REMARK  status: ('A' for Active; 'I' for Inactive)
REMARK    1  A    between atoms: C_1  and  O_2
REMARK    2  A    between atoms: O_2  and  C_3
REMARK    3  A    between atoms: C_8  and  C_9
REMARK    4  A    between atoms: C_9  and  N_10
REMARK    5  A    between atoms: C_11  and  C_12
REMARK    6  A    between atoms: C_12  and  N_13
REMARK    7  A    between atoms: N_13  and  S_14
REMARK    8  A    between atoms: S_14  and  C_17
REMARK    9  A    between atoms: C_20  and  C_21
REMARK   10  A    between atoms: C_21  and  C_22
REMARK   11  A    between atoms: C_22  and  C_23
REMARK   12  A    between atoms: C_22  and  C_24
REMARK                            x       y       z     vdW  Elec       q    Type
REMARK                         _______ _______ _______ _____ _____    ______ ____
ROOT
ATOM      1  N   UNL     1       3.718   5.758  18.720  0.00  0.00    +0.000 N 
ATOM      2  C   UNL     1       2.616   6.562  18.469  0.00  0.00    +0.000 A 
ATOM      3  N   UNL     1       1.495   5.855  18.501  0.00  0.00    +0.000 NA
ATOM      4  C   UNL     1       1.881   4.565  18.729  0.00  0.00    +0.000 A 
ATOM      5  C   UNL     1       1.156   3.371  18.662  0.00  0.00    +0.000 A 
ATOM      6  C   UNL     1       1.868   2.183  18.831  0.00  0.00    +0.000 A 
ATOM      7  C   UNL     1       3.223   2.245  19.138  0.00  0.00    +0.000 A 
ATOM      8  N   UNL     1       3.962   3.376  19.241  0.00  0.00    +0.000 NA
ATOM      9  C   UNL     1       3.243   4.488  18.972  0.00  0.00    +0.000 A 
ENDROOT
BRANCH   1  10
ATOM     10  C   UNL     1       5.140   6.082  18.612  0.00  0.00    +0.000 C 
BRANCH  10  16
ATOM     11  C   UNL     1       6.971   4.806  17.282  0.00  0.00    +0.000 A 
ATOM     12  C   UNL     1       7.520   4.473  16.028  0.00  0.00    +0.000 A 
ATOM     13  C   UNL     1       6.847   4.747  14.845  0.00  0.00    +0.000 A 
ATOM     14  C   UNL     1       5.617   5.377  14.891  0.00  0.00    +0.000 A 
ATOM     15  C   UNL     1       5.085   5.764  16.121  0.00  0.00    +0.000 A 
ATOM     16  C   UNL     1       5.762   5.517  17.348  0.00  0.00    +0.000 A 
BRANCH  11  18
ATOM     17  C   UNL     1       8.148   5.536  19.186  0.00  0.00    +0.000 C 
ATOM     18  O   UNL     1       7.588   4.434  18.458  0.00  0.00    +0.000 OA
ENDBRANCH  11  18
ENDBRANCH  10  16
ENDBRANCH   1  10
BRANCH   2  19
ATOM     19  C   UNL     1       2.638   7.995  18.062  0.00  0.00    +0.000 C 
BRANCH  19  20
ATOM     20  N   UNL     1       1.326   8.620  17.906  0.00  0.00    +0.000 NA
ATOM     21  H   UNL     1       0.564   7.938  17.955  0.00  0.00    +0.000 HD
BRANCH  20  22
ATOM     22  S   UNL     1       0.918   9.949  18.850  0.00  0.00    +0.000 S 
ATOM     23  O   UNL     1       0.856   9.585  20.248  0.00  0.00    +0.000 OA
ATOM     24  O   UNL     1       1.778  11.025  18.411  0.00  0.00    +0.000 OA
BRANCH  22  25
ATOM     25  C   UNL     1      -0.726  10.353  18.289  0.00  0.00    +0.000 A 
ATOM     26  C   UNL     1      -1.444  11.390  18.897  0.00  0.00    +0.000 A 
ATOM     27  C   UNL     1      -2.718  11.721  18.426  0.00  0.00    +0.000 A 
ATOM     28  C   UNL     1      -3.276  11.050  17.324  0.00  0.00    +0.000 A 
ATOM     29  C   UNL     1      -2.544  10.020  16.716  0.00  0.00    +0.000 A 
ATOM     30  C   UNL     1      -1.277   9.669  17.195  0.00  0.00    +0.000 A 
BRANCH  28  31
ATOM     31  C   UNL     1      -4.655  11.419  16.813  0.00  0.00    +0.000 C 
BRANCH  31  32
ATOM     32  C   UNL     1      -5.637  11.922  17.894  0.00  0.00    +0.000 C 
ATOM     33  C   UNL     1      -6.594  12.993  17.361  0.00  0.00    +0.000 C 
ATOM     34  C   UNL     1      -6.459  10.751  18.447  0.00  0.00    +0.000 C 
ENDBRANCH  31  32
ENDBRANCH  28  31
ENDBRANCH  22  25
ENDBRANCH  20  22
ENDBRANCH  19  20
ENDBRANCH   2  19
TORSDOF 9
ENDMDL
MODEL 8
REMARK VINA RESULT:      -8.2      2.499      3.341
REMARK  Name = 
REMARK  12 active torsions:
REMARK  status: ('A' for Active; 'I' for Inactive)
REMARK    1  A    between atoms: C_1  and  O_2
REMARK    2  A    between atoms: O_2  and  C_3
REMARK    3  A    between atoms: C_8  and  C_9
REMARK    4  A    between atoms: C_9  and  N_10
REMARK    5  A    between atoms: C_11  and  C_12
REMARK    6  A    between atoms: C_12  and  N_13
REMARK    7  A    between atoms: N_13  and  S_14
REMARK    8  A    between atoms: S_14  and  C_17
REMARK    9  A    between atoms: C_20  and  C_21
REMARK   10  A    between atoms: C_21  and  C_22
REMARK   11  A    between atoms: C_22  and  C_23
REMARK   12  A    between atoms: C_22  and  C_24
REMARK                            x       y       z     vdW  Elec       q    Type
REMARK                         _______ _______ _______ _____ _____    ______ ____
ROOT
ATOM      1  N   UNL     1       2.862   5.701  18.865  0.00  0.00    +0.000 N 
ATOM      2  C   UNL     1       2.135   6.340  19.857  0.00  0.00    +0.000 A 
ATOM      3  N   UNL     1       1.435   5.467  20.569  0.00  0.00    +0.000 NA
ATOM      4  C   UNL     1       1.673   4.251  19.997  0.00  0.00    +0.000 A 
ATOM      5  C   UNL     1       1.053   3.013  20.195  0.00  0.00    +0.000 A 
ATOM      6  C   UNL     1       1.443   1.965  19.359  0.00  0.00    +0.000 A 
ATOM      7  C   UNL     1       2.470   2.175  18.446  0.00  0.00    +0.000 A 
ATOM      8  N   UNL     1       3.118   3.346  18.236  0.00  0.00    +0.000 NA
ATOM      9  C   UNL     1       2.634   4.347  19.003  0.00  0.00    +0.000 A 
ENDROOT
BRANCH   1  10
ATOM     10  C   UNL     1       3.623   6.282  17.759  0.00  0.00    +0.000 C 
BRANCH  10  16
ATOM     11  C   UNL     1       5.722   5.207  16.669  0.00  0.00    +0.000 A 
ATOM     12  C   UNL     1       7.016   4.678  16.840  0.00  0.00    +0.000 A 
ATOM     13  C   UNL     1       7.710   4.829  18.033  0.00  0.00    +0.000 A 
ATOM     14  C   UNL     1       7.115   5.498  19.087  0.00  0.00    +0.000 A 
ATOM     15  C   UNL     1       5.812   5.978  18.953  0.00  0.00    +0.000 A 
ATOM     16  C   UNL     1       5.068   5.818  17.751  0.00  0.00    +0.000 A 
BRANCH  11  18
ATOM     17  C   UNL     1       5.742   4.317  14.489  0.00  0.00    +0.000 C 
ATOM     18  O   UNL     1       5.079   5.152  15.449  0.00  0.00    +0.000 OA
ENDBRANCH  11  18
ENDBRANCH  10  16
ENDBRANCH   1  10
BRANCH   2  19
ATOM     19  C   UNL     1       2.001   7.811  20.051  0.00  0.00    +0.000 C 
BRANCH  19  20
ATOM     20  N   UNL     1       1.878   8.249  21.441  0.00  0.00    +0.000 NA
ATOM     21  H   UNL     1       2.676   8.815  21.740  0.00  0.00    +0.000 HD
BRANCH  20  22
ATOM     22  S   UNL     1       0.465   8.999  21.955  0.00  0.00    +0.000 S 
ATOM     23  O   UNL     1      -0.681   8.149  21.726  0.00  0.00    +0.000 OA
ATOM     24  O   UNL     1       0.747   9.508  23.279  0.00  0.00    +0.000 OA
BRANCH  22  25
ATOM     25  C   UNL     1       0.350  10.419  20.881  0.00  0.00    +0.000 A 
ATOM     26  C   UNL     1      -0.774  10.595  20.063  0.00  0.00    +0.000 A 
ATOM     27  C   UNL     1      -0.869  11.729  19.251  0.00  0.00    +0.000 A 
ATOM     28  C   UNL     1       0.131  12.717  19.272  0.00  0.00    +0.000 A 
ATOM     29  C   UNL     1       1.246  12.535  20.102  0.00  0.00    +0.000 A 
ATOM     30  C   UNL     1       1.359  11.393  20.902  0.00  0.00    +0.000 A 
BRANCH  28  31
ATOM     31  C   UNL     1       0.016  13.948  18.395  0.00  0.00    +0.000 C 
BRANCH  31  32
ATOM     32  C   UNL     1       0.420  15.273  19.077  0.00  0.00    +0.000 C 
ATOM     33  C   UNL     1       1.809  15.754  18.646  0.00  0.00    +0.000 C 
ATOM     34  C   UNL     1      -0.606  16.368  18.757  0.00  0.00    +0.000 C 
ENDBRANCH  31  32
ENDBRANCH  28  31
ENDBRANCH  22  25
ENDBRANCH  20  22
ENDBRANCH  19  20
ENDBRANCH   2  19
TORSDOF 9
ENDMDL
MODEL 9
REMARK VINA RESULT:      -8.2      1.268      1.966
REMARK  Name = 
REMARK  12 active torsions:
REMARK  status: ('A' for Active; 'I' for Inactive)
REMARK    1  A    between atoms: C_1  and  O_2
REMARK    2  A    between atoms: O_2  and  C_3
REMARK    3  A    between atoms: C_8  and  C_9
REMARK    4  A    between atoms: C_9  and  N_10
REMARK    5  A    between atoms: C_11  and  C_12
REMARK    6  A    between atoms: C_12  and  N_13
REMARK    7  A    between atoms: N_13  and  S_14
REMARK    8  A    between atoms: S_14  and  C_17
REMARK    9  A    between atoms: C_20  and  C_21
REMARK   10  A    between atoms: C_21  and  C_22
REMARK   11  A    between atoms: C_22  and  C_23
REMARK   12  A    between atoms: C_22  and  C_24
REMARK                            x       y       z     vdW  Elec       q    Type
REMARK                         _______ _______ _______ _____ _____    ______ ____
ROOT
ATOM      1  N   UNL     1       3.680   5.735  19.461  0.00  0.00    +0.000 N 
ATOM      2  C   UNL     1       2.655   6.610  19.134  0.00  0.00    +0.000 A 
ATOM      3  N   UNL     1       1.478   6.119  19.494  0.00  0.00    +0.000 NA
ATOM      4  C   UNL     1       1.739   4.885  20.018  0.00  0.00    +0.000 A 
ATOM      5  C   UNL     1       0.876   3.841  20.368  0.00  0.00    +0.000 A 
ATOM      6  C   UNL     1       1.461   2.639  20.768  0.00  0.00    +0.000 A 
ATOM      7  C   UNL     1       2.845   2.565  20.880  0.00  0.00    +0.000 A 
ATOM      8  N   UNL     1       3.720   3.555  20.579  0.00  0.00    +0.000 NA
ATOM      9  C   UNL     1       3.104   4.660  20.106  0.00  0.00    +0.000 A 
ENDROOT
BRANCH   1  10
ATOM     10  C   UNL     1       5.095   5.794  19.097  0.00  0.00    +0.000 C 
BRANCH  10  16
ATOM     11  C   UNL     1       5.818   6.278  16.649  0.00  0.00    +0.000 A 
ATOM     12  C   UNL     1       5.841   5.852  15.306  0.00  0.00    +0.000 A 
ATOM     13  C   UNL     1       5.482   4.560  14.948  0.00  0.00    +0.000 A 
ATOM     14  C   UNL     1       5.074   3.671  15.925  0.00  0.00    +0.000 A 
ATOM     15  C   UNL     1       4.991   4.093  17.252  0.00  0.00    +0.000 A 
ATOM     16  C   UNL     1       5.331   5.418  17.646  0.00  0.00    +0.000 A 
BRANCH  11  18
ATOM     17  C   UNL     1       7.640   7.522  17.473  0.00  0.00    +0.000 C 
ATOM     18  O   UNL     1       6.280   7.525  17.015  0.00  0.00    +0.000 OA
ENDBRANCH  11  18
ENDBRANCH  10  16
ENDBRANCH   1  10
BRANCH   2  19
ATOM     19  C   UNL     1       2.782   7.872  18.351  0.00  0.00    +0.000 C 
BRANCH  19  20
ATOM     20  N   UNL     1       1.521   8.547  18.048  0.00  0.00    +0.000 NA
ATOM     21  H   UNL     1       0.725   7.905  18.063  0.00  0.00    +0.000 HD
BRANCH  20  22
ATOM     22  S   UNL     1       1.102   9.943  18.884  0.00  0.00    +0.000 S 
ATOM     23  O   UNL     1       1.016   9.684  20.304  0.00  0.00    +0.000 OA
ATOM     24  O   UNL     1       1.971  10.983  18.380  0.00  0.00    +0.000 OA
BRANCH  22  25
ATOM     25  C   UNL     1      -0.532  10.306  18.268  0.00  0.00    +0.000 A 
ATOM     26  C   UNL     1      -1.039   9.612  17.162  0.00  0.00    +0.000 A 
ATOM     27  C   UNL     1      -2.334   9.881  16.709  0.00  0.00    +0.000 A 
ATOM     28  C   UNL     1      -3.151  10.813  17.371  0.00  0.00    +0.000 A 
ATOM     29  C   UNL     1      -2.637  11.494  18.483  0.00  0.00    +0.000 A 
ATOM     30  C   UNL     1      -1.335  11.246  18.930  0.00  0.00    +0.000 A 
BRANCH  28  31
ATOM     31  C   UNL     1      -4.557  11.093  16.879  0.00  0.00    +0.000 C 
BRANCH  31  32
ATOM     32  C   UNL     1      -5.469  11.819  17.892  0.00  0.00    +0.000 C 
ATOM     33  C   UNL     1      -6.255  12.968  17.252  0.00  0.00    +0.000 C 
ATOM     34  C   UNL     1      -6.458  10.828  18.519  0.00  0.00    +0.000 C 
ENDBRANCH  31  32
ENDBRANCH  28  31
ENDBRANCH  22  25
ENDBRANCH  20  22
ENDBRANCH  19  20
ENDBRANCH   2  19
TORSDOF 9
ENDMDL
