MODEL 1
REMARK VINA RESULT:      -7.9      0.000      0.000
REMARK  Name = 
REMARK  8 active torsions:
REMARK  status: ('A' for Active; 'I' for Inactive)
REMARK    1  A    between atoms: C_1  and  C_2
REMARK    2  A    between atoms: C_2  and  C_3
REMARK    3  A    between atoms: C_3  and  C_4
REMARK    4  A    between atoms: C_4  and  C_5
REMARK    5  A    between atoms: C_5  and  N_6
REMARK    6  A    between atoms: C_12  and  O_13
REMARK    7  A    between atoms: O_13  and  C_14
REMARK    8  A    between atoms: C_17  and  C_18
REMARK                            x       y       z     vdW  Elec       q    Type
REMARK                         _______ _______ _______ _____ _____    ______ ____
ROOT
ATOM      1  N   UNL     1      -0.844  10.411  19.612  0.00  0.00    +0.000 NA
ATOM      2  C   UNL     1      -1.019  10.136  21.058  0.00  0.00    +0.000 C 
ATOM      3  C   UNL     1      -0.357   8.876  21.633  0.00  0.00    +0.000 C 
ATOM      4  C   UNL     1       1.167   8.913  21.589  0.00  0.00    +0.000 C 
ATOM      5  C   UNL     1       1.631   8.498  20.220  0.00  0.00    +0.000 A 
ATOM      6  C   UNL     1       2.268   7.261  20.046  0.00  0.00    +0.000 A 
ATOM      7  C   UNL     1       2.586   6.803  18.769  0.00  0.00    +0.000 A 
ATOM      8  C   UNL     1       2.264   7.578  17.654  0.00  0.00    +0.000 A 
ATOM      9  C   UNL     1       1.651   8.818  17.820  0.00  0.00    +0.000 A 
ATOM     10  C   UNL     1       1.316   9.287  19.100  0.00  0.00    +0.000 A 
ATOM     11  C   UNL     1       0.571  10.599  19.247  0.00  0.00    +0.000 C 
ENDROOT
BRANCH   1  12
ATOM     12  C   UNL     1      -1.667  11.594  19.273  0.00  0.00    +0.000 C 
BRANCH  12  13
ATOM     13  C   UNL     1      -2.731  11.429  18.177  0.00  0.00    +0.000 C 
BRANCH  13  14
ATOM     14  C   UNL     1      -3.034   9.979  17.790  0.00  0.00    +0.000 C 
BRANCH  14  16
ATOM     15  C   UNL     1      -2.924  10.899  15.429  0.00  0.00    +0.000 C 
ATOM     16  C   UNL     1      -2.606   9.729  16.341  0.00  0.00    +0.000 C 
ENDBRANCH  14  16
ENDBRANCH  13  14
ENDBRANCH  12  13
ENDBRANCH   1  12
BRANCH   7  17
ATOM     17  O   UNL     1       3.096   5.531  18.681  0.00  0.00    +0.000 OA
BRANCH  17  18
ATOM     18  C   UNL     1       4.056   5.274  17.714  0.00  0.00    +0.000 A 
ATOM     19  C   UNL     1       5.008   6.264  17.513  0.00  0.00    +0.000 A 
ATOM     20  C   UNL     1       5.942   6.089  16.492  0.00  0.00    +0.000 A 
ATOM     21  C   UNL     1       5.886   4.933  15.711  0.00  0.00    +0.000 A 
ATOM     22  C   UNL     1       4.924   3.980  16.015  0.00  0.00    +0.000 A 
ATOM     23  N   UNL     1       3.993   4.138  16.980  0.00  0.00    +0.000 NA
BRANCH  21  24
ATOM     24  C   UNL     1       6.775   4.691  14.559  0.00  0.00    +0.000 C 
ATOM     25  N   UNL     1       6.472   3.631  13.756  0.00  0.00    +0.000 N 
ATOM     26  O   UNL     1       7.779   5.368  14.370  0.00  0.00    +0.000 OA
ATOM     27  H   UNL     1       5.816   2.914  14.035  0.00  0.00    +0.000 HD
ATOM     28  H   UNL     1       7.178   3.371  13.078  0.00  0.00    +0.000 HD
ENDBRANCH  21  24
ENDBRANCH  17  18
ENDBRANCH   7  17
TORSDOF 7
ENDMDL
MODEL 2
REMARK VINA RESULT:      -7.8      2.714      8.456
REMARK  Name = 
REMARK  8 active torsions:
REMARK  status: ('A' for Active; 'I' for Inactive)
REMARK    1  A    between atoms: C_1  and  C_2
REMARK    2  A    between atoms: C_2  and  C_3
REMARK    3  A    between atoms: C_3  and  C_4
REMARK    4  A    between atoms: C_4  and  C_5
REMARK    5  A    between atoms: C_5  and  N_6
REMARK    6  A    between atoms: C_12  and  O_13
REMARK    7  A    between atoms: O_13  and  C_14
REMARK    8  A    between atoms: C_17  and  C_18
REMARK                            x       y       z     vdW  Elec       q    Type
REMARK                         _______ _______ _______ _____ _____    ______ ____
ROOT
ATOM      1  N   UNL     1       6.124   5.083  15.571  0.00  0.00    +0.000 NA
ATOM      2  C   UNL     1       7.292   5.653  16.282  0.00  0.00    +0.000 C 
ATOM      3  C   UNL     1       7.055   6.280  17.664  0.00  0.00    +0.000 C 
ATOM      4  C   UNL     1       6.610   5.276  18.722  0.00  0.00    +0.000 C 
ATOM      5  C   UNL     1       5.128   5.054  18.599  0.00  0.00    +0.000 A 
ATOM      6  C   UNL     1       4.266   5.549  19.588  0.00  0.00    +0.000 A 
ATOM      7  C   UNL     1       2.884   5.469  19.425  0.00  0.00    +0.000 A 
ATOM      8  C   UNL     1       2.353   4.897  18.269  0.00  0.00    +0.000 A 
ATOM      9  C   UNL     1       3.204   4.382  17.292  0.00  0.00    +0.000 A 
ATOM     10  C   UNL     1       4.598   4.466  17.437  0.00  0.00    +0.000 A 
ATOM     11  C   UNL     1       5.499   3.979  16.321  0.00  0.00    +0.000 C 
ENDROOT
BRANCH   1  12
ATOM     12  C   UNL     1       6.574   4.657  14.227  0.00  0.00    +0.000 C 
BRANCH  12  13
ATOM     13  C   UNL     1       5.640   3.740  13.423  0.00  0.00    +0.000 C 
BRANCH  13  14
ATOM     14  C   UNL     1       6.325   2.942  12.311  0.00  0.00    +0.000 C 
BRANCH  14  16
ATOM     15  C   UNL     1       4.011   3.233  11.313  0.00  0.00    +0.000 C 
ATOM     16  C   UNL     1       5.273   2.389  11.345  0.00  0.00    +0.000 C 
ENDBRANCH  14  16
ENDBRANCH  13  14
ENDBRANCH  12  13
ENDBRANCH   1  12
BRANCH   7  17
ATOM     17  O   UNL     1       2.115   6.086  20.382  0.00  0.00    +0.000 OA
BRANCH  17  18
ATOM     18  C   UNL     1       1.747   7.407  20.175  0.00  0.00    +0.000 A 
ATOM     19  C   UNL     1       1.067   8.027  21.213  0.00  0.00    +0.000 A 
ATOM     20  C   UNL     1       0.600   9.327  21.019  0.00  0.00    +0.000 A 
ATOM     21  C   UNL     1       0.831   9.955  19.793  0.00  0.00    +0.000 A 
ATOM     22  C   UNL     1       1.557   9.270  18.830  0.00  0.00    +0.000 A 
ATOM     23  N   UNL     1       1.996   8.001  18.984  0.00  0.00    +0.000 NA
BRANCH  21  24
ATOM     24  C   UNL     1       0.311  11.294  19.459  0.00  0.00    +0.000 C 
ATOM     25  N   UNL     1      -0.169  11.474  18.195  0.00  0.00    +0.000 N 
ATOM     26  O   UNL     1       0.369  12.223  20.258  0.00  0.00    +0.000 OA
ATOM     27  H   UNL     1       0.010  10.812  17.451  0.00  0.00    +0.000 HD
ATOM     28  H   UNL     1      -0.360  12.431  17.925  0.00  0.00    +0.000 HD
ENDBRANCH  21  24
ENDBRANCH  17  18
ENDBRANCH   7  17
TORSDOF 7
ENDMDL
MODEL 3
REMARK VINA RESULT:      -7.8      2.905      8.333
REMARK  Name = 
REMARK  8 active torsions:
REMARK  status: ('A' for Active; 'I' for Inactive)
REMARK    1  A    between atoms: C_1  and  C_2
REMARK    2  A    between atoms: C_2  and  C_3
REMARK    3  A    between atoms: C_3  and  C_4
REMARK    4  A    between atoms: C_4  and  C_5
REMARK    5  A    between atoms: C_5  and  N_6
REMARK    6  A    between atoms: C_12  and  O_13
REMARK    7  A    between atoms: O_13  and  C_14
REMARK    8  A    between atoms: C_17  and  C_18
REMARK                            x       y       z     vdW  Elec       q    Type
REMARK                         _______ _______ _______ _____ _____    ______ ____
ROOT
ATOM      1  N   UNL     1       6.093   4.589  15.916  0.00  0.00    +0.000 NA
ATOM      2  C   UNL     1       7.267   5.054  16.692  0.00  0.00    +0.000 C 
ATOM      3  C   UNL     1       7.005   5.849  17.980  0.00  0.00    +0.000 C 
ATOM      4  C   UNL     1       6.318   5.035  19.071  0.00  0.00    +0.000 C 
ATOM      5  C   UNL     1       4.836   5.019  18.814  0.00  0.00    +0.000 A 
ATOM      6  C   UNL     1       3.975   5.733  19.659  0.00  0.00    +0.000 A 
ATOM      7  C   UNL     1       2.618   5.837  19.360  0.00  0.00    +0.000 A 
ATOM      8  C   UNL     1       2.111   5.231  18.210  0.00  0.00    +0.000 A 
ATOM      9  C   UNL     1       2.957   4.501  17.377  0.00  0.00    +0.000 A 
ATOM     10  C   UNL     1       4.328   4.396  17.660  0.00  0.00    +0.000 A 
ATOM     11  C   UNL     1       5.240   3.670  16.692  0.00  0.00    +0.000 C 
ENDROOT
BRANCH   1  12
ATOM     12  C   UNL     1       6.592   3.966  14.670  0.00  0.00    +0.000 C 
BRANCH  12  13
ATOM     13  C   UNL     1       5.642   3.935  13.462  0.00  0.00    +0.000 C 
BRANCH  13  14
ATOM     14  C   UNL     1       6.253   3.365  12.180  0.00  0.00    +0.000 C 
BRANCH  14  16
ATOM     15  C   UNL     1       3.928   3.294  11.168  0.00  0.00    +0.000 C 
ATOM     16  C   UNL     1       5.210   2.526  11.436  0.00  0.00    +0.000 C 
ENDBRANCH  14  16
ENDBRANCH  13  14
ENDBRANCH  12  13
ENDBRANCH   1  12
BRANCH   7  17
ATOM     17  O   UNL     1       1.870   6.655  20.172  0.00  0.00    +0.000 OA
BRANCH  17  18
ATOM     18  C   UNL     1       1.617   7.950  19.745  0.00  0.00    +0.000 A 
ATOM     19  C   UNL     1       2.096   8.288  18.487  0.00  0.00    +0.000 A 
ATOM     20  C   UNL     1       1.942   9.604  18.050  0.00  0.00    +0.000 A 
ATOM     21  C   UNL     1       1.317  10.529  18.888  0.00  0.00    +0.000 A 
ATOM     22  C   UNL     1       0.834  10.087  20.111  0.00  0.00    +0.000 A 
ATOM     23  N   UNL     1       0.995   8.826  20.568  0.00  0.00    +0.000 NA
BRANCH  21  24
ATOM     24  C   UNL     1       1.177  11.959  18.553  0.00  0.00    +0.000 C 
ATOM     25  N   UNL     1      -0.048  12.376  18.121  0.00  0.00    +0.000 N 
ATOM     26  O   UNL     1       2.134  12.724  18.595  0.00  0.00    +0.000 OA
ATOM     27  H   UNL     1      -0.767  11.727  17.832  0.00  0.00    +0.000 HD
ATOM     28  H   UNL     1      -0.086  13.310  17.732  0.00  0.00    +0.000 HD
ENDBRANCH  21  24
ENDBRANCH  17  18
ENDBRANCH   7  17
TORSDOF 7
ENDMDL
MODEL 4
REMARK VINA RESULT:      -7.7      0.698      1.076
REMARK  Name = 
REMARK  8 active torsions:
REMARK  status: ('A' for Active; 'I' for Inactive)
REMARK    1  A    between atoms: C_1  and  C_2
REMARK    2  A    between atoms: C_2  and  C_3
REMARK    3  A    between atoms: C_3  and  C_4
REMARK    4  A    between atoms: C_4  and  C_5
REMARK    5  A    between atoms: C_5  and  N_6
REMARK    6  A    between atoms: C_12  and  O_13
REMARK    7  A    between atoms: O_13  and  C_14
REMARK    8  A    between atoms: C_17  and  C_18
REMARK                            x       y       z     vdW  Elec       q    Type
REMARK                         _______ _______ _______ _____ _____    ______ ____
ROOT
ATOM      1  N   UNL     1      -0.777  10.540  20.068  0.00  0.00    +0.000 NA
ATOM      2  C   UNL     1      -0.867  10.188  21.504  0.00  0.00    +0.000 C 
ATOM      3  C   UNL     1      -0.196   8.886  21.967  0.00  0.00    +0.000 C 
ATOM      4  C   UNL     1       1.323   8.900  21.830  0.00  0.00    +0.000 C 
ATOM      5  C   UNL     1       1.693   8.555  20.414  0.00  0.00    +0.000 A 
ATOM      6  C   UNL     1       2.293   7.319  20.133  0.00  0.00    +0.000 A 
ATOM      7  C   UNL     1       2.522   6.929  18.815  0.00  0.00    +0.000 A 
ATOM      8  C   UNL     1       2.148   7.770  17.766  0.00  0.00    +0.000 A 
ATOM      9  C   UNL     1       1.572   9.009  18.039  0.00  0.00    +0.000 A 
ATOM     10  C   UNL     1       1.325   9.411  19.361  0.00  0.00    +0.000 A 
ATOM     11  C   UNL     1       0.617  10.725  19.626  0.00  0.00    +0.000 C 
ENDROOT
BRANCH   1  12
ATOM     12  C   UNL     1      -1.594  11.754  19.847  0.00  0.00    +0.000 C 
BRANCH  12  13
ATOM     13  C   UNL     1      -1.804  12.214  18.395  0.00  0.00    +0.000 C 
BRANCH  13  14
ATOM     14  C   UNL     1      -2.914  11.478  17.642  0.00  0.00    +0.000 C 
BRANCH  14  16
ATOM     15  C   UNL     1      -2.722  10.234  15.440  0.00  0.00    +0.000 C 
ATOM     16  C   UNL     1      -2.329  10.270  16.906  0.00  0.00    +0.000 C 
ENDBRANCH  14  16
ENDBRANCH  13  14
ENDBRANCH  12  13
ENDBRANCH   1  12
BRANCH   7  17
ATOM     17  O   UNL     1       3.000   5.655  18.625  0.00  0.00    +0.000 OA
BRANCH  17  18
ATOM     18  C   UNL     1       3.855   5.427  17.558  0.00  0.00    +0.000 A 
ATOM     19  C   UNL     1       3.840   4.149  17.017  0.00  0.00    +0.000 A 
ATOM     20  C   UNL     1       4.744   3.848  15.999  0.00  0.00    +0.000 A 
ATOM     21  C   UNL     1       5.629   4.837  15.563  0.00  0.00    +0.000 A 
ATOM     22  C   UNL     1       5.541   6.097  16.136  0.00  0.00    +0.000 A 
ATOM     23  N   UNL     1       4.693   6.406  17.141  0.00  0.00    +0.000 NA
BRANCH  21  24
ATOM     24  C   UNL     1       6.676   4.596  14.551  0.00  0.00    +0.000 C 
ATOM     25  N   UNL     1       6.477   3.555  13.692  0.00  0.00    +0.000 N 
ATOM     26  O   UNL     1       7.708   5.257  14.526  0.00  0.00    +0.000 OA
ATOM     27  H   UNL     1       5.775   2.846  13.858  0.00  0.00    +0.000 HD
ATOM     28  H   UNL     1       7.272   3.292  13.122  0.00  0.00    +0.000 HD
ENDBRANCH  21  24
ENDBRANCH  17  18
ENDBRANCH   7  17
TORSDOF 7
ENDMDL
MODEL 5
REMARK VINA RESULT:      -7.4      2.672      8.333
REMARK  Name = 
REMARK  8 active torsions:
REMARK  status: ('A' for Active; 'I' for Inactive)
REMARK    1  A    between atoms: C_1  and  C_2
REMARK    2  A    between atoms: C_2  and  C_3
REMARK    3  A    between atoms: C_3  and  C_4
REMARK    4  A    between atoms: C_4  and  C_5
REMARK    5  A    between atoms: C_5  and  N_6
REMARK    6  A    between atoms: C_12  and  O_13
REMARK    7  A    between atoms: O_13  and  C_14
REMARK    8  A    between atoms: C_17  and  C_18
REMARK                            x       y       z     vdW  Elec       q    Type
REMARK                         _______ _______ _______ _____ _____    ______ ____
ROOT
ATOM      1  N   UNL     1       5.810   4.141  14.579  0.00  0.00    +0.000 NA
ATOM      2  C   UNL     1       7.038   4.936  14.816  0.00  0.00    +0.000 C 
ATOM      3  C   UNL     1       7.073   5.850  16.050  0.00  0.00    +0.000 C 
ATOM      4  C   UNL     1       7.032   5.093  17.373  0.00  0.00    +0.000 C 
ATOM      5  C   UNL     1       5.604   4.751  17.701  0.00  0.00    +0.000 A 
ATOM      6  C   UNL     1       4.958   5.405  18.760  0.00  0.00    +0.000 A 
ATOM      7  C   UNL     1       3.601   5.199  18.994  0.00  0.00    +0.000 A 
ATOM      8  C   UNL     1       2.876   4.339  18.167  0.00  0.00    +0.000 A 
ATOM      9  C   UNL     1       3.516   3.669  17.127  0.00  0.00    +0.000 A 
ATOM     10  C   UNL     1       4.881   3.876  16.872  0.00  0.00    +0.000 A 
ATOM     11  C   UNL     1       5.532   3.202  15.681  0.00  0.00    +0.000 C 
ENDROOT
BRANCH   1  12
ATOM     12  C   UNL     1       5.965   3.445  13.282  0.00  0.00    +0.000 C 
BRANCH  12  13
ATOM     13  C   UNL     1       5.267   4.060  12.058  0.00  0.00    +0.000 C 
BRANCH  13  14
ATOM     14  C   UNL     1       3.951   3.385  11.663  0.00  0.00    +0.000 C 
BRANCH  14  16
ATOM     15  C   UNL     1       2.745   4.288   9.623  0.00  0.00    +0.000 C 
ATOM     16  C   UNL     1       3.824   3.352  10.137  0.00  0.00    +0.000 C 
ENDBRANCH  14  16
ENDBRANCH  13  14
ENDBRANCH  12  13
ENDBRANCH   1  12
BRANCH   7  17
ATOM     17  O   UNL     1       3.021   5.970  19.972  0.00  0.00    +0.000 OA
BRANCH  17  18
ATOM     18  C   UNL     1       2.383   7.140  19.592  0.00  0.00    +0.000 A 
ATOM     19  C   UNL     1       2.629   7.585  18.301  0.00  0.00    +0.000 A 
ATOM     20  C   UNL     1       2.078   8.803  17.902  0.00  0.00    +0.000 A 
ATOM     21  C   UNL     1       1.305   9.529  18.811  0.00  0.00    +0.000 A 
ATOM     22  C   UNL     1       1.080   8.983  20.066  0.00  0.00    +0.000 A 
ATOM     23  N   UNL     1       1.624   7.819  20.485  0.00  0.00    +0.000 NA
BRANCH  21  24
ATOM     24  C   UNL     1       0.747  10.862  18.515  0.00  0.00    +0.000 C 
ATOM     25  N   UNL     1      -0.510  10.902  17.984  0.00  0.00    +0.000 N 
ATOM     26  O   UNL     1       1.406  11.883  18.674  0.00  0.00    +0.000 OA
ATOM     27  H   UNL     1      -0.961  10.080  17.606  0.00  0.00    +0.000 HD
ATOM     28  H   UNL     1      -0.811  11.800  17.625  0.00  0.00    +0.000 HD
ENDBRANCH  21  24
ENDBRANCH  17  18
ENDBRANCH   7  17
TORSDOF 7
ENDMDL
MODEL 6
REMARK VINA RESULT:      -7.4      3.035      8.626
REMARK  Name = 
REMARK  8 active torsions:
REMARK  status: ('A' for Active; 'I' for Inactive)
REMARK    1  A    between atoms: C_1  and  C_2
REMARK    2  A    between atoms: C_2  and  C_3
REMARK    3  A    between atoms: C_3  and  C_4
REMARK    4  A    between atoms: C_4  and  C_5
REMARK    5  A    between atoms: C_5  and  N_6
REMARK    6  A    between atoms: C_12  and  O_13
REMARK    7  A    between atoms: O_13  and  C_14
REMARK    8  A    between atoms: C_17  and  C_18
REMARK                            x       y       z     vdW  Elec       q    Type
REMARK                         _______ _______ _______ _____ _____    ______ ____
ROOT
ATOM      1  N   UNL     1       3.875   3.675  17.933  0.00  0.00    +0.000 NA
ATOM      2  C   UNL     1       4.791   3.794  16.774  0.00  0.00    +0.000 C 
ATOM      3  C   UNL     1       4.788   5.115  15.991  0.00  0.00    +0.000 C 
ATOM      4  C   UNL     1       5.288   6.307  16.802  0.00  0.00    +0.000 C 
ATOM      5  C   UNL     1       4.161   6.836  17.645  0.00  0.00    +0.000 A 
ATOM      6  C   UNL     1       3.581   8.075  17.332  0.00  0.00    +0.000 A 
ATOM      7  C   UNL     1       2.453   8.519  18.019  0.00  0.00    +0.000 A 
ATOM      8  C   UNL     1       1.892   7.726  19.021  0.00  0.00    +0.000 A 
ATOM      9  C   UNL     1       2.476   6.505  19.352  0.00  0.00    +0.000 A 
ATOM     10  C   UNL     1       3.607   6.039  18.661  0.00  0.00    +0.000 A 
ATOM     11  C   UNL     1       4.169   4.669  18.981  0.00  0.00    +0.000 C 
ENDROOT
BRANCH   1  12
ATOM     12  C   UNL     1       3.966   2.288  18.441  0.00  0.00    +0.000 C 
BRANCH  12  13
ATOM     13  C   UNL     1       2.828   1.787  19.345  0.00  0.00    +0.000 C 
BRANCH  13  14
ATOM     14  C   UNL     1       1.426   2.223  18.913  0.00  0.00    +0.000 C 
BRANCH  14  16
ATOM     15  C   UNL     1       1.360   2.825  21.376  0.00  0.00    +0.000 C 
ATOM     16  C   UNL     1       0.803   3.112  19.994  0.00  0.00    +0.000 C 
ENDBRANCH  14  16
ENDBRANCH  13  14
ENDBRANCH  12  13
ENDBRANCH   1  12
BRANCH   7  17
ATOM     17  O   UNL     1       1.878   9.683  17.569  0.00  0.00    +0.000 OA
BRANCH  17  18
ATOM     18  C   UNL     1       0.999  10.348  18.410  0.00  0.00    +0.000 A 
ATOM     19  C   UNL     1      -0.353  10.128  18.188  0.00  0.00    +0.000 A 
ATOM     20  C   UNL     1      -1.276  10.842  18.953  0.00  0.00    +0.000 A 
ATOM     21  C   UNL     1      -0.810  11.749  19.907  0.00  0.00    +0.000 A 
ATOM     22  C   UNL     1       0.561  11.870  20.085  0.00  0.00    +0.000 A 
ATOM     23  N   UNL     1       1.474  11.210  19.340  0.00  0.00    +0.000 NA
BRANCH  21  24
ATOM     24  C   UNL     1      -1.702  12.609  20.708  0.00  0.00    +0.000 C 
ATOM     25  N   UNL     1      -2.123  12.115  21.908  0.00  0.00    +0.000 N 
ATOM     26  O   UNL     1      -2.100  13.689  20.286  0.00  0.00    +0.000 OA
ATOM     27  H   UNL     1      -2.023  11.140  22.154  0.00  0.00    +0.000 HD
ATOM     28  H   UNL     1      -2.865  12.633  22.364  0.00  0.00    +0.000 HD
ENDBRANCH  21  24
ENDBRANCH  17  18
ENDBRANCH   7  17
TORSDOF 7
ENDMDL
MODEL 7
REMARK VINA RESULT:      -7.3      2.728      3.919
REMARK  Name = 
REMARK  8 active torsions:
REMARK  status: ('A' for Active; 'I' for Inactive)
REMARK    1  A    between atoms: C_1  and  C_2
REMARK    2  A    between atoms: C_2  and  C_3
REMARK    3  A    between atoms: C_3  and  C_4
REMARK    4  A    between atoms: C_4  and  C_5
REMARK    5  A    between atoms: C_5  and  N_6
REMARK    6  A    between atoms: C_12  and  O_13
REMARK    7  A    between atoms: O_13  and  C_14
REMARK    8  A    between atoms: C_17  and  C_18
REMARK                            x       y       z     vdW  Elec       q    Type
REMARK                         _______ _______ _______ _____ _____    ______ ____
ROOT
ATOM      1  N   UNL     1      -0.906  11.340  21.409  0.00  0.00    +0.000 NA
ATOM      2  C   UNL     1      -0.932  10.580  22.680  0.00  0.00    +0.000 C 
ATOM      3  C   UNL     1      -0.374   9.149  22.671  0.00  0.00    +0.000 C 
ATOM      4  C   UNL     1       1.124   9.079  22.394  0.00  0.00    +0.000 C 
ATOM      5  C   UNL     1       1.353   9.149  20.909  0.00  0.00    +0.000 A 
ATOM      6  C   UNL     1       1.795   8.010  20.219  0.00  0.00    +0.000 A 
ATOM      7  C   UNL     1       1.887   8.018  18.829  0.00  0.00    +0.000 A 
ATOM      8  C   UNL     1       1.532   9.164  18.116  0.00  0.00    +0.000 A 
ATOM      9  C   UNL     1       1.113  10.306  18.796  0.00  0.00    +0.000 A 
ATOM     10  C   UNL     1       1.006  10.309  20.196  0.00  0.00    +0.000 A 
ATOM     11  C   UNL     1       0.465  11.535  20.903  0.00  0.00    +0.000 C 
ENDROOT
BRANCH   1  12
ATOM     12  C   UNL     1      -1.602  12.627  21.636  0.00  0.00    +0.000 C 
BRANCH  12  13
ATOM     13  C   UNL     1      -1.840  13.058  23.092  0.00  0.00    +0.000 C 
BRANCH  13  14
ATOM     14  C   UNL     1      -1.067  14.306  23.526  0.00  0.00    +0.000 C 
BRANCH  14  16
ATOM     15  C   UNL     1      -3.102  14.607  25.010  0.00  0.00    +0.000 C 
ATOM     16  C   UNL     1      -2.021  15.298  24.199  0.00  0.00    +0.000 C 
ENDBRANCH  14  16
ENDBRANCH  13  14
ENDBRANCH  12  13
ENDBRANCH   1  12
BRANCH   7  17
ATOM     17  O   UNL     1       2.210   6.826  18.227  0.00  0.00    +0.000 OA
BRANCH  17  18
ATOM     18  C   UNL     1       3.534   6.416  18.251  0.00  0.00    +0.000 A 
ATOM     19  C   UNL     1       4.357   6.933  17.261  0.00  0.00    +0.000 A 
ATOM     20  C   UNL     1       5.676   6.483  17.192  0.00  0.00    +0.000 A 
ATOM     21  C   UNL     1       6.118   5.534  18.116  0.00  0.00    +0.000 A 
ATOM     22  C   UNL     1       5.234   5.107  19.095  0.00  0.00    +0.000 A 
ATOM     23  N   UNL     1       3.945   5.507  19.167  0.00  0.00    +0.000 NA
BRANCH  21  24
ATOM     24  C   UNL     1       7.467   4.936  18.078  0.00  0.00    +0.000 C 
ATOM     25  N   UNL     1       8.223   5.045  19.209  0.00  0.00    +0.000 N 
ATOM     26  O   UNL     1       7.914   4.426  17.057  0.00  0.00    +0.000 OA
ATOM     27  H   UNL     1       7.982   5.678  19.959  0.00  0.00    +0.000 HD
ATOM     28  H   UNL     1       9.198   4.789  19.116  0.00  0.00    +0.000 HD
ENDBRANCH  21  24
ENDBRANCH  17  18
ENDBRANCH   7  17
TORSDOF 7
ENDMDL
MODEL 8
REMARK VINA RESULT:      -7.3      2.684      8.363
REMARK  Name = 
REMARK  8 active torsions:
REMARK  status: ('A' for Active; 'I' for Inactive)
REMARK    1  A    between atoms: C_1  and  C_2
REMARK    2  A    between atoms: C_2  and  C_3
REMARK    3  A    between atoms: C_3  and  C_4
REMARK    4  A    between atoms: C_4  and  C_5
REMARK    5  A    between atoms: C_5  and  N_6
REMARK    6  A    between atoms: C_12  and  O_13
REMARK    7  A    between atoms: O_13  and  C_14
REMARK    8  A    between atoms: C_17  and  C_18
REMARK                            x       y       z     vdW  Elec       q    Type
REMARK                         _______ _______ _______ _____ _____    ______ ____
ROOT
ATOM      1  N   UNL     1       5.944   4.593  15.165  0.00  0.00    +0.000 NA
ATOM      2  C   UNL     1       7.185   5.248  15.642  0.00  0.00    +0.000 C 
ATOM      3  C   UNL     1       7.110   6.063  16.941  0.00  0.00    +0.000 C 
ATOM      4  C   UNL     1       6.808   5.220  18.176  0.00  0.00    +0.000 C 
ATOM      5  C   UNL     1       5.323   4.994  18.265  0.00  0.00    +0.000 A 
ATOM      6  C   UNL     1       4.583   5.629  19.273  0.00  0.00    +0.000 A 
ATOM      7  C   UNL     1       3.193   5.536  19.292  0.00  0.00    +0.000 A 
ATOM      8  C   UNL     1       2.531   4.812  18.300  0.00  0.00    +0.000 A 
ATOM      9  C   UNL     1       3.262   4.160  17.308  0.00  0.00    +0.000 A 
ATOM     10  C   UNL     1       4.662   4.254  17.270  0.00  0.00    +0.000 A 
ATOM     11  C   UNL     1       5.425   3.609  16.131  0.00  0.00    +0.000 C 
ENDROOT
BRANCH   1  12
ATOM     12  C   UNL     1       6.233   3.981  13.849  0.00  0.00    +0.000 C 
BRANCH  12  13
ATOM     13  C   UNL     1       5.049   3.391  13.065  0.00  0.00    +0.000 C 
BRANCH  13  14
ATOM     14  C   UNL     1       5.317   3.156  11.577  0.00  0.00    +0.000 C 
BRANCH  14  16
ATOM     15  C   UNL     1       3.017   2.907  10.538  0.00  0.00    +0.000 C 
ATOM     16  C   UNL     1       4.216   3.815  10.741  0.00  0.00    +0.000 C 
ENDBRANCH  14  16
ENDBRANCH  13  14
ENDBRANCH  12  13
ENDBRANCH   1  12
BRANCH   7  17
ATOM     17  O   UNL     1       2.539   6.287  20.239  0.00  0.00    +0.000 OA
BRANCH  17  18
ATOM     18  C   UNL     1       1.990   7.499  19.851  0.00  0.00    +0.000 A 
ATOM     19  C   UNL     1       2.284   7.925  18.563  0.00  0.00    +0.000 A 
ATOM     20  C   UNL     1       1.825   9.178  18.158  0.00  0.00    +0.000 A 
ATOM     21  C   UNL     1       1.092   9.957  19.056  0.00  0.00    +0.000 A 
ATOM     22  C   UNL     1       0.812   9.428  20.308  0.00  0.00    +0.000 A 
ATOM     23  N   UNL     1       1.268   8.229  20.733  0.00  0.00    +0.000 NA
BRANCH  21  24
ATOM     24  C   UNL     1       0.632  11.325  18.752  0.00  0.00    +0.000 C 
ATOM     25  N   UNL     1       1.585  12.231  18.388  0.00  0.00    +0.000 N 
ATOM     26  O   UNL     1      -0.542  11.652  18.887  0.00  0.00    +0.000 OA
ATOM     27  H   UNL     1       2.572  12.057  18.522  0.00  0.00    +0.000 HD
ATOM     28  H   UNL     1       1.287  13.198  18.352  0.00  0.00    +0.000 HD
ENDBRANCH  21  24
ENDBRANCH  17  18
ENDBRANCH   7  17
TORSDOF 7
ENDMDL
MODEL 9
REMARK VINA RESULT:      -7.3      2.591      3.450
REMARK  Name = 
REMARK  8 active torsions:
REMARK  status: ('A' for Active; 'I' for Inactive)
REMARK    1  A    between atoms: C_1  and  C_2
REMARK    2  A    between atoms: C_2  and  C_3
REMARK    3  A    between atoms: C_3  and  C_4
REMARK    4  A    between atoms: C_4  and  C_5
REMARK    5  A    between atoms: C_5  and  N_6
REMARK    6  A    between atoms: C_12  and  O_13
REMARK    7  A    between atoms: O_13  and  C_14
REMARK    8  A    between atoms: C_17  and  C_18
REMARK                            x       y       z     vdW  Elec       q    Type
REMARK                         _______ _______ _______ _____ _____    ______ ____
ROOT
ATOM      1  N   UNL     1      -0.964  11.175  21.490  0.00  0.00    +0.000 NA
ATOM      2  C   UNL     1      -0.858  10.424  22.763  0.00  0.00    +0.000 C 
ATOM      3  C   UNL     1      -0.207   9.034  22.723  0.00  0.00    +0.000 C 
ATOM      4  C   UNL     1       1.272   9.062  22.351  0.00  0.00    +0.000 C 
ATOM      5  C   UNL     1       1.402   9.136  20.854  0.00  0.00    +0.000 A 
ATOM      6  C   UNL     1       1.874   8.024  20.142  0.00  0.00    +0.000 A 
ATOM      7  C   UNL     1       1.877   8.028  18.748  0.00  0.00    +0.000 A 
ATOM      8  C   UNL     1       1.402   9.142  18.056  0.00  0.00    +0.000 A 
ATOM      9  C   UNL     1       0.951  10.259  18.757  0.00  0.00    +0.000 A 
ATOM     10  C   UNL     1       0.933  10.265  20.161  0.00  0.00    +0.000 A 
ATOM     11  C   UNL     1       0.356  11.457  20.898  0.00  0.00    +0.000 C 
ENDROOT
BRANCH   1  12
ATOM     12  C   UNL     1      -1.728  12.414  21.758  0.00  0.00    +0.000 C 
BRANCH  12  13
ATOM     13  C   UNL     1      -2.124  12.704  23.214  0.00  0.00    +0.000 C 
BRANCH  13  14
ATOM     14  C   UNL     1      -3.608  12.500  23.529  0.00  0.00    +0.000 C 
BRANCH  14  16
ATOM     15  C   UNL     1      -5.026  14.549  23.059  0.00  0.00    +0.000 C 
ATOM     16  C   UNL     1      -4.464  13.252  22.506  0.00  0.00    +0.000 C 
ENDBRANCH  14  16
ENDBRANCH  13  14
ENDBRANCH  12  13
ENDBRANCH   1  12
BRANCH   7  17
ATOM     17  O   UNL     1       2.241   6.856  18.131  0.00  0.00    +0.000 OA
BRANCH  17  18
ATOM     18  C   UNL     1       3.565   6.455  18.212  0.00  0.00    +0.000 A 
ATOM     19  C   UNL     1       4.447   7.059  17.326  0.00  0.00    +0.000 A 
ATOM     20  C   UNL     1       5.773   6.626  17.312  0.00  0.00    +0.000 A 
ATOM     21  C   UNL     1       6.164   5.606  18.181  0.00  0.00    +0.000 A 
ATOM     22  C   UNL     1       5.220   5.092  19.059  0.00  0.00    +0.000 A 
ATOM     23  N   UNL     1       3.925   5.476  19.074  0.00  0.00    +0.000 NA
BRANCH  21  24
ATOM     24  C   UNL     1       7.520   5.023  18.186  0.00  0.00    +0.000 C 
ATOM     25  N   UNL     1       7.876   4.278  17.100  0.00  0.00    +0.000 N 
ATOM     26  O   UNL     1       8.266   5.145  19.151  0.00  0.00    +0.000 OA
ATOM     27  H   UNL     1       7.199   3.950  16.425  0.00  0.00    +0.000 HD
ATOM     28  H   UNL     1       8.733   3.744  17.191  0.00  0.00    +0.000 HD
ENDBRANCH  21  24
ENDBRANCH  17  18
ENDBRANCH   7  17
TORSDOF 7
ENDMDL
