MODEL 1
REMARK VINA RESULT:      -8.5      0.000      0.000
REMARK  Name = 
REMARK  5 active torsions:
REMARK  status: ('A' for Active; 'I' for Inactive)
REMARK    1  A    between atoms: C_1  and  N_2
REMARK    2  A    between atoms: C_3  and  C_5
REMARK    3  A    between atoms: C_5  and  O_6
REMARK    4  A    between atoms: C_5  and  C_17
REMARK    5  A    between atoms: O_6  and  C_7
REMARK                            x       y       z     vdW  Elec       q    Type
REMARK                         _______ _______ _______ _____ _____    ______ ____
ROOT
ATOM      1  C   UNL     1       6.084   4.730  16.055  0.00  0.00    +0.000 C 
ENDROOT
BRANCH   1   4
ATOM      2  C   UNL     1       7.870   7.679  17.738  0.00  0.00    +0.000 C 
ATOM      3  N   UNL     1       7.038   6.846  16.909  0.00  0.00    +0.000 N 
ATOM      4  C   UNL     1       7.088   5.467  16.974  0.00  0.00    +0.000 C 
ATOM      5  O   UNL     1       7.892   4.855  17.676  0.00  0.00    +0.000 OA
ATOM      6  H   UNL     1       6.291   7.271  16.370  0.00  0.00    +0.000 HD
ENDBRANCH   1   4
BRANCH   1   7
ATOM      7  C   UNL     1       6.662   4.711  14.667  0.00  0.00    +0.000 A 
ATOM      8  C   UNL     1       6.221   3.934  13.604  0.00  0.00    +0.000 A 
ATOM      9  S   UNL     1       7.234   4.270  12.264  0.00  0.00    +0.000 S 
ATOM     10  N   UNL     1       8.158   5.370  13.119  0.00  0.00    +0.000 NA
ATOM     11  N   UNL     1       7.762   5.515  14.372  0.00  0.00    +0.000 NA
ENDBRANCH   1   7
BRANCH   1  12
ATOM     12  O   UNL     1       4.775   5.310  16.063  0.00  0.00    +0.000 OA
BRANCH  12  13
ATOM     13  C   UNL     1       3.989   5.069  17.160  0.00  0.00    +0.000 A 
ATOM     14  C   UNL     1       3.603   6.206  17.868  0.00  0.00    +0.000 A 
ATOM     15  C   UNL     1       2.842   6.091  19.034  0.00  0.00    +0.000 A 
ATOM     16  C   UNL     1       2.422   4.833  19.490  0.00  0.00    +0.000 A 
ATOM     17  C   UNL     1       1.672   4.692  20.668  0.00  0.00    +0.000 A 
ATOM     18  C   UNL     1       1.229   3.435  21.085  0.00  0.00    +0.000 A 
ATOM     19  C   UNL     1       1.527   2.306  20.329  0.00  0.00    +0.000 A 
ATOM     20  C   UNL     1       2.292   2.428  19.167  0.00  0.00    +0.000 A 
ATOM     21  C   UNL     1       2.757   3.682  18.740  0.00  0.00    +0.000 A 
ATOM     22  C   UNL     1       3.545   3.815  17.584  0.00  0.00    +0.000 A 
ENDBRANCH  12  13
ENDBRANCH   1  12
TORSDOF 4
ENDMDL
MODEL 2
REMARK VINA RESULT:      -8.4      0.660      1.624
REMARK  Name = 
REMARK  5 active torsions:
REMARK  status: ('A' for Active; 'I' for Inactive)
REMARK    1  A    between atoms: C_1  and  N_2
REMARK    2  A    between atoms: C_3  and  C_5
REMARK    3  A    between atoms: C_5  and  O_6
REMARK    4  A    between atoms: C_5  and  C_17
REMARK    5  A    between atoms: O_6  and  C_7
REMARK                            x       y       z     vdW  Elec       q    Type
REMARK                         _______ _______ _______ _____ _____    ______ ____
ROOT
ATOM      1  C   UNL     1       6.224   4.398  15.881  0.00  0.00    +0.000 C 
ENDROOT
BRANCH   1   4
ATOM      2  C   UNL     1       7.727   7.367  17.790  0.00  0.00    +0.000 C 
ATOM      3  N   UNL     1       6.986   6.525  16.888  0.00  0.00    +0.000 N 
ATOM      4  C   UNL     1       7.141   5.152  16.873  0.00  0.00    +0.000 C 
ATOM      5  O   UNL     1       7.972   4.561  17.562  0.00  0.00    +0.000 OA
ATOM      6  H   UNL     1       6.222   6.923  16.352  0.00  0.00    +0.000 HD
ENDBRANCH   1   4
BRANCH   1   7
ATOM      7  C   UNL     1       6.780   4.600  14.498  0.00  0.00    +0.000 A 
ATOM      8  C   UNL     1       6.373   3.941  13.346  0.00  0.00    +0.000 A 
ATOM      9  S   UNL     1       7.340   4.517  12.054  0.00  0.00    +0.000 S 
ATOM     10  N   UNL     1       8.204   5.555  13.039  0.00  0.00    +0.000 NA
ATOM     11  N   UNL     1       7.819   5.507  14.303  0.00  0.00    +0.000 NA
ENDBRANCH   1   7
BRANCH   1  12
ATOM     12  O   UNL     1       4.853   4.806  15.952  0.00  0.00    +0.000 OA
BRANCH  12  13
ATOM     13  C   UNL     1       4.093   4.276  16.962  0.00  0.00    +0.000 A 
ATOM     14  C   UNL     1       4.079   2.882  17.019  0.00  0.00    +0.000 A 
ATOM     15  C   UNL     1       3.303   2.220  17.973  0.00  0.00    +0.000 A 
ATOM     16  C   UNL     1       2.554   2.944  18.912  0.00  0.00    +0.000 A 
ATOM     17  C   UNL     1       1.753   2.300  19.867  0.00  0.00    +0.000 A 
ATOM     18  C   UNL     1       1.046   3.038  20.820  0.00  0.00    +0.000 A 
ATOM     19  C   UNL     1       1.133   4.426  20.829  0.00  0.00    +0.000 A 
ATOM     20  C   UNL     1       1.908   5.082  19.871  0.00  0.00    +0.000 A 
ATOM     21  C   UNL     1       2.615   4.357  18.898  0.00  0.00    +0.000 A 
ATOM     22  C   UNL     1       3.381   5.007  17.915  0.00  0.00    +0.000 A 
ENDBRANCH  12  13
ENDBRANCH   1  12
TORSDOF 4
ENDMDL
MODEL 3
REMARK VINA RESULT:      -8.1      2.239      3.301
REMARK  Name = 
REMARK  5 active torsions:
REMARK  status: ('A' for Active; 'I' for Inactive)
REMARK    1  A    between atoms: C_1  and  N_2
REMARK    2  A    between atoms: C_3  and  C_5
REMARK    3  A    between atoms: C_5  and  O_6
REMARK    4  A    between atoms: C_5  and  C_17
REMARK    5  A    between atoms: O_6  and  C_7
REMARK                            x       y       z     vdW  Elec       q    Type
REMARK                         _______ _______ _______ _____ _____    ______ ____
ROOT
ATOM      1  C   UNL     1       5.715   4.779  15.774  0.00  0.00    +0.000 C 
ENDROOT
BRANCH   1   4
ATOM      2  C   UNL     1       6.575   3.464  12.274  0.00  0.00    +0.000 C 
ATOM      3  N   UNL     1       5.991   3.691  13.570  0.00  0.00    +0.000 N 
ATOM      4  C   UNL     1       6.501   4.626  14.450  0.00  0.00    +0.000 C 
ATOM      5  O   UNL     1       7.527   5.269  14.229  0.00  0.00    +0.000 OA
ATOM      6  H   UNL     1       5.096   3.267  13.792  0.00  0.00    +0.000 HD
ENDBRANCH   1   4
BRANCH   1   7
ATOM      7  C   UNL     1       6.497   5.702  16.668  0.00  0.00    +0.000 A 
ATOM      8  C   UNL     1       7.328   5.323  17.714  0.00  0.00    +0.000 A 
ATOM      9  S   UNL     1       7.951   6.753  18.421  0.00  0.00    +0.000 S 
ATOM     10  N   UNL     1       7.129   7.749  17.360  0.00  0.00    +0.000 NA
ATOM     11  N   UNL     1       6.396   7.080  16.487  0.00  0.00    +0.000 NA
ENDBRANCH   1   7
BRANCH   1  12
ATOM     12  O   UNL     1       5.448   3.531  16.424  0.00  0.00    +0.000 OA
BRANCH  12  13
ATOM     13  C   UNL     1       4.402   3.496  17.309  0.00  0.00    +0.000 A 
ATOM     14  C   UNL     1       3.179   3.921  16.790  0.00  0.00    +0.000 A 
ATOM     15  C   UNL     1       2.045   3.979  17.604  0.00  0.00    +0.000 A 
ATOM     16  C   UNL     1       2.110   3.576  18.946  0.00  0.00    +0.000 A 
ATOM     17  C   UNL     1       0.988   3.643  19.787  0.00  0.00    +0.000 A 
ATOM     18  C   UNL     1       1.061   3.199  21.110  0.00  0.00    +0.000 A 
ATOM     19  C   UNL     1       2.254   2.682  21.605  0.00  0.00    +0.000 A 
ATOM     20  C   UNL     1       3.384   2.631  20.787  0.00  0.00    +0.000 A 
ATOM     21  C   UNL     1       3.332   3.084  19.459  0.00  0.00    +0.000 A 
ATOM     22  C   UNL     1       4.468   3.058  18.632  0.00  0.00    +0.000 A 
ENDBRANCH  12  13
ENDBRANCH   1  12
TORSDOF 4
ENDMDL
MODEL 4
REMARK VINA RESULT:      -8.0      2.326      3.365
REMARK  Name = 
REMARK  5 active torsions:
REMARK  status: ('A' for Active; 'I' for Inactive)
REMARK    1  A    between atoms: C_1  and  N_2
REMARK    2  A    between atoms: C_3  and  C_5
REMARK    3  A    between atoms: C_5  and  O_6
REMARK    4  A    between atoms: C_5  and  C_17
REMARK    5  A    between atoms: O_6  and  C_7
REMARK                            x       y       z     vdW  Elec       q    Type
REMARK                         _______ _______ _______ _____ _____    ______ ____
ROOT
ATOM      1  C   UNL     1       5.686   4.685  15.939  0.00  0.00    +0.000 C 
ENDROOT
BRANCH   1   4
ATOM      2  C   UNL     1       6.732   3.606  12.410  0.00  0.00    +0.000 C 
ATOM      3  N   UNL     1       6.097   3.729  13.696  0.00  0.00    +0.000 N 
ATOM      4  C   UNL     1       6.518   4.651  14.635  0.00  0.00    +0.000 C 
ATOM      5  O   UNL     1       7.504   5.370  14.478  0.00  0.00    +0.000 OA
ATOM      6  H   UNL     1       5.227   3.236  13.869  0.00  0.00    +0.000 HD
ENDBRANCH   1   4
BRANCH   1   7
ATOM      7  C   UNL     1       6.574   5.201  17.038  0.00  0.00    +0.000 A 
ATOM      8  C   UNL     1       6.648   6.513  17.486  0.00  0.00    +0.000 A 
ATOM      9  S   UNL     1       7.828   6.568  18.726  0.00  0.00    +0.000 S 
ATOM     10  N   UNL     1       8.165   4.935  18.609  0.00  0.00    +0.000 NA
ATOM     11  N   UNL     1       7.443   4.325  17.684  0.00  0.00    +0.000 NA
ENDBRANCH   1   7
BRANCH   1  12
ATOM     12  O   UNL     1       5.118   3.417  16.286  0.00  0.00    +0.000 OA
BRANCH  12  13
ATOM     13  C   UNL     1       4.147   3.407  17.253  0.00  0.00    +0.000 A 
ATOM     14  C   UNL     1       2.896   3.859  16.835  0.00  0.00    +0.000 A 
ATOM     15  C   UNL     1       1.835   3.945  17.739  0.00  0.00    +0.000 A 
ATOM     16  C   UNL     1       2.000   3.543  19.073  0.00  0.00    +0.000 A 
ATOM     17  C   UNL     1       0.953   3.637  20.004  0.00  0.00    +0.000 A 
ATOM     18  C   UNL     1       1.125   3.193  21.317  0.00  0.00    +0.000 A 
ATOM     19  C   UNL     1       2.342   2.650  21.714  0.00  0.00    +0.000 A 
ATOM     20  C   UNL     1       3.400   2.571  20.807  0.00  0.00    +0.000 A 
ATOM     21  C   UNL     1       3.249   3.024  19.486  0.00  0.00    +0.000 A 
ATOM     22  C   UNL     1       4.312   2.969  18.568  0.00  0.00    +0.000 A 
ENDBRANCH  12  13
ENDBRANCH   1  12
TORSDOF 4
ENDMDL
MODEL 5
REMARK VINA RESULT:      -7.9      1.164      1.400
REMARK  Name = 
REMARK  5 active torsions:
REMARK  status: ('A' for Active; 'I' for Inactive)
REMARK    1  A    between atoms: C_1  and  N_2
REMARK    2  A    between atoms: C_3  and  C_5
REMARK    3  A    between atoms: C_5  and  O_6
REMARK    4  A    between atoms: C_5  and  C_17
REMARK    5  A    between atoms: O_6  and  C_7
REMARK                            x       y       z     vdW  Elec       q    Type
REMARK                         _______ _______ _______ _____ _____    ______ ____
ROOT
ATOM      1  C   UNL     1       6.106   5.878  17.404  0.00  0.00    +0.000 C 
ENDROOT
BRANCH   1   4
ATOM      2  C   UNL     1       8.235   9.059  17.660  0.00  0.00    +0.000 C 
ATOM      3  N   UNL     1       7.274   8.055  17.286  0.00  0.00    +0.000 N 
ATOM      4  C   UNL     1       7.240   6.812  17.888  0.00  0.00    +0.000 C 
ATOM      5  O   UNL     1       8.069   6.446  18.721  0.00  0.00    +0.000 OA
ATOM      6  H   UNL     1       6.505   8.307  16.673  0.00  0.00    +0.000 HD
ENDBRANCH   1   4
BRANCH   1   7
ATOM      7  C   UNL     1       6.451   5.419  16.014  0.00  0.00    +0.000 A 
ATOM      8  C   UNL     1       5.696   4.567  15.220  0.00  0.00    +0.000 A 
ATOM      9  S   UNL     1       6.545   4.347  13.748  0.00  0.00    +0.000 S 
ATOM     10  N   UNL     1       7.804   5.342  14.216  0.00  0.00    +0.000 NA
ATOM     11  N   UNL     1       7.641   5.845  15.428  0.00  0.00    +0.000 NA
ENDBRANCH   1   7
BRANCH   1  12
ATOM     12  O   UNL     1       4.811   6.488  17.442  0.00  0.00    +0.000 OA
BRANCH  12  13
ATOM     13  C   UNL     1       3.817   5.811  18.100  0.00  0.00    +0.000 A 
ATOM     14  C   UNL     1       3.283   6.477  19.203  0.00  0.00    +0.000 A 
ATOM     15  C   UNL     1       2.298   5.871  19.987  0.00  0.00    +0.000 A 
ATOM     16  C   UNL     1       1.804   4.601  19.656  0.00  0.00    +0.000 A 
ATOM     17  C   UNL     1       0.827   3.965  20.440  0.00  0.00    +0.000 A 
ATOM     18  C   UNL     1       0.319   2.717  20.072  0.00  0.00    +0.000 A 
ATOM     19  C   UNL     1       0.778   2.092  18.917  0.00  0.00    +0.000 A 
ATOM     20  C   UNL     1       1.765   2.701  18.140  0.00  0.00    +0.000 A 
ATOM     21  C   UNL     1       2.297   3.949  18.502  0.00  0.00    +0.000 A 
ATOM     22  C   UNL     1       3.307   4.563  17.740  0.00  0.00    +0.000 A 
ENDBRANCH  12  13
ENDBRANCH   1  12
TORSDOF 4
ENDMDL
MODEL 6
REMARK VINA RESULT:      -7.9      1.359      1.614
REMARK  Name = 
REMARK  5 active torsions:
REMARK  status: ('A' for Active; 'I' for Inactive)
REMARK    1  A    between atoms: C_1  and  N_2
REMARK    2  A    between atoms: C_3  and  C_5
REMARK    3  A    between atoms: C_5  and  O_6
REMARK    4  A    between atoms: C_5  and  C_17
REMARK    5  A    between atoms: O_6  and  C_7
REMARK                            x       y       z     vdW  Elec       q    Type
REMARK                         _______ _______ _______ _____ _____    ______ ____
ROOT
ATOM      1  C   UNL     1       6.164   5.759  17.543  0.00  0.00    +0.000 C 
ENDROOT
BRANCH   1   4
ATOM      2  C   UNL     1       8.138   9.045  17.700  0.00  0.00    +0.000 C 
ATOM      3  N   UNL     1       7.213   7.992  17.370  0.00  0.00    +0.000 N 
ATOM      4  C   UNL     1       7.270   6.751  17.975  0.00  0.00    +0.000 C 
ATOM      5  O   UNL     1       8.154   6.429  18.769  0.00  0.00    +0.000 OA
ATOM      6  H   UNL     1       6.406   8.203  16.793  0.00  0.00    +0.000 HD
ENDBRANCH   1   4
BRANCH   1   7
ATOM      7  C   UNL     1       6.465   5.319  16.137  0.00  0.00    +0.000 A 
ATOM      8  C   UNL     1       5.726   4.418  15.383  0.00  0.00    +0.000 A 
ATOM      9  S   UNL     1       6.509   4.248  13.869  0.00  0.00    +0.000 S 
ATOM     10  N   UNL     1       7.726   5.322  14.272  0.00  0.00    +0.000 NA
ATOM     11  N   UNL     1       7.595   5.817  15.490  0.00  0.00    +0.000 NA
ENDBRANCH   1   7
BRANCH   1  12
ATOM     12  O   UNL     1       4.843   6.302  17.645  0.00  0.00    +0.000 OA
BRANCH  12  13
ATOM     13  C   UNL     1       3.900   5.541  18.286  0.00  0.00    +0.000 A 
ATOM     14  C   UNL     1       2.636   5.551  17.697  0.00  0.00    +0.000 A 
ATOM     15  C   UNL     1       1.575   4.855  18.282  0.00  0.00    +0.000 A 
ATOM     16  C   UNL     1       1.773   4.106  19.451  0.00  0.00    +0.000 A 
ATOM     17  C   UNL     1       0.718   3.413  20.067  0.00  0.00    +0.000 A 
ATOM     18  C   UNL     1       0.943   2.639  21.208  0.00  0.00    +0.000 A 
ATOM     19  C   UNL     1       2.223   2.547  21.744  0.00  0.00    +0.000 A 
ATOM     20  C   UNL     1       3.278   3.248  21.157  0.00  0.00    +0.000 A 
ATOM     21  C   UNL     1       3.068   4.041  20.017  0.00  0.00    +0.000 A 
ATOM     22  C   UNL     1       4.116   4.769  19.428  0.00  0.00    +0.000 A 
ENDBRANCH  12  13
ENDBRANCH   1  12
TORSDOF 4
ENDMDL
MODEL 7
REMARK VINA RESULT:      -7.9      1.382      1.592
REMARK  Name = 
REMARK  5 active torsions:
REMARK  status: ('A' for Active; 'I' for Inactive)
REMARK    1  A    between atoms: C_1  and  N_2
REMARK    2  A    between atoms: C_3  and  C_5
REMARK    3  A    between atoms: C_5  and  O_6
REMARK    4  A    between atoms: C_5  and  C_17
REMARK    5  A    between atoms: O_6  and  C_7
REMARK                            x       y       z     vdW  Elec       q    Type
REMARK                         _______ _______ _______ _____ _____    ______ ____
ROOT
ATOM      1  C   UNL     1       6.060   4.725  15.874  0.00  0.00    +0.000 C 
ENDROOT
BRANCH   1   4
ATOM      2  C   UNL     1       7.707   7.791  17.489  0.00  0.00    +0.000 C 
ATOM      3  N   UNL     1       7.394   6.468  17.015  0.00  0.00    +0.000 N 
ATOM      4  C   UNL     1       6.206   6.185  16.368  0.00  0.00    +0.000 C 
ATOM      5  O   UNL     1       5.306   7.010  16.222  0.00  0.00    +0.000 OA
ATOM      6  H   UNL     1       8.116   5.756  17.018  0.00  0.00    +0.000 HD
ENDBRANCH   1   4
BRANCH   1   7
ATOM      7  C   UNL     1       6.614   4.655  14.478  0.00  0.00    +0.000 A 
ATOM      8  C   UNL     1       6.199   3.792  13.473  0.00  0.00    +0.000 A 
ATOM      9  S   UNL     1       7.167   4.102  12.094  0.00  0.00    +0.000 S 
ATOM     10  N   UNL     1       8.042   5.302  12.862  0.00  0.00    +0.000 NA
ATOM     11  N   UNL     1       7.660   5.499  14.113  0.00  0.00    +0.000 NA
ENDBRANCH   1   7
BRANCH   1  12
ATOM     12  O   UNL     1       4.713   4.241  15.922  0.00  0.00    +0.000 OA
BRANCH  12  13
ATOM     13  C   UNL     1       4.197   3.943  17.157  0.00  0.00    +0.000 A 
ATOM     14  C   UNL     1       5.147   3.660  18.138  0.00  0.00    +0.000 A 
ATOM     15  C   UNL     1       4.748   3.293  19.425  0.00  0.00    +0.000 A 
ATOM     16  C   UNL     1       3.388   3.238  19.762  0.00  0.00    +0.000 A 
ATOM     17  C   UNL     1       2.963   2.854  21.044  0.00  0.00    +0.000 A 
ATOM     18  C   UNL     1       1.605   2.844  21.373  0.00  0.00    +0.000 A 
ATOM     19  C   UNL     1       0.658   3.220  20.426  0.00  0.00    +0.000 A 
ATOM     20  C   UNL     1       1.063   3.582  19.140  0.00  0.00    +0.000 A 
ATOM     21  C   UNL     1       2.423   3.585  18.788  0.00  0.00    +0.000 A 
ATOM     22  C   UNL     1       2.842   3.928  17.491  0.00  0.00    +0.000 A 
ENDBRANCH  12  13
ENDBRANCH   1  12
TORSDOF 4
ENDMDL
MODEL 8
REMARK VINA RESULT:      -7.6      1.081      1.093
REMARK  Name = 
REMARK  5 active torsions:
REMARK  status: ('A' for Active; 'I' for Inactive)
REMARK    1  A    between atoms: C_1  and  N_2
REMARK    2  A    between atoms: C_3  and  C_5
REMARK    3  A    between atoms: C_5  and  O_6
REMARK    4  A    between atoms: C_5  and  C_17
REMARK    5  A    between atoms: O_6  and  C_7
REMARK                            x       y       z     vdW  Elec       q    Type
REMARK                         _______ _______ _______ _____ _____    ______ ____
ROOT
ATOM      1  C   UNL     1       6.139   4.646  16.089  0.00  0.00    +0.000 C 
ENDROOT
BRANCH   1   4
ATOM      2  C   UNL     1       8.055   6.725  18.682  0.00  0.00    +0.000 C 
ATOM      3  N   UNL     1       7.490   5.660  17.896  0.00  0.00    +0.000 N 
ATOM      4  C   UNL     1       6.602   5.902  16.865  0.00  0.00    +0.000 C 
ATOM      5  O   UNL     1       6.171   7.023  16.598  0.00  0.00    +0.000 OA
ATOM      6  H   UNL     1       7.859   4.720  17.995  0.00  0.00    +0.000 HD
ENDBRANCH   1   4
BRANCH   1   7
ATOM      7  C   UNL     1       6.729   4.716  14.708  0.00  0.00    +0.000 A 
ATOM      8  C   UNL     1       6.288   4.020  13.591  0.00  0.00    +0.000 A 
ATOM      9  S   UNL     1       7.316   4.436  12.285  0.00  0.00    +0.000 S 
ATOM     10  N   UNL     1       8.246   5.462  13.221  0.00  0.00    +0.000 NA
ATOM     11  N   UNL     1       7.840   5.524  14.478  0.00  0.00    +0.000 NA
ENDBRANCH   1   7
BRANCH   1  12
ATOM     12  O   UNL     1       4.715   4.502  16.038  0.00  0.00    +0.000 OA
BRANCH  12  13
ATOM     13  C   UNL     1       4.049   4.417  17.233  0.00  0.00    +0.000 A 
ATOM     14  C   UNL     1       3.198   5.487  17.509  0.00  0.00    +0.000 A 
ATOM     15  C   UNL     1       2.500   5.544  18.718  0.00  0.00    +0.000 A 
ATOM     16  C   UNL     1       2.615   4.508  19.657  0.00  0.00    +0.000 A 
ATOM     17  C   UNL     1       1.937   4.552  20.886  0.00  0.00    +0.000 A 
ATOM     18  C   UNL     1       2.032   3.493  21.791  0.00  0.00    +0.000 A 
ATOM     19  C   UNL     1       2.803   2.378  21.478  0.00  0.00    +0.000 A 
ATOM     20  C   UNL     1       3.501   2.329  20.270  0.00  0.00    +0.000 A 
ATOM     21  C   UNL     1       3.427   3.391  19.354  0.00  0.00    +0.000 A 
ATOM     22  C   UNL     1       4.142   3.364  18.144  0.00  0.00    +0.000 A 
ENDBRANCH  12  13
ENDBRANCH   1  12
TORSDOF 4
ENDMDL
MODEL 9
REMARK VINA RESULT:      -7.5      3.988      5.383
REMARK  Name = 
REMARK  5 active torsions:
REMARK  status: ('A' for Active; 'I' for Inactive)
REMARK    1  A    between atoms: C_1  and  N_2
REMARK    2  A    between atoms: C_3  and  C_5
REMARK    3  A    between atoms: C_5  and  O_6
REMARK    4  A    between atoms: C_5  and  C_17
REMARK    5  A    between atoms: O_6  and  C_7
REMARK                            x       y       z     vdW  Elec       q    Type
REMARK                         _______ _______ _______ _____ _____    ______ ____
ROOT
ATOM      1  C   UNL     1       3.996   5.379  19.037  0.00  0.00    +0.000 C 
ENDROOT
BRANCH   1   4
ATOM      2  C   UNL     1       7.290   4.648  17.211  0.00  0.00    +0.000 C 
ATOM      3  N   UNL     1       5.908   4.854  17.559  0.00  0.00    +0.000 N 
ATOM      4  C   UNL     1       5.512   5.130  18.854  0.00  0.00    +0.000 C 
ATOM      5  O   UNL     1       6.289   5.140  19.808  0.00  0.00    +0.000 OA
ATOM      6  H   UNL     1       5.219   4.948  16.821  0.00  0.00    +0.000 HD
ENDBRANCH   1   4
BRANCH   1   7
ATOM      7  C   UNL     1       3.297   4.051  18.936  0.00  0.00    +0.000 A 
ATOM      8  C   UNL     1       1.945   3.817  19.144  0.00  0.00    +0.000 A 
ATOM      9  S   UNL     1       1.673   2.139  18.931  0.00  0.00    +0.000 S 
ATOM     10  N   UNL     1       3.280   1.826  18.593  0.00  0.00    +0.000 NA
ATOM     11  N   UNL     1       4.036   2.910  18.628  0.00  0.00    +0.000 NA
ENDBRANCH   1   7
BRANCH   1  12
ATOM     12  O   UNL     1       3.457   6.320  18.103  0.00  0.00    +0.000 OA
BRANCH  12  13
ATOM     13  C   UNL     1       2.655   7.313  18.604  0.00  0.00    +0.000 A 
ATOM     14  C   UNL     1       2.297   8.299  17.686  0.00  0.00    +0.000 A 
ATOM     15  C   UNL     1       1.524   9.392  18.085  0.00  0.00    +0.000 A 
ATOM     16  C   UNL     1       1.063   9.494  19.405  0.00  0.00    +0.000 A 
ATOM     17  C   UNL     1       0.299  10.592  19.834  0.00  0.00    +0.000 A 
ATOM     18  C   UNL     1      -0.185  10.657  21.143  0.00  0.00    +0.000 A 
ATOM     19  C   UNL     1       0.087   9.627  22.036  0.00  0.00    +0.000 A 
ATOM     20  C   UNL     1       0.864   8.540  21.632  0.00  0.00    +0.000 A 
ATOM     21  C   UNL     1       1.370   8.464  20.324  0.00  0.00    +0.000 A 
ATOM     22  C   UNL     1       2.171   7.386  19.911  0.00  0.00    +0.000 A 
ENDBRANCH  12  13
ENDBRANCH   1  12
TORSDOF 4
ENDMDL
