MODEL 1
REMARK VINA RESULT:      -5.7      0.000      0.000
REMARK  Name = 
REMARK  4 active torsions:
REMARK  status: ('A' for Active; 'I' for Inactive)
REMARK    1  A    between atoms: C_1  and  C_2
REMARK    2  A    between atoms: C_2  and  C_3
REMARK    3  A    between atoms: C_3  and  C_4
REMARK    4  A    between atoms: C_4  and  C_5
REMARK                            x       y       z     vdW  Elec       q    Type
REMARK                         _______ _______ _______ _____ _____    ______ ____
ROOT
ATOM      1  C   UNL     1       2.209   3.856  19.455  0.00  0.00    +0.000 C 
ATOM      2  S   UNL     1       3.670   2.805  19.859  0.00  0.00    +0.000 S 
ATOM      3  C   UNL     1       3.369   1.841  18.446  0.00  0.00    +0.000 C 
ATOM      4  N   UNL     1       4.100   0.715  18.316  0.00  0.00    +0.000 N 
ATOM      5  N   UNL     1       2.457   2.234  17.632  0.00  0.00    +0.000 NA
ATOM      6  C   UNL     1       1.870   3.419  18.019  0.00  0.00    +0.000 C 
ATOM      7  O   UNL     1       1.113   4.056  17.296  0.00  0.00    +0.000 OA
ATOM      8  H   UNL     1       4.513   0.351  19.165  0.00  0.00    +0.000 HD
ATOM      9  H   UNL     1       3.694   0.020  17.701  0.00  0.00    +0.000 HD
ENDROOT
BRANCH   1  11
ATOM     10  C   UNL     1       1.530   2.675  21.663  0.00  0.00    +0.000 C 
ATOM     11  C   UNL     1       1.076   3.432  20.418  0.00  0.00    +0.000 C 
ENDBRANCH   1  11
BRANCH   1  12
ATOM     12  C   UNL     1       2.540   5.357  19.555  0.00  0.00    +0.000 C 
ATOM     13  C   UNL     1       3.765   5.833  18.777  0.00  0.00    +0.000 C 
ENDBRANCH   1  12
TORSDOF 2
ENDMDL
MODEL 2
REMARK VINA RESULT:      -5.3      1.065      1.409
REMARK  Name = 
REMARK  4 active torsions:
REMARK  status: ('A' for Active; 'I' for Inactive)
REMARK    1  A    between atoms: C_1  and  C_2
REMARK    2  A    between atoms: C_2  and  C_3
REMARK    3  A    between atoms: C_3  and  C_4
REMARK    4  A    between atoms: C_4  and  C_5
REMARK                            x       y       z     vdW  Elec       q    Type
REMARK                         _______ _______ _______ _____ _____    ______ ____
ROOT
ATOM      1  C   UNL     1       2.895   4.412  18.878  0.00  0.00    +0.000 C 
ATOM      2  S   UNL     1       4.335   3.285  19.114  0.00  0.00    +0.000 S 
ATOM      3  C   UNL     1       3.467   2.007  18.320  0.00  0.00    +0.000 C 
ATOM      4  N   UNL     1       4.027   0.781  18.359  0.00  0.00    +0.000 N 
ATOM      5  N   UNL     1       2.339   2.293  17.774  0.00  0.00    +0.000 NA
ATOM      6  C   UNL     1       2.014   3.627  17.891  0.00  0.00    +0.000 C 
ATOM      7  O   UNL     1       1.079   4.140  17.286  0.00  0.00    +0.000 OA
ATOM      8  H   UNL     1       4.707   0.624  19.092  0.00  0.00    +0.000 HD
ATOM      9  H   UNL     1       3.378   0.018  18.203  0.00  0.00    +0.000 HD
ENDROOT
BRANCH   1  11
ATOM     10  C   UNL     1       1.671   5.913  20.604  0.00  0.00    +0.000 C 
ATOM     11  C   UNL     1       2.185   4.521  20.248  0.00  0.00    +0.000 C 
ENDBRANCH   1  11
BRANCH   1  12
ATOM     12  C   UNL     1       3.328   5.783  18.325  0.00  0.00    +0.000 C 
ATOM     13  C   UNL     1       4.309   5.762  17.155  0.00  0.00    +0.000 C 
ENDBRANCH   1  12
TORSDOF 2
ENDMDL
MODEL 3
REMARK VINA RESULT:      -5.3      2.277      3.261
REMARK  Name = 
REMARK  4 active torsions:
REMARK  status: ('A' for Active; 'I' for Inactive)
REMARK    1  A    between atoms: C_1  and  C_2
REMARK    2  A    between atoms: C_2  and  C_3
REMARK    3  A    between atoms: C_3  and  C_4
REMARK    4  A    between atoms: C_4  and  C_5
REMARK                            x       y       z     vdW  Elec       q    Type
REMARK                         _______ _______ _______ _____ _____    ______ ____
ROOT
ATOM      1  C   UNL     1       2.586   4.260  19.635  0.00  0.00    +0.000 C 
ATOM      2  S   UNL     1       4.025   3.107  19.622  0.00  0.00    +0.000 S 
ATOM      3  C   UNL     1       5.063   4.407  19.121  0.00  0.00    +0.000 C 
ATOM      4  N   UNL     1       6.319   4.074  18.761  0.00  0.00    +0.000 N 
ATOM      5  N   UNL     1       4.572   5.594  19.092  0.00  0.00    +0.000 NA
ATOM      6  C   UNL     1       3.260   5.638  19.510  0.00  0.00    +0.000 C 
ATOM      7  O   UNL     1       2.665   6.687  19.732  0.00  0.00    +0.000 OA
ATOM      8  H   UNL     1       6.466   3.107  18.500  0.00  0.00    +0.000 HD
ATOM      9  H   UNL     1       6.782   4.755  18.172  0.00  0.00    +0.000 HD
ENDROOT
BRANCH   1  11
ATOM     10  C   UNL     1       2.212   2.733  17.572  0.00  0.00    +0.000 C 
ATOM     11  C   UNL     1       1.761   3.958  18.362  0.00  0.00    +0.000 C 
ENDBRANCH   1  11
BRANCH   1  12
ATOM     12  C   UNL     1       1.756   4.121  20.925  0.00  0.00    +0.000 C 
ATOM     13  C   UNL     1       1.688   2.724  21.539  0.00  0.00    +0.000 C 
ENDBRANCH   1  12
TORSDOF 2
ENDMDL
MODEL 4
REMARK VINA RESULT:      -5.3      0.843      1.173
REMARK  Name = 
REMARK  4 active torsions:
REMARK  status: ('A' for Active; 'I' for Inactive)
REMARK    1  A    between atoms: C_1  and  C_2
REMARK    2  A    between atoms: C_2  and  C_3
REMARK    3  A    between atoms: C_3  and  C_4
REMARK    4  A    between atoms: C_4  and  C_5
REMARK                            x       y       z     vdW  Elec       q    Type
REMARK                         _______ _______ _______ _____ _____    ______ ____
ROOT
ATOM      1  C   UNL     1       2.912   4.489  18.776  0.00  0.00    +0.000 C 
ATOM      2  S   UNL     1       4.346   3.359  19.035  0.00  0.00    +0.000 S 
ATOM      3  C   UNL     1       3.447   2.053  18.324  0.00  0.00    +0.000 C 
ATOM      4  N   UNL     1       3.996   0.824  18.410  0.00  0.00    +0.000 N 
ATOM      5  N   UNL     1       2.311   2.325  17.790  0.00  0.00    +0.000 NA
ATOM      6  C   UNL     1       2.001   3.666  17.848  0.00  0.00    +0.000 C 
ATOM      7  O   UNL     1       1.059   4.160  17.240  0.00  0.00    +0.000 OA
ATOM      8  H   UNL     1       4.691   0.696  19.134  0.00  0.00    +0.000 HD
ATOM      9  H   UNL     1       3.336   0.062  18.305  0.00  0.00    +0.000 HD
ENDROOT
BRANCH   1  11
ATOM     10  C   UNL     1       0.982   3.830  20.379  0.00  0.00    +0.000 C 
ATOM     11  C   UNL     1       2.235   4.671  20.155  0.00  0.00    +0.000 C 
ENDBRANCH   1  11
BRANCH   1  12
ATOM     12  C   UNL     1       3.346   5.826  18.148  0.00  0.00    +0.000 C 
ATOM     13  C   UNL     1       2.571   7.065  18.592  0.00  0.00    +0.000 C 
ENDBRANCH   1  12
TORSDOF 2
ENDMDL
MODEL 5
REMARK VINA RESULT:      -5.2      4.956      6.143
REMARK  Name = 
REMARK  4 active torsions:
REMARK  status: ('A' for Active; 'I' for Inactive)
REMARK    1  A    between atoms: C_1  and  C_2
REMARK    2  A    between atoms: C_2  and  C_3
REMARK    3  A    between atoms: C_3  and  C_4
REMARK    4  A    between atoms: C_4  and  C_5
REMARK                            x       y       z     vdW  Elec       q    Type
REMARK                         _______ _______ _______ _____ _____    ______ ____
ROOT
ATOM      1  C   UNL     1       6.412   5.922  17.097  0.00  0.00    +0.000 C 
ATOM      2  S   UNL     1       6.370   4.864  18.607  0.00  0.00    +0.000 S 
ATOM      3  C   UNL     1       7.705   5.755  19.270  0.00  0.00    +0.000 C 
ATOM      4  N   UNL     1       8.260   5.264  20.397  0.00  0.00    +0.000 N 
ATOM      5  N   UNL     1       8.104   6.801  18.640  0.00  0.00    +0.000 NA
ATOM      6  C   UNL     1       7.352   7.065  17.516  0.00  0.00    +0.000 C 
ATOM      7  O   UNL     1       7.446   8.109  16.881  0.00  0.00    +0.000 OA
ATOM      8  H   UNL     1       8.092   4.284  20.586  0.00  0.00    +0.000 HD
ATOM      9  H   UNL     1       9.207   5.580  20.571  0.00  0.00    +0.000 HD
ENDROOT
BRANCH   1  11
ATOM     10  C   UNL     1       6.101   4.436  14.994  0.00  0.00    +0.000 C 
ATOM     11  C   UNL     1       7.071   5.078  15.981  0.00  0.00    +0.000 C 
ENDBRANCH   1  11
BRANCH   1  12
ATOM     12  C   UNL     1       5.007   6.420  16.710  0.00  0.00    +0.000 C 
ATOM     13  C   UNL     1       3.913   6.243  17.761  0.00  0.00    +0.000 C 
ENDBRANCH   1  12
TORSDOF 2
ENDMDL
MODEL 6
REMARK VINA RESULT:      -5.2      4.848      6.116
REMARK  Name = 
REMARK  4 active torsions:
REMARK  status: ('A' for Active; 'I' for Inactive)
REMARK    1  A    between atoms: C_1  and  C_2
REMARK    2  A    between atoms: C_2  and  C_3
REMARK    3  A    between atoms: C_3  and  C_4
REMARK    4  A    between atoms: C_4  and  C_5
REMARK                            x       y       z     vdW  Elec       q    Type
REMARK                         _______ _______ _______ _____ _____    ______ ____
ROOT
ATOM      1  C   UNL     1       6.137   4.969  16.261  0.00  0.00    +0.000 C 
ATOM      2  S   UNL     1       7.172   4.770  17.774  0.00  0.00    +0.000 S 
ATOM      3  C   UNL     1       7.366   6.494  17.868  0.00  0.00    +0.000 C 
ATOM      4  N   UNL     1       8.254   6.954  18.773  0.00  0.00    +0.000 N 
ATOM      5  N   UNL     1       6.685   7.222  17.059  0.00  0.00    +0.000 NA
ATOM      6  C   UNL     1       5.859   6.482  16.242  0.00  0.00    +0.000 C 
ATOM      7  O   UNL     1       4.997   6.986  15.531  0.00  0.00    +0.000 OA
ATOM      8  H   UNL     1       8.954   6.294  19.086  0.00  0.00    +0.000 HD
ATOM      9  H   UNL     1       8.596   7.890  18.588  0.00  0.00    +0.000 HD
ENDROOT
BRANCH   1  11
ATOM     10  C   UNL     1       6.285   3.983  13.866  0.00  0.00    +0.000 C 
ATOM     11  C   UNL     1       7.027   4.580  15.058  0.00  0.00    +0.000 C 
ENDBRANCH   1  11
BRANCH   1  12
ATOM     12  C   UNL     1       4.848   4.130  16.338  0.00  0.00    +0.000 C 
ATOM     13  C   UNL     1       3.954   4.372  17.553  0.00  0.00    +0.000 C 
ENDBRANCH   1  12
TORSDOF 2
ENDMDL
MODEL 7
REMARK VINA RESULT:      -5.2      2.472      2.895
REMARK  Name = 
REMARK  4 active torsions:
REMARK  status: ('A' for Active; 'I' for Inactive)
REMARK    1  A    between atoms: C_1  and  C_2
REMARK    2  A    between atoms: C_2  and  C_3
REMARK    3  A    between atoms: C_3  and  C_4
REMARK    4  A    between atoms: C_4  and  C_5
REMARK                            x       y       z     vdW  Elec       q    Type
REMARK                         _______ _______ _______ _____ _____    ______ ____
ROOT
ATOM      1  C   UNL     1       2.795   3.763  19.756  0.00  0.00    +0.000 C 
ATOM      2  S   UNL     1       3.681   5.370  19.571  0.00  0.00    +0.000 S 
ATOM      3  C   UNL     1       5.179   4.519  19.350  0.00  0.00    +0.000 C 
ATOM      4  N   UNL     1       6.302   5.266  19.335  0.00  0.00    +0.000 N 
ATOM      5  N   UNL     1       5.136   3.240  19.245  0.00  0.00    +0.000 NA
ATOM      6  C   UNL     1       3.851   2.744  19.297  0.00  0.00    +0.000 C 
ATOM      7  O   UNL     1       3.575   1.579  19.034  0.00  0.00    +0.000 OA
ATOM      8  H   UNL     1       6.235   6.179  19.765  0.00  0.00    +0.000 HD
ATOM      9  H   UNL     1       7.150   4.752  19.544  0.00  0.00    +0.000 HD
ENDROOT
BRANCH   1  11
ATOM     10  C   UNL     1       1.329   2.674  21.599  0.00  0.00    +0.000 C 
ATOM     11  C   UNL     1       2.508   3.584  21.265  0.00  0.00    +0.000 C 
ENDBRANCH   1  11
BRANCH   1  12
ATOM     12  C   UNL     1       1.514   3.717  18.901  0.00  0.00    +0.000 C 
ATOM     13  C   UNL     1       1.567   4.450  17.562  0.00  0.00    +0.000 C 
ENDBRANCH   1  12
TORSDOF 2
ENDMDL
MODEL 8
REMARK VINA RESULT:      -5.1      4.069      4.969
REMARK  Name = 
REMARK  4 active torsions:
REMARK  status: ('A' for Active; 'I' for Inactive)
REMARK    1  A    between atoms: C_1  and  C_2
REMARK    2  A    between atoms: C_2  and  C_3
REMARK    3  A    between atoms: C_3  and  C_4
REMARK    4  A    between atoms: C_4  and  C_5
REMARK                            x       y       z     vdW  Elec       q    Type
REMARK                         _______ _______ _______ _____ _____    ______ ____
ROOT
ATOM      1  C   UNL     1       5.103   5.160  17.699  0.00  0.00    +0.000 C 
ATOM      2  S   UNL     1       6.490   6.272  17.211  0.00  0.00    +0.000 S 
ATOM      3  C   UNL     1       7.242   6.014  18.755  0.00  0.00    +0.000 C 
ATOM      4  N   UNL     1       8.309   6.787  19.045  0.00  0.00    +0.000 N 
ATOM      5  N   UNL     1       6.728   5.134  19.536  0.00  0.00    +0.000 NA
ATOM      6  C   UNL     1       5.640   4.497  18.979  0.00  0.00    +0.000 C 
ATOM      7  O   UNL     1       5.121   3.505  19.478  0.00  0.00    +0.000 OA
ATOM      8  H   UNL     1       8.392   7.647  18.518  0.00  0.00    +0.000 HD
ATOM      9  H   UNL     1       8.514   6.865  20.034  0.00  0.00    +0.000 HD
ENDROOT
BRANCH   1  11
ATOM     10  C   UNL     1       2.537   5.389  18.003  0.00  0.00    +0.000 C 
ATOM     11  C   UNL     1       3.901   6.071  18.041  0.00  0.00    +0.000 C 
ENDBRANCH   1  11
BRANCH   1  12
ATOM     12  C   UNL     1       4.775   4.138  16.595  0.00  0.00    +0.000 C 
ATOM     13  C   UNL     1       5.863   3.897  15.551  0.00  0.00    +0.000 C 
ENDBRANCH   1  12
TORSDOF 2
ENDMDL
MODEL 9
REMARK VINA RESULT:      -5.1      2.790      3.609
REMARK  Name = 
REMARK  4 active torsions:
REMARK  status: ('A' for Active; 'I' for Inactive)
REMARK    1  A    between atoms: C_1  and  C_2
REMARK    2  A    between atoms: C_2  and  C_3
REMARK    3  A    between atoms: C_3  and  C_4
REMARK    4  A    between atoms: C_4  and  C_5
REMARK                            x       y       z     vdW  Elec       q    Type
REMARK                         _______ _______ _______ _____ _____    ______ ____
ROOT
ATOM      1  C   UNL     1       3.065   3.397  19.398  0.00  0.00    +0.000 C 
ATOM      2  S   UNL     1       3.199   4.774  18.178  0.00  0.00    +0.000 S 
ATOM      3  C   UNL     1       4.903   4.889  18.494  0.00  0.00    +0.000 C 
ATOM      4  N   UNL     1       5.549   5.940  17.950  0.00  0.00    +0.000 N 
ATOM      5  N   UNL     1       5.439   3.994  19.244  0.00  0.00    +0.000 NA
ATOM      6  C   UNL     1       4.537   3.039  19.662  0.00  0.00    +0.000 C 
ATOM      7  O   UNL     1       4.875   2.005  20.227  0.00  0.00    +0.000 OA
ATOM      8  H   UNL     1       4.974   6.730  17.689  0.00  0.00    +0.000 HD
ATOM      9  H   UNL     1       6.424   6.175  18.404  0.00  0.00    +0.000 HD
ENDROOT
BRANCH   1  11
ATOM     10  C   UNL     1       1.893   5.415  20.530  0.00  0.00    +0.000 C 
ATOM     11  C   UNL     1       2.429   3.994  20.675  0.00  0.00    +0.000 C 
ENDBRANCH   1  11
BRANCH   1  12
ATOM     12  C   UNL     1       2.258   2.212  18.834  0.00  0.00    +0.000 C 
ATOM     13  C   UNL     1       0.740   2.377  18.809  0.00  0.00    +0.000 C 
ENDBRANCH   1  12
TORSDOF 2
ENDMDL
