MODEL 1
REMARK VINA RESULT:      -7.6      0.000      0.000
REMARK  Name = 
REMARK  3 active torsions:
REMARK  status: ('A' for Active; 'I' for Inactive)
REMARK    1  A    between atoms: C_4  and  C_5
REMARK    2  A    between atoms: C_5  and  C_6
REMARK    3  A    between atoms: C_15  and  O_16
REMARK                            x       y       z     vdW  Elec       q    Type
REMARK                         _______ _______ _______ _____ _____    ______ ____
ROOT
ATOM      1  O   UNL     1       7.518   5.336  20.265  0.00  0.00    +0.000 OA
ATOM      2  C   UNL     1       7.159   5.578  19.118  0.00  0.00    +0.000 C 
ATOM      3  C   UNL     1       6.241   4.652  18.421  0.00  0.00    +0.000 C 
ATOM      4  C   UNL     1       5.702   4.935  17.228  0.00  0.00    +0.000 C 
ATOM      5  C   UNL     1       5.976   6.252  16.601  0.00  0.00    +0.000 C 
ATOM      6  O   UNL     1       5.351   6.660  15.630  0.00  0.00    +0.000 OA
ATOM      7  C   UNL     1       7.047   7.082  17.188  0.00  0.00    +0.000 C 
ATOM      8  C   UNL     1       7.621   6.779  18.357  0.00  0.00    +0.000 C 
ENDROOT
BRANCH   8   9
ATOM      9  O   UNL     1       8.629   7.547  18.909  0.00  0.00    +0.000 OA
ATOM     10  H   UNL     1       8.242   8.284  19.408  0.00  0.00    +0.000 HD
ENDBRANCH   8   9
BRANCH   4  11
ATOM     11  C   UNL     1       4.755   4.006  16.518  0.00  0.00    +0.000 C 
BRANCH  11  12
ATOM     12  C   UNL     1       3.529   3.653  17.332  0.00  0.00    +0.000 A 
ATOM     13  C   UNL     1       3.305   2.331  17.747  0.00  0.00    +0.000 A 
ATOM     14  C   UNL     1       2.197   2.010  18.536  0.00  0.00    +0.000 A 
ATOM     15  C   UNL     1       1.298   3.005  18.912  0.00  0.00    +0.000 A 
ATOM     16  C   UNL     1       1.496   4.318  18.486  0.00  0.00    +0.000 A 
ATOM     17  C   UNL     1       2.601   4.640  17.694  0.00  0.00    +0.000 A 
ENDBRANCH  11  12
ENDBRANCH   4  11
TORSDOF 3
ENDMDL
MODEL 2
REMARK VINA RESULT:      -7.5      1.494      1.970
REMARK  Name = 
REMARK  3 active torsions:
REMARK  status: ('A' for Active; 'I' for Inactive)
REMARK    1  A    between atoms: C_4  and  C_5
REMARK    2  A    between atoms: C_5  and  C_6
REMARK    3  A    between atoms: C_15  and  O_16
REMARK                            x       y       z     vdW  Elec       q    Type
REMARK                         _______ _______ _______ _____ _____    ______ ____
ROOT
ATOM      1  O   UNL     1       7.549   5.326  20.095  0.00  0.00    +0.000 OA
ATOM      2  C   UNL     1       6.892   5.168  19.073  0.00  0.00    +0.000 C 
ATOM      3  C   UNL     1       5.465   5.558  19.046  0.00  0.00    +0.000 C 
ATOM      4  C   UNL     1       4.736   5.545  17.922  0.00  0.00    +0.000 C 
ATOM      5  C   UNL     1       5.389   5.191  16.638  0.00  0.00    +0.000 C 
ATOM      6  O   UNL     1       4.846   5.368  15.554  0.00  0.00    +0.000 OA
ATOM      7  C   UNL     1       6.743   4.604  16.694  0.00  0.00    +0.000 C 
ATOM      8  C   UNL     1       7.457   4.573  17.824  0.00  0.00    +0.000 C 
ENDROOT
BRANCH   8   9
ATOM      9  O   UNL     1       8.722   4.018  17.887  0.00  0.00    +0.000 OA
ATOM     10  H   UNL     1       9.252   4.489  18.550  0.00  0.00    +0.000 HD
ENDBRANCH   8   9
BRANCH   4  11
ATOM     11  C   UNL     1       3.290   5.955  17.883  0.00  0.00    +0.000 C 
BRANCH  11  12
ATOM     12  C   UNL     1       2.362   4.973  18.565  0.00  0.00    +0.000 A 
ATOM     13  C   UNL     1       1.922   3.823  17.890  0.00  0.00    +0.000 A 
ATOM     14  C   UNL     1       1.100   2.892  18.532  0.00  0.00    +0.000 A 
ATOM     15  C   UNL     1       0.706   3.103  19.851  0.00  0.00    +0.000 A 
ATOM     16  C   UNL     1       1.117   4.253  20.524  0.00  0.00    +0.000 A 
ATOM     17  C   UNL     1       1.935   5.187  19.882  0.00  0.00    +0.000 A 
ENDBRANCH  11  12
ENDBRANCH   4  11
TORSDOF 3
ENDMDL
MODEL 3
REMARK VINA RESULT:      -7.4      1.890      3.185
REMARK  Name = 
REMARK  3 active torsions:
REMARK  status: ('A' for Active; 'I' for Inactive)
REMARK    1  A    between atoms: C_4  and  C_5
REMARK    2  A    between atoms: C_5  and  C_6
REMARK    3  A    between atoms: C_15  and  O_16
REMARK                            x       y       z     vdW  Elec       q    Type
REMARK                         _______ _______ _______ _____ _____    ______ ____
ROOT
ATOM      1  O   UNL     1       5.180   6.890  15.058  0.00  0.00    +0.000 OA
ATOM      2  C   UNL     1       5.416   6.312  16.113  0.00  0.00    +0.000 C 
ATOM      3  C   UNL     1       4.478   6.438  17.250  0.00  0.00    +0.000 C 
ATOM      4  C   UNL     1       4.606   5.719  18.372  0.00  0.00    +0.000 C 
ATOM      5  C   UNL     1       5.687   4.707  18.466  0.00  0.00    +0.000 C 
ATOM      6  O   UNL     1       5.729   3.872  19.362  0.00  0.00    +0.000 OA
ATOM      7  C   UNL     1       6.739   4.727  17.431  0.00  0.00    +0.000 C 
ATOM      8  C   UNL     1       6.637   5.478  16.330  0.00  0.00    +0.000 C 
ENDROOT
BRANCH   8   9
ATOM      9  O   UNL     1       7.622   5.509  15.359  0.00  0.00    +0.000 OA
ATOM     10  H   UNL     1       7.268   5.909  14.549  0.00  0.00    +0.000 HD
ENDBRANCH   8   9
BRANCH   4  11
ATOM     11  C   UNL     1       3.648   5.830  19.527  0.00  0.00    +0.000 C 
BRANCH  11  12
ATOM     12  C   UNL     1       2.602   4.737  19.553  0.00  0.00    +0.000 A 
ATOM     13  C   UNL     1       2.085   4.217  18.355  0.00  0.00    +0.000 A 
ATOM     14  C   UNL     1       1.150   3.178  18.376  0.00  0.00    +0.000 A 
ATOM     15  C   UNL     1       0.718   2.653  19.592  0.00  0.00    +0.000 A 
ATOM     16  C   UNL     1       1.205   3.178  20.788  0.00  0.00    +0.000 A 
ATOM     17  C   UNL     1       2.137   4.219  20.770  0.00  0.00    +0.000 A 
ENDBRANCH  11  12
ENDBRANCH   4  11
TORSDOF 3
ENDMDL
MODEL 4
REMARK VINA RESULT:      -7.4      1.495      2.159
REMARK  Name = 
REMARK  3 active torsions:
REMARK  status: ('A' for Active; 'I' for Inactive)
REMARK    1  A    between atoms: C_4  and  C_5
REMARK    2  A    between atoms: C_5  and  C_6
REMARK    3  A    between atoms: C_15  and  O_16
REMARK                            x       y       z     vdW  Elec       q    Type
REMARK                         _______ _______ _______ _____ _____    ______ ____
ROOT
ATOM      1  O   UNL     1       7.550   5.418  20.051  0.00  0.00    +0.000 OA
ATOM      2  C   UNL     1       6.890   5.199  19.041  0.00  0.00    +0.000 C 
ATOM      3  C   UNL     1       5.455   5.555  19.007  0.00  0.00    +0.000 C 
ATOM      4  C   UNL     1       4.720   5.474  17.890  0.00  0.00    +0.000 C 
ATOM      5  C   UNL     1       5.373   5.077  16.619  0.00  0.00    +0.000 C 
ATOM      6  O   UNL     1       4.819   5.193  15.532  0.00  0.00    +0.000 OA
ATOM      7  C   UNL     1       6.740   4.525  16.691  0.00  0.00    +0.000 C 
ATOM      8  C   UNL     1       7.462   4.562  17.816  0.00  0.00    +0.000 C 
ENDROOT
BRANCH   8   9
ATOM      9  O   UNL     1       8.740   4.040  17.895  0.00  0.00    +0.000 OA
ATOM     10  H   UNL     1       8.814   3.269  17.310  0.00  0.00    +0.000 HD
ENDBRANCH   8   9
BRANCH   4  11
ATOM     11  C   UNL     1       3.264   5.849  17.843  0.00  0.00    +0.000 C 
BRANCH  11  12
ATOM     12  C   UNL     1       2.362   4.868  18.560  0.00  0.00    +0.000 A 
ATOM     13  C   UNL     1       1.952   5.111  19.881  0.00  0.00    +0.000 A 
ATOM     14  C   UNL     1       1.084   4.228  20.531  0.00  0.00    +0.000 A 
ATOM     15  C   UNL     1       0.623   3.092  19.870  0.00  0.00    +0.000 A 
ATOM     16  C   UNL     1       1.042   2.827  18.568  0.00  0.00    +0.000 A 
ATOM     17  C   UNL     1       1.913   3.705  17.918  0.00  0.00    +0.000 A 
ENDBRANCH  11  12
ENDBRANCH   4  11
TORSDOF 3
ENDMDL
MODEL 5
REMARK VINA RESULT:      -7.3      1.915      2.374
REMARK  Name = 
REMARK  3 active torsions:
REMARK  status: ('A' for Active; 'I' for Inactive)
REMARK    1  A    between atoms: C_4  and  C_5
REMARK    2  A    between atoms: C_5  and  C_6
REMARK    3  A    between atoms: C_15  and  O_16
REMARK                            x       y       z     vdW  Elec       q    Type
REMARK                         _______ _______ _______ _____ _____    ______ ____
ROOT
ATOM      1  O   UNL     1       8.254   4.148  17.348  0.00  0.00    +0.000 OA
ATOM      2  C   UNL     1       7.170   4.712  17.249  0.00  0.00    +0.000 C 
ATOM      3  C   UNL     1       6.238   4.724  18.397  0.00  0.00    +0.000 C 
ATOM      4  C   UNL     1       5.107   5.442  18.400  0.00  0.00    +0.000 C 
ATOM      5  C   UNL     1       4.800   6.314  17.239  0.00  0.00    +0.000 C 
ATOM      6  O   UNL     1       3.908   7.154  17.268  0.00  0.00    +0.000 OA
ATOM      7  C   UNL     1       5.611   6.145  16.018  0.00  0.00    +0.000 C 
ATOM      8  C   UNL     1       6.716   5.392  15.998  0.00  0.00    +0.000 C 
ENDROOT
BRANCH   8   9
ATOM      9  O   UNL     1       7.477   5.222  14.857  0.00  0.00    +0.000 OA
ATOM     10  H   UNL     1       8.414   5.143  15.098  0.00  0.00    +0.000 HD
ENDBRANCH   8   9
BRANCH   4  11
ATOM     11  C   UNL     1       4.161   5.472  19.569  0.00  0.00    +0.000 C 
BRANCH  11  12
ATOM     12  C   UNL     1       2.988   4.528  19.423  0.00  0.00    +0.000 A 
ATOM     13  C   UNL     1       2.997   3.525  18.440  0.00  0.00    +0.000 A 
ATOM     14  C   UNL     1       1.934   2.625  18.332  0.00  0.00    +0.000 A 
ATOM     15  C   UNL     1       0.848   2.721  19.200  0.00  0.00    +0.000 A 
ATOM     16  C   UNL     1       0.816   3.727  20.164  0.00  0.00    +0.000 A 
ATOM     17  C   UNL     1       1.876   4.631  20.271  0.00  0.00    +0.000 A 
ENDBRANCH  11  12
ENDBRANCH   4  11
TORSDOF 3
ENDMDL
MODEL 6
REMARK VINA RESULT:      -7.3      1.892      3.200
REMARK  Name = 
REMARK  3 active torsions:
REMARK  status: ('A' for Active; 'I' for Inactive)
REMARK    1  A    between atoms: C_4  and  C_5
REMARK    2  A    between atoms: C_5  and  C_6
REMARK    3  A    between atoms: C_15  and  O_16
REMARK                            x       y       z     vdW  Elec       q    Type
REMARK                         _______ _______ _______ _____ _____    ______ ____
ROOT
ATOM      1  O   UNL     1       5.147   6.993  15.095  0.00  0.00    +0.000 OA
ATOM      2  C   UNL     1       5.373   6.391  16.138  0.00  0.00    +0.000 C 
ATOM      3  C   UNL     1       4.437   6.509  17.276  0.00  0.00    +0.000 C 
ATOM      4  C   UNL     1       4.553   5.766  18.384  0.00  0.00    +0.000 C 
ATOM      5  C   UNL     1       5.618   4.736  18.459  0.00  0.00    +0.000 C 
ATOM      6  O   UNL     1       5.646   3.883  19.338  0.00  0.00    +0.000 OA
ATOM      7  C   UNL     1       6.671   4.760  17.424  0.00  0.00    +0.000 C 
ATOM      8  C   UNL     1       6.582   5.534  16.338  0.00  0.00    +0.000 C 
ENDROOT
BRANCH   8   9
ATOM      9  O   UNL     1       7.567   5.569  15.369  0.00  0.00    +0.000 OA
ATOM     10  H   UNL     1       7.471   4.804  14.779  0.00  0.00    +0.000 HD
ENDBRANCH   8   9
BRANCH   4  11
ATOM     11  C   UNL     1       3.596   5.868  19.540  0.00  0.00    +0.000 C 
BRANCH  11  12
ATOM     12  C   UNL     1       2.594   4.736  19.600  0.00  0.00    +0.000 A 
ATOM     13  C   UNL     1       2.157   4.235  20.837  0.00  0.00    +0.000 A 
ATOM     14  C   UNL     1       1.199   3.218  20.895  0.00  0.00    +0.000 A 
ATOM     15  C   UNL     1       0.674   2.688  19.719  0.00  0.00    +0.000 A 
ATOM     16  C   UNL     1       1.117   3.160  18.485  0.00  0.00    +0.000 A 
ATOM     17  C   UNL     1       2.078   4.173  18.424  0.00  0.00    +0.000 A 
ENDBRANCH  11  12
ENDBRANCH   4  11
TORSDOF 3
ENDMDL
MODEL 7
REMARK VINA RESULT:      -7.3      1.879      2.223
REMARK  Name = 
REMARK  3 active torsions:
REMARK  status: ('A' for Active; 'I' for Inactive)
REMARK    1  A    between atoms: C_4  and  C_5
REMARK    2  A    between atoms: C_5  and  C_6
REMARK    3  A    between atoms: C_15  and  O_16
REMARK                            x       y       z     vdW  Elec       q    Type
REMARK                         _______ _______ _______ _____ _____    ______ ____
ROOT
ATOM      1  O   UNL     1       7.915   4.306  16.735  0.00  0.00    +0.000 OA
ATOM      2  C   UNL     1       6.813   4.835  16.819  0.00  0.00    +0.000 C 
ATOM      3  C   UNL     1       5.593   4.000  16.850  0.00  0.00    +0.000 C 
ATOM      4  C   UNL     1       4.377   4.509  17.085  0.00  0.00    +0.000 C 
ATOM      5  C   UNL     1       4.242   5.954  17.391  0.00  0.00    +0.000 C 
ATOM      6  O   UNL     1       3.204   6.439  17.826  0.00  0.00    +0.000 OA
ATOM      7  C   UNL     1       5.415   6.819  17.156  0.00  0.00    +0.000 C 
ATOM      8  C   UNL     1       6.622   6.317  16.876  0.00  0.00    +0.000 C 
ENDROOT
BRANCH   8   9
ATOM      9  O   UNL     1       7.725   7.120  16.647  0.00  0.00    +0.000 OA
ATOM     10  H   UNL     1       7.882   7.193  15.692  0.00  0.00    +0.000 HD
ENDBRANCH   8   9
BRANCH   4  11
ATOM     11  C   UNL     1       3.134   3.664  17.133  0.00  0.00    +0.000 C 
BRANCH  11  12
ATOM     12  C   UNL     1       2.623   3.417  18.536  0.00  0.00    +0.000 A 
ATOM     13  C   UNL     1       3.481   2.918  19.530  0.00  0.00    +0.000 A 
ATOM     14  C   UNL     1       3.023   2.730  20.837  0.00  0.00    +0.000 A 
ATOM     15  C   UNL     1       1.703   3.033  21.163  0.00  0.00    +0.000 A 
ATOM     16  C   UNL     1       0.835   3.506  20.180  0.00  0.00    +0.000 A 
ATOM     17  C   UNL     1       1.290   3.691  18.872  0.00  0.00    +0.000 A 
ENDBRANCH  11  12
ENDBRANCH   4  11
TORSDOF 3
ENDMDL
MODEL 8
REMARK VINA RESULT:      -7.1      2.032      2.702
REMARK  Name = 
REMARK  3 active torsions:
REMARK  status: ('A' for Active; 'I' for Inactive)
REMARK    1  A    between atoms: C_4  and  C_5
REMARK    2  A    between atoms: C_5  and  C_6
REMARK    3  A    between atoms: C_15  and  O_16
REMARK                            x       y       z     vdW  Elec       q    Type
REMARK                         _______ _______ _______ _____ _____    ______ ____
ROOT
ATOM      1  O   UNL     1       8.024   4.212  16.810  0.00  0.00    +0.000 OA
ATOM      2  C   UNL     1       6.936   4.773  16.866  0.00  0.00    +0.000 C 
ATOM      3  C   UNL     1       6.142   4.722  18.113  0.00  0.00    +0.000 C 
ATOM      4  C   UNL     1       5.019   5.432  18.282  0.00  0.00    +0.000 C 
ATOM      5  C   UNL     1       4.580   6.360  17.211  0.00  0.00    +0.000 C 
ATOM      6  O   UNL     1       3.696   7.191  17.384  0.00  0.00    +0.000 OA
ATOM      7  C   UNL     1       5.245   6.257  15.897  0.00  0.00    +0.000 C 
ATOM      8  C   UNL     1       6.340   5.513  15.712  0.00  0.00    +0.000 C 
ENDROOT
BRANCH   8   9
ATOM      9  O   UNL     1       6.965   5.405  14.483  0.00  0.00    +0.000 OA
ATOM     10  H   UNL     1       6.522   4.725  13.950  0.00  0.00    +0.000 HD
ENDBRANCH   8   9
BRANCH   4  11
ATOM     11  C   UNL     1       4.215   5.397  19.552  0.00  0.00    +0.000 C 
BRANCH  11  12
ATOM     12  C   UNL     1       3.023   4.467  19.489  0.00  0.00    +0.000 A 
ATOM     13  C   UNL     1       1.982   4.578  20.425  0.00  0.00    +0.000 A 
ATOM     14  C   UNL     1       0.859   3.749  20.343  0.00  0.00    +0.000 A 
ATOM     15  C   UNL     1       0.768   2.798  19.330  0.00  0.00    +0.000 A 
ATOM     16  C   UNL     1       1.806   2.661  18.409  0.00  0.00    +0.000 A 
ATOM     17  C   UNL     1       2.931   3.486  18.492  0.00  0.00    +0.000 A 
ENDBRANCH  11  12
ENDBRANCH   4  11
TORSDOF 3
ENDMDL
MODEL 9
REMARK VINA RESULT:      -7.0      3.120      5.661
REMARK  Name = 
REMARK  3 active torsions:
REMARK  status: ('A' for Active; 'I' for Inactive)
REMARK    1  A    between atoms: C_4  and  C_5
REMARK    2  A    between atoms: C_5  and  C_6
REMARK    3  A    between atoms: C_15  and  O_16
REMARK                            x       y       z     vdW  Elec       q    Type
REMARK                         _______ _______ _______ _____ _____    ______ ____
ROOT
ATOM      1  O   UNL     1       1.107   2.603  18.088  0.00  0.00    +0.000 OA
ATOM      2  C   UNL     1       1.540   3.614  18.629  0.00  0.00    +0.000 C 
ATOM      3  C   UNL     1       2.440   4.522  17.886  0.00  0.00    +0.000 C 
ATOM      4  C   UNL     1       2.827   5.709  18.371  0.00  0.00    +0.000 C 
ATOM      5  C   UNL     1       2.288   6.170  19.674  0.00  0.00    +0.000 C 
ATOM      6  O   UNL     1       2.425   7.322  20.070  0.00  0.00    +0.000 OA
ATOM      7  C   UNL     1       1.566   5.188  20.506  0.00  0.00    +0.000 C 
ATOM      8  C   UNL     1       1.217   3.984  20.041  0.00  0.00    +0.000 C 
ENDROOT
BRANCH   8   9
ATOM      9  O   UNL     1       0.547   3.055  20.816  0.00  0.00    +0.000 OA
ATOM     10  H   UNL     1       1.188   2.506  21.294  0.00  0.00    +0.000 HD
ENDBRANCH   8   9
BRANCH   4  11
ATOM     11  C   UNL     1       3.729   6.645  17.615  0.00  0.00    +0.000 C 
BRANCH  11  12
ATOM     12  C   UNL     1       5.001   5.992  17.118  0.00  0.00    +0.000 A 
ATOM     13  C   UNL     1       5.987   5.569  18.024  0.00  0.00    +0.000 A 
ATOM     14  C   UNL     1       7.142   4.927  17.571  0.00  0.00    +0.000 A 
ATOM     15  C   UNL     1       7.327   4.706  16.208  0.00  0.00    +0.000 A 
ATOM     16  C   UNL     1       6.367   5.142  15.296  0.00  0.00    +0.000 A 
ATOM     17  C   UNL     1       5.213   5.788  15.747  0.00  0.00    +0.000 A 
ENDBRANCH  11  12
ENDBRANCH   4  11
TORSDOF 3
ENDMDL
