MODEL 1
REMARK VINA RESULT:      -7.5      0.000      0.000
REMARK  Name = 
REMARK  4 active torsions:
REMARK  status: ('A' for Active; 'I' for Inactive)
REMARK    1  A    between atoms: C_1  and  C_2
REMARK    2  A    between atoms: C_5  and  N_6
REMARK    3  A    between atoms: C_11  and  N_12
REMARK    4  A    between atoms: C_17  and  C_18
REMARK                            x       y       z     vdW  Elec       q    Type
REMARK                         _______ _______ _______ _____ _____    ______ ____
ROOT
ATOM      1  N   UNL     1       4.298   3.872  17.223  0.00  0.00    +0.000 N 
ATOM      2  N   UNL     1       2.986   3.675  16.946  0.00  0.00    +0.000 NA
ATOM      3  C   UNL     1       2.469   3.360  18.139  0.00  0.00    +0.000 A 
ATOM      4  C   UNL     1       1.156   2.991  18.463  0.00  0.00    +0.000 A 
ATOM      5  C   UNL     1       0.950   2.735  19.833  0.00  0.00    +0.000 A 
ATOM      6  C   UNL     1       1.951   2.903  20.836  0.00  0.00    +0.000 A 
ATOM      7  C   UNL     1       3.285   3.220  20.508  0.00  0.00    +0.000 A 
ATOM      8  C   UNL     1       3.526   3.449  19.141  0.00  0.00    +0.000 A 
ATOM      9  N   UNL     1       4.672   3.750  18.520  0.00  0.00    +0.000 NA
ENDROOT
BRANCH   1  14
ATOM     10  C   UNL     1       8.039   5.276  13.114  0.00  0.00    +0.000 C 
ATOM     11  C   UNL     1       7.054   4.879  14.179  0.00  0.00    +0.000 A 
ATOM     12  C   UNL     1       7.193   5.403  15.473  0.00  0.00    +0.000 A 
ATOM     13  C   UNL     1       6.282   5.081  16.478  0.00  0.00    +0.000 A 
ATOM     14  C   UNL     1       5.230   4.200  16.205  0.00  0.00    +0.000 A 
ATOM     15  C   UNL     1       5.093   3.652  14.922  0.00  0.00    +0.000 A 
ATOM     16  C   UNL     1       5.983   4.003  13.895  0.00  0.00    +0.000 A 
ATOM     17  C   UNL     1       5.765   3.455  12.511  0.00  0.00    +0.000 C 
ENDBRANCH   1  14
BRANCH   6  18
ATOM     18  N   UNL     1       1.649   2.522  22.158  0.00  0.00    +0.000 N 
ATOM     19  H   UNL     1       0.928   3.085  22.599  0.00  0.00    +0.000 HD
ATOM     20  H   UNL     1       2.467   2.413  22.751  0.00  0.00    +0.000 HD
ENDBRANCH   6  18
TORSDOF 2
ENDMDL
MODEL 2
REMARK VINA RESULT:      -7.3      1.043      1.217
REMARK  Name = 
REMARK  4 active torsions:
REMARK  status: ('A' for Active; 'I' for Inactive)
REMARK    1  A    between atoms: C_1  and  C_2
REMARK    2  A    between atoms: C_5  and  N_6
REMARK    3  A    between atoms: C_11  and  N_12
REMARK    4  A    between atoms: C_17  and  C_18
REMARK                            x       y       z     vdW  Elec       q    Type
REMARK                         _______ _______ _______ _____ _____    ______ ____
ROOT
ATOM      1  N   UNL     1       4.595   4.460  17.552  0.00  0.00    +0.000 N 
ATOM      2  N   UNL     1       3.847   5.487  18.022  0.00  0.00    +0.000 NA
ATOM      3  C   UNL     1       3.198   4.941  19.057  0.00  0.00    +0.000 A 
ATOM      4  C   UNL     1       2.232   5.514  19.895  0.00  0.00    +0.000 A 
ATOM      5  C   UNL     1       1.760   4.652  20.905  0.00  0.00    +0.000 A 
ATOM      6  C   UNL     1       2.258   3.333  21.126  0.00  0.00    +0.000 A 
ATOM      7  C   UNL     1       3.189   2.734  20.252  0.00  0.00    +0.000 A 
ATOM      8  C   UNL     1       3.653   3.564  19.215  0.00  0.00    +0.000 A 
ATOM      9  N   UNL     1       4.516   3.288  18.230  0.00  0.00    +0.000 NA
ENDROOT
BRANCH   1  14
ATOM     10  C   UNL     1       7.939   5.134  12.947  0.00  0.00    +0.000 C 
ATOM     11  C   UNL     1       7.054   4.928  14.145  0.00  0.00    +0.000 A 
ATOM     12  C   UNL     1       7.388   5.546  15.359  0.00  0.00    +0.000 A 
ATOM     13  C   UNL     1       6.576   5.401  16.484  0.00  0.00    +0.000 A 
ATOM     14  C   UNL     1       5.427   4.607  16.413  0.00  0.00    +0.000 A 
ATOM     15  C   UNL     1       5.094   3.966  15.211  0.00  0.00    +0.000 A 
ATOM     16  C   UNL     1       5.885   4.140  14.064  0.00  0.00    +0.000 A 
ATOM     17  C   UNL     1       5.460   3.498  12.771  0.00  0.00    +0.000 C 
ENDBRANCH   1  14
BRANCH   6  18
ATOM     18  N   UNL     1       1.637   2.535  22.106  0.00  0.00    +0.000 N 
ATOM     19  H   UNL     1       2.160   2.458  22.974  0.00  0.00    +0.000 HD
ATOM     20  H   UNL     1       1.327   1.630  21.764  0.00  0.00    +0.000 HD
ENDBRANCH   6  18
TORSDOF 2
ENDMDL
MODEL 3
REMARK VINA RESULT:      -7.2      4.901      6.645
REMARK  Name = 
REMARK  4 active torsions:
REMARK  status: ('A' for Active; 'I' for Inactive)
REMARK    1  A    between atoms: C_1  and  C_2
REMARK    2  A    between atoms: C_5  and  N_6
REMARK    3  A    between atoms: C_11  and  N_12
REMARK    4  A    between atoms: C_17  and  C_18
REMARK                            x       y       z     vdW  Elec       q    Type
REMARK                         _______ _______ _______ _____ _____    ______ ____
ROOT
ATOM      1  N   UNL     1       2.299   6.649  19.809  0.00  0.00    +0.000 N 
ATOM      2  N   UNL     1       1.697   5.863  20.734  0.00  0.00    +0.000 NA
ATOM      3  C   UNL     1       2.377   4.714  20.645  0.00  0.00    +0.000 A 
ATOM      4  C   UNL     1       2.163   3.507  21.323  0.00  0.00    +0.000 A 
ATOM      5  C   UNL     1       3.083   2.490  20.996  0.00  0.00    +0.000 A 
ATOM      6  C   UNL     1       4.189   2.669  20.113  0.00  0.00    +0.000 A 
ATOM      7  C   UNL     1       4.375   3.864  19.387  0.00  0.00    +0.000 A 
ATOM      8  C   UNL     1       3.451   4.885  19.672  0.00  0.00    +0.000 A 
ATOM      9  N   UNL     1       3.353   6.112  19.145  0.00  0.00    +0.000 NA
ENDROOT
BRANCH   1  14
ATOM     10  C   UNL     1       0.575  12.016  18.773  0.00  0.00    +0.000 C 
ATOM     11  C   UNL     1       1.003  10.604  19.065  0.00  0.00    +0.000 A 
ATOM     12  C   UNL     1       1.658   9.865  18.068  0.00  0.00    +0.000 A 
ATOM     13  C   UNL     1       2.095   8.564  18.311  0.00  0.00    +0.000 A 
ATOM     14  C   UNL     1       1.853   7.971  19.554  0.00  0.00    +0.000 A 
ATOM     15  C   UNL     1       1.180   8.690  20.552  0.00  0.00    +0.000 A 
ATOM     16  C   UNL     1       0.773  10.015  20.327  0.00  0.00    +0.000 A 
ATOM     17  C   UNL     1       0.118  10.784  21.443  0.00  0.00    +0.000 C 
ENDBRANCH   1  14
BRANCH   6  18
ATOM     18  N   UNL     1       4.981   1.550  19.791  0.00  0.00    +0.000 N 
ATOM     19  H   UNL     1       4.509   0.858  19.215  0.00  0.00    +0.000 HD
ATOM     20  H   UNL     1       5.446   1.131  20.590  0.00  0.00    +0.000 HD
ENDBRANCH   6  18
TORSDOF 2
ENDMDL
MODEL 4
REMARK VINA RESULT:      -7.0      5.163      5.716
REMARK  Name = 
REMARK  4 active torsions:
REMARK  status: ('A' for Active; 'I' for Inactive)
REMARK    1  A    between atoms: C_1  and  C_2
REMARK    2  A    between atoms: C_5  and  N_6
REMARK    3  A    between atoms: C_11  and  N_12
REMARK    4  A    between atoms: C_17  and  C_18
REMARK                            x       y       z     vdW  Elec       q    Type
REMARK                         _______ _______ _______ _____ _____    ______ ____
ROOT
ATOM      1  N   UNL     1       2.198   7.708  19.038  0.00  0.00    +0.000 N 
ATOM      2  N   UNL     1       1.729   8.859  18.498  0.00  0.00    +0.000 NA
ATOM      3  C   UNL     1       1.043   9.409  19.506  0.00  0.00    +0.000 A 
ATOM      4  C   UNL     1       0.283  10.587  19.519  0.00  0.00    +0.000 A 
ATOM      5  C   UNL     1      -0.303  10.882  20.766  0.00  0.00    +0.000 A 
ATOM      6  C   UNL     1      -0.098  10.109  21.948  0.00  0.00    +0.000 A 
ATOM      7  C   UNL     1       0.619   8.895  21.926  0.00  0.00    +0.000 A 
ATOM      8  C   UNL     1       1.190   8.560  20.685  0.00  0.00    +0.000 A 
ATOM      9  N   UNL     1       1.904   7.482  20.342  0.00  0.00    +0.000 NA
ENDROOT
BRANCH   1  14
ATOM     10  C   UNL     1       5.284   4.039  15.897  0.00  0.00    +0.000 C 
ATOM     11  C   UNL     1       4.469   4.979  16.742  0.00  0.00    +0.000 A 
ATOM     12  C   UNL     1       4.794   6.343  16.760  0.00  0.00    +0.000 A 
ATOM     13  C   UNL     1       4.043   7.249  17.509  0.00  0.00    +0.000 A 
ATOM     14  C   UNL     1       2.968   6.791  18.277  0.00  0.00    +0.000 A 
ATOM     15  C   UNL     1       2.646   5.426  18.286  0.00  0.00    +0.000 A 
ATOM     16  C   UNL     1       3.373   4.515  17.503  0.00  0.00    +0.000 A 
ATOM     17  C   UNL     1       2.956   3.070  17.476  0.00  0.00    +0.000 C 
ENDBRANCH   1  14
BRANCH   6  18
ATOM     18  N   UNL     1      -0.817  10.451  23.109  0.00  0.00    +0.000 N 
ATOM     19  H   UNL     1      -1.691   9.946  23.222  0.00  0.00    +0.000 HD
ATOM     20  H   UNL     1      -0.932  11.452  23.242  0.00  0.00    +0.000 HD
ENDBRANCH   6  18
TORSDOF 2
ENDMDL
MODEL 5
REMARK VINA RESULT:      -6.9      4.623      7.337
REMARK  Name = 
REMARK  4 active torsions:
REMARK  status: ('A' for Active; 'I' for Inactive)
REMARK    1  A    between atoms: C_1  and  C_2
REMARK    2  A    between atoms: C_5  and  N_6
REMARK    3  A    between atoms: C_11  and  N_12
REMARK    4  A    between atoms: C_17  and  C_18
REMARK                            x       y       z     vdW  Elec       q    Type
REMARK                         _______ _______ _______ _____ _____    ______ ____
ROOT
ATOM      1  N   UNL     1       3.001   7.168  18.050  0.00  0.00    +0.000 N 
ATOM      2  N   UNL     1       2.777   5.832  18.066  0.00  0.00    +0.000 NA
ATOM      3  C   UNL     1       3.826   5.341  17.396  0.00  0.00    +0.000 A 
ATOM      4  C   UNL     1       4.106   4.014  17.043  0.00  0.00    +0.000 A 
ATOM      5  C   UNL     1       5.317   3.847  16.342  0.00  0.00    +0.000 A 
ATOM      6  C   UNL     1       6.234   4.905  16.068  0.00  0.00    +0.000 A 
ATOM      7  C   UNL     1       5.931   6.249  16.373  0.00  0.00    +0.000 A 
ATOM      8  C   UNL     1       4.712   6.447  17.046  0.00  0.00    +0.000 A 
ATOM      9  N   UNL     1       4.143   7.589  17.452  0.00  0.00    +0.000 NA
ENDROOT
BRANCH   1  14
ATOM     10  C   UNL     1      -0.637  10.917  20.409  0.00  0.00    +0.000 C 
ATOM     11  C   UNL     1       0.309   9.912  19.812  0.00  0.00    +0.000 A 
ATOM     12  C   UNL     1       0.560   9.941  18.432  0.00  0.00    +0.000 A 
ATOM     13  C   UNL     1       1.453   9.044  17.847  0.00  0.00    +0.000 A 
ATOM     14  C   UNL     1       2.088   8.081  18.638  0.00  0.00    +0.000 A 
ATOM     15  C   UNL     1       1.829   8.027  20.015  0.00  0.00    +0.000 A 
ATOM     16  C   UNL     1       0.961   8.953  20.617  0.00  0.00    +0.000 A 
ATOM     17  C   UNL     1       0.762   8.915  22.108  0.00  0.00    +0.000 C 
ENDBRANCH   1  14
BRANCH   6  18
ATOM     18  N   UNL     1       7.364   4.629  15.275  0.00  0.00    +0.000 N 
ATOM     19  H   UNL     1       7.373   5.110  14.380  0.00  0.00    +0.000 HD
ATOM     20  H   UNL     1       7.567   3.638  15.180  0.00  0.00    +0.000 HD
ENDBRANCH   6  18
TORSDOF 2
ENDMDL
MODEL 6
REMARK VINA RESULT:      -6.8      5.030      7.358
REMARK  Name = 
REMARK  4 active torsions:
REMARK  status: ('A' for Active; 'I' for Inactive)
REMARK    1  A    between atoms: C_1  and  C_2
REMARK    2  A    between atoms: C_5  and  N_6
REMARK    3  A    between atoms: C_11  and  N_12
REMARK    4  A    between atoms: C_17  and  C_18
REMARK                            x       y       z     vdW  Elec       q    Type
REMARK                         _______ _______ _______ _____ _____    ______ ____
ROOT
ATOM      1  N   UNL     1       2.197   6.988  19.508  0.00  0.00    +0.000 N 
ATOM      2  N   UNL     1       2.840   6.946  18.317  0.00  0.00    +0.000 NA
ATOM      3  C   UNL     1       3.314   5.695  18.272  0.00  0.00    +0.000 A 
ATOM      4  C   UNL     1       4.118   5.089  17.296  0.00  0.00    +0.000 A 
ATOM      5  C   UNL     1       4.426   3.740  17.559  0.00  0.00    +0.000 A 
ATOM      6  C   UNL     1       3.918   3.007  18.673  0.00  0.00    +0.000 A 
ATOM      7  C   UNL     1       3.156   3.627  19.685  0.00  0.00    +0.000 A 
ATOM      8  C   UNL     1       2.859   4.984  19.462  0.00  0.00    +0.000 A 
ATOM      9  N   UNL     1       2.178   5.841  20.232  0.00  0.00    +0.000 NA
ENDROOT
BRANCH   1  14
ATOM     10  C   UNL     1      -0.284  11.809  21.365  0.00  0.00    +0.000 C 
ATOM     11  C   UNL     1       0.348  10.527  20.898  0.00  0.00    +0.000 A 
ATOM     12  C   UNL     1       0.814  10.433  19.578  0.00  0.00    +0.000 A 
ATOM     13  C   UNL     1       1.432   9.271  19.117  0.00  0.00    +0.000 A 
ATOM     14  C   UNL     1       1.566   8.171  19.970  0.00  0.00    +0.000 A 
ATOM     15  C   UNL     1       1.084   8.244  21.285  0.00  0.00    +0.000 A 
ATOM     16  C   UNL     1       0.497   9.425  21.767  0.00  0.00    +0.000 A 
ATOM     17  C   UNL     1       0.058   9.495  23.204  0.00  0.00    +0.000 C 
ENDBRANCH   1  14
BRANCH   6  18
ATOM     18  N   UNL     1       4.377   1.692  18.879  0.00  0.00    +0.000 N 
ATOM     19  H   UNL     1       5.389   1.604  18.908  0.00  0.00    +0.000 HD
ATOM     20  H   UNL     1       3.950   1.006  18.265  0.00  0.00    +0.000 HD
ENDBRANCH   6  18
TORSDOF 2
ENDMDL
MODEL 7
REMARK VINA RESULT:      -6.8      5.035      5.599
REMARK  Name = 
REMARK  4 active torsions:
REMARK  status: ('A' for Active; 'I' for Inactive)
REMARK    1  A    between atoms: C_1  and  C_2
REMARK    2  A    between atoms: C_5  and  N_6
REMARK    3  A    between atoms: C_11  and  N_12
REMARK    4  A    between atoms: C_17  and  C_18
REMARK                            x       y       z     vdW  Elec       q    Type
REMARK                         _______ _______ _______ _____ _____    ______ ____
ROOT
ATOM      1  N   UNL     1       2.554   7.453  18.668  0.00  0.00    +0.000 N 
ATOM      2  N   UNL     1       2.203   7.222  19.956  0.00  0.00    +0.000 NA
ATOM      3  C   UNL     1       1.479   8.302  20.271  0.00  0.00    +0.000 A 
ATOM      4  C   UNL     1       0.898   8.649  21.499  0.00  0.00    +0.000 A 
ATOM      5  C   UNL     1       0.185   9.864  21.477  0.00  0.00    +0.000 A 
ATOM      6  C   UNL     1      -0.009  10.655  20.305  0.00  0.00    +0.000 A 
ATOM      7  C   UNL     1       0.619  10.339  19.083  0.00  0.00    +0.000 A 
ATOM      8  C   UNL     1       1.364   9.145  19.086  0.00  0.00    +0.000 A 
ATOM      9  N   UNL     1       2.078   8.589  18.100  0.00  0.00    +0.000 NA
ENDROOT
BRANCH   1  14
ATOM     10  C   UNL     1       5.822   3.810  15.686  0.00  0.00    +0.000 C 
ATOM     11  C   UNL     1       4.964   4.744  16.492  0.00  0.00    +0.000 A 
ATOM     12  C   UNL     1       5.130   6.129  16.344  0.00  0.00    +0.000 A 
ATOM     13  C   UNL     1       4.333   7.027  17.053  0.00  0.00    +0.000 A 
ATOM     14  C   UNL     1       3.371   6.545  17.947  0.00  0.00    +0.000 A 
ATOM     15  C   UNL     1       3.210   5.163  18.121  0.00  0.00    +0.000 A 
ATOM     16  C   UNL     1       3.982   4.254  17.381  0.00  0.00    +0.000 A 
ATOM     17  C   UNL     1       3.733   2.778  17.536  0.00  0.00    +0.000 C 
ENDBRANCH   1  14
BRANCH   6  18
ATOM     18  N   UNL     1      -0.658  11.898  20.432  0.00  0.00    +0.000 N 
ATOM     19  H   UNL     1      -1.305  11.953  21.214  0.00  0.00    +0.000 HD
ATOM     20  H   UNL     1      -1.070  12.237  19.568  0.00  0.00    +0.000 HD
ENDBRANCH   6  18
TORSDOF 2
ENDMDL
MODEL 8
REMARK VINA RESULT:      -6.8      5.067      7.626
REMARK  Name = 
REMARK  4 active torsions:
REMARK  status: ('A' for Active; 'I' for Inactive)
REMARK    1  A    between atoms: C_1  and  C_2
REMARK    2  A    between atoms: C_5  and  N_6
REMARK    3  A    between atoms: C_11  and  N_12
REMARK    4  A    between atoms: C_17  and  C_18
REMARK                            x       y       z     vdW  Elec       q    Type
REMARK                         _______ _______ _______ _____ _____    ______ ____
ROOT
ATOM      1  N   UNL     1       2.325   7.209  19.403  0.00  0.00    +0.000 N 
ATOM      2  N   UNL     1       2.407   6.049  20.097  0.00  0.00    +0.000 NA
ATOM      3  C   UNL     1       3.165   5.277  19.310  0.00  0.00    +0.000 A 
ATOM      4  C   UNL     1       3.541   3.938  19.483  0.00  0.00    +0.000 A 
ATOM      5  C   UNL     1       4.364   3.432  18.456  0.00  0.00    +0.000 A 
ATOM      6  C   UNL     1       4.849   4.213  17.365  0.00  0.00    +0.000 A 
ATOM      7  C   UNL     1       4.429   5.543  17.158  0.00  0.00    +0.000 A 
ATOM      8  C   UNL     1       3.581   6.063  18.153  0.00  0.00    +0.000 A 
ATOM      9  N   UNL     1       3.009   7.270  18.233  0.00  0.00    +0.000 NA
ENDROOT
BRANCH   1  14
ATOM     10  C   UNL     1      -0.669  11.702  21.327  0.00  0.00    +0.000 C 
ATOM     11  C   UNL     1       0.101  10.505  20.842  0.00  0.00    +0.000 A 
ATOM     12  C   UNL     1       0.524  10.455  19.506  0.00  0.00    +0.000 A 
ATOM     13  C   UNL     1       1.265   9.375  19.028  0.00  0.00    +0.000 A 
ATOM     14  C   UNL     1       1.568   8.309  19.882  0.00  0.00    +0.000 A 
ATOM     15  C   UNL     1       1.132   8.336  21.214  0.00  0.00    +0.000 A 
ATOM     16  C   UNL     1       0.420   9.439  21.712  0.00  0.00    +0.000 A 
ATOM     17  C   UNL     1       0.031   9.470  23.165  0.00  0.00    +0.000 C 
ENDBRANCH   1  14
BRANCH   6  18
ATOM     18  N   UNL     1       5.584   3.568  16.352  0.00  0.00    +0.000 N 
ATOM     19  H   UNL     1       5.043   3.346  15.521  0.00  0.00    +0.000 HD
ATOM     20  H   UNL     1       6.128   2.775  16.679  0.00  0.00    +0.000 HD
ENDBRANCH   6  18
TORSDOF 2
ENDMDL
MODEL 9
REMARK VINA RESULT:      -6.8      4.535      7.282
REMARK  Name = 
REMARK  4 active torsions:
REMARK  status: ('A' for Active; 'I' for Inactive)
REMARK    1  A    between atoms: C_1  and  C_2
REMARK    2  A    between atoms: C_5  and  N_6
REMARK    3  A    between atoms: C_11  and  N_12
REMARK    4  A    between atoms: C_17  and  C_18
REMARK                            x       y       z     vdW  Elec       q    Type
REMARK                         _______ _______ _______ _____ _____    ______ ____
ROOT
ATOM      1  N   UNL     1       3.028   6.894  18.336  0.00  0.00    +0.000 N 
ATOM      2  N   UNL     1       3.018   5.547  18.479  0.00  0.00    +0.000 NA
ATOM      3  C   UNL     1       3.892   5.137  17.553  0.00  0.00    +0.000 A 
ATOM      4  C   UNL     1       4.252   3.830  17.194  0.00  0.00    +0.000 A 
ATOM      5  C   UNL     1       5.223   3.758  16.176  0.00  0.00    +0.000 A 
ATOM      6  C   UNL     1       5.858   4.897  15.596  0.00  0.00    +0.000 A 
ATOM      7  C   UNL     1       5.460   6.212  15.914  0.00  0.00    +0.000 A 
ATOM      8  C   UNL     1       4.468   6.312  16.907  0.00  0.00    +0.000 A 
ATOM      9  N   UNL     1       3.878   7.402  17.410  0.00  0.00    +0.000 NA
ENDROOT
BRANCH   1  14
ATOM     10  C   UNL     1      -0.385  10.216  21.525  0.00  0.00    +0.000 C 
ATOM     11  C   UNL     1       0.521   9.370  20.672  0.00  0.00    +0.000 A 
ATOM     12  C   UNL     1       1.079   8.202  21.213  0.00  0.00    +0.000 A 
ATOM     13  C   UNL     1       1.899   7.377  20.444  0.00  0.00    +0.000 A 
ATOM     14  C   UNL     1       2.197   7.730  19.124  0.00  0.00    +0.000 A 
ATOM     15  C   UNL     1       1.664   8.907  18.579  0.00  0.00    +0.000 A 
ATOM     16  C   UNL     1       0.805   9.721  19.334  0.00  0.00    +0.000 A 
ATOM     17  C   UNL     1       0.191  10.937  18.696  0.00  0.00    +0.000 C 
ENDBRANCH   1  14
BRANCH   6  18
ATOM     18  N   UNL     1       6.743   4.698  14.519  0.00  0.00    +0.000 N 
ATOM     19  H   UNL     1       6.415   5.077  13.635  0.00  0.00    +0.000 HD
ATOM     20  H   UNL     1       7.071   3.741  14.428  0.00  0.00    +0.000 HD
ENDBRANCH   6  18
TORSDOF 2
ENDMDL
