MODEL 1
REMARK VINA RESULT:      -7.3      0.000      0.000
REMARK  Name = 
REMARK  8 active torsions:
REMARK  status: ('A' for Active; 'I' for Inactive)
REMARK    1  A    between atoms: C_1  and  C_2
REMARK    2  A    between atoms: C_2  and  C_3
REMARK    3  A    between atoms: C_8  and  C_9
REMARK    4  A    between atoms: C_12  and  O_13
REMARK    5  A    between atoms: O_13  and  C_14
REMARK    6  A    between atoms: C_14  and  C_15
REMARK    7  A    between atoms: C_15  and  O_17
REMARK    8  A    between atoms: C_19  and  O_20
REMARK                            x       y       z     vdW  Elec       q    Type
REMARK                         _______ _______ _______ _____ _____    ______ ____
ROOT
ATOM      1  C   UNL     1       4.352   4.931  17.937  0.00  0.00    +0.000 A 
ATOM      2  C   UNL     1       4.823   6.244  17.717  0.00  0.00    +0.000 A 
ATOM      3  C   UNL     1       5.801   6.517  16.746  0.00  0.00    +0.000 A 
ATOM      4  C   UNL     1       6.320   5.481  15.977  0.00  0.00    +0.000 A 
ATOM      5  C   UNL     1       5.879   4.180  16.191  0.00  0.00    +0.000 A 
ATOM      6  C   UNL     1       4.901   3.908  17.152  0.00  0.00    +0.000 A 
ENDROOT
BRANCH   1  11
ATOM      7  C   UNL     1       0.682   3.236  19.709  0.00  0.00    +0.000 C 
ATOM      8  C   UNL     1       1.934   3.671  20.480  0.00  0.00    +0.000 C 
ATOM      9  C   UNL     1       1.846   5.080  21.038  0.00  0.00    +0.000 C 
ATOM     10  S   UNL     1       2.409   6.078  19.661  0.00  0.00    +0.000 S 
ATOM     11  C   UNL     1       3.346   4.737  19.025  0.00  0.00    +0.000 C 
ATOM     12  N   UNL     1       3.110   3.574  19.558  0.00  0.00    +0.000 NA
BRANCH   8  13
ATOM     13  C   UNL     1       2.015   2.720  21.677  0.00  0.00    +0.000 C 
ATOM     14  O   UNL     1       3.146   2.240  22.014  0.00  0.00    +0.000 OA
ATOM     15  O   UNL     1       1.004   2.480  22.403  0.00  0.00    +0.000 OA
ENDBRANCH   8  13
ENDBRANCH   1  11
BRANCH   6  16
ATOM     16  O   UNL     1       4.519   2.606  17.293  0.00  0.00    +0.000 OA
ATOM     17  H   UNL     1       3.575   2.541  17.500  0.00  0.00    +0.000 HD
ENDBRANCH   6  16
BRANCH   4  18
ATOM     18  O   UNL     1       7.277   5.595  15.007  0.00  0.00    +0.000 OA
BRANCH  18  19
ATOM     19  C   UNL     1       7.179   4.674  13.918  0.00  0.00    +0.000 C 
BRANCH  19  20
ATOM     20  C   UNL     1       7.899   5.281  12.726  0.00  0.00    +0.000 C 
ATOM     21  O   UNL     1       7.580   5.080  11.563  0.00  0.00    +0.000 OA
BRANCH  20  22
ATOM     22  O   UNL     1       8.948   6.071  13.066  0.00  0.00    +0.000 OA
ATOM     23  H   UNL     1       9.712   5.509  13.324  0.00  0.00    +0.000 HD
ENDBRANCH  20  22
ENDBRANCH  19  20
ENDBRANCH  18  19
ENDBRANCH   4  18
TORSDOF 7
ENDMDL
MODEL 2
REMARK VINA RESULT:      -7.3      4.124      7.976
REMARK  Name = 
REMARK  8 active torsions:
REMARK  status: ('A' for Active; 'I' for Inactive)
REMARK    1  A    between atoms: C_1  and  C_2
REMARK    2  A    between atoms: C_2  and  C_3
REMARK    3  A    between atoms: C_8  and  C_9
REMARK    4  A    between atoms: C_12  and  O_13
REMARK    5  A    between atoms: O_13  and  C_14
REMARK    6  A    between atoms: C_14  and  C_15
REMARK    7  A    between atoms: C_15  and  O_17
REMARK    8  A    between atoms: C_19  and  O_20
REMARK                            x       y       z     vdW  Elec       q    Type
REMARK                         _______ _______ _______ _____ _____    ______ ____
ROOT
ATOM      1  C   UNL     1       2.951   6.896  18.593  0.00  0.00    +0.000 A 
ATOM      2  C   UNL     1       2.579   8.047  17.867  0.00  0.00    +0.000 A 
ATOM      3  C   UNL     1       1.759   9.038  18.435  0.00  0.00    +0.000 A 
ATOM      4  C   UNL     1       1.303   8.892  19.741  0.00  0.00    +0.000 A 
ATOM      5  C   UNL     1       1.648   7.756  20.465  0.00  0.00    +0.000 A 
ATOM      6  C   UNL     1       2.468   6.775  19.904  0.00  0.00    +0.000 A 
ENDROOT
BRANCH   1  11
ATOM      7  C   UNL     1       5.477   5.422  15.287  0.00  0.00    +0.000 C 
ATOM      8  C   UNL     1       5.551   4.963  16.748  0.00  0.00    +0.000 C 
ATOM      9  C   UNL     1       4.758   3.700  17.029  0.00  0.00    +0.000 C 
ATOM     10  S   UNL     1       3.118   4.340  17.367  0.00  0.00    +0.000 S 
ATOM     11  C   UNL     1       3.787   5.879  17.885  0.00  0.00    +0.000 C 
ATOM     12  N   UNL     1       5.043   6.073  17.616  0.00  0.00    +0.000 NA
BRANCH   8  13
ATOM     13  C   UNL     1       7.027   4.627  16.985  0.00  0.00    +0.000 C 
ATOM     14  O   UNL     1       7.830   4.621  15.996  0.00  0.00    +0.000 OA
ATOM     15  O   UNL     1       7.487   4.455  18.154  0.00  0.00    +0.000 OA
ENDBRANCH   8  13
ENDBRANCH   1  11
BRANCH   6  16
ATOM     16  O   UNL     1       2.765   5.696  20.685  0.00  0.00    +0.000 OA
ATOM     17  H   UNL     1       3.391   5.934  21.384  0.00  0.00    +0.000 HD
ENDBRANCH   6  16
BRANCH   4  18
ATOM     18  O   UNL     1       0.497   9.765  20.417  0.00  0.00    +0.000 OA
BRANCH  18  19
ATOM     19  C   UNL     1      -0.295   9.202  21.466  0.00  0.00    +0.000 C 
BRANCH  19  20
ATOM     20  C   UNL     1      -0.171  10.106  22.682  0.00  0.00    +0.000 C 
ATOM     21  O   UNL     1      -0.149  11.326  22.623  0.00  0.00    +0.000 OA
BRANCH  20  22
ATOM     22  O   UNL     1      -0.076   9.431  23.854  0.00  0.00    +0.000 OA
ATOM     23  H   UNL     1      -0.764   8.730  23.886  0.00  0.00    +0.000 HD
ENDBRANCH  20  22
ENDBRANCH  19  20
ENDBRANCH  18  19
ENDBRANCH   4  18
TORSDOF 7
ENDMDL
MODEL 3
REMARK VINA RESULT:      -7.2      0.819      1.082
REMARK  Name = 
REMARK  8 active torsions:
REMARK  status: ('A' for Active; 'I' for Inactive)
REMARK    1  A    between atoms: C_1  and  C_2
REMARK    2  A    between atoms: C_2  and  C_3
REMARK    3  A    between atoms: C_8  and  C_9
REMARK    4  A    between atoms: C_12  and  O_13
REMARK    5  A    between atoms: O_13  and  C_14
REMARK    6  A    between atoms: C_14  and  C_15
REMARK    7  A    between atoms: C_15  and  O_17
REMARK    8  A    between atoms: C_19  and  O_20
REMARK                            x       y       z     vdW  Elec       q    Type
REMARK                         _______ _______ _______ _____ _____    ______ ____
ROOT
ATOM      1  C   UNL     1       4.021   4.931  17.659  0.00  0.00    +0.000 A 
ATOM      2  C   UNL     1       4.254   6.256  17.231  0.00  0.00    +0.000 A 
ATOM      3  C   UNL     1       5.083   6.535  16.131  0.00  0.00    +0.000 A 
ATOM      4  C   UNL     1       5.689   5.490  15.440  0.00  0.00    +0.000 A 
ATOM      5  C   UNL     1       5.483   4.180  15.858  0.00  0.00    +0.000 A 
ATOM      6  C   UNL     1       4.653   3.902  16.948  0.00  0.00    +0.000 A 
ENDROOT
BRANCH   1  11
ATOM      7  C   UNL     1       0.566   3.308  19.874  0.00  0.00    +0.000 C 
ATOM      8  C   UNL     1       1.923   3.687  20.478  0.00  0.00    +0.000 C 
ATOM      9  C   UNL     1       1.957   5.084  21.071  0.00  0.00    +0.000 C 
ATOM     10  S   UNL     1       2.365   6.097  19.650  0.00  0.00    +0.000 S 
ATOM     11  C   UNL     1       3.163   4.743  18.868  0.00  0.00    +0.000 C 
ATOM     12  N   UNL     1       2.962   3.576  19.405  0.00  0.00    +0.000 NA
BRANCH   8  13
ATOM     13  C   UNL     1       2.131   2.705  21.635  0.00  0.00    +0.000 C 
ATOM     14  O   UNL     1       3.300   2.256  21.866  0.00  0.00    +0.000 OA
ATOM     15  O   UNL     1       1.189   2.409  22.431  0.00  0.00    +0.000 OA
ENDBRANCH   8  13
ENDBRANCH   1  11
BRANCH   6  16
ATOM     16  O   UNL     1       4.499   2.590  17.288  0.00  0.00    +0.000 OA
ATOM     17  H   UNL     1       3.561   2.358  17.364  0.00  0.00    +0.000 HD
ENDBRANCH   6  16
BRANCH   4  18
ATOM     18  O   UNL     1       6.522   5.610  14.363  0.00  0.00    +0.000 OA
BRANCH  18  19
ATOM     19  C   UNL     1       7.319   4.463  14.057  0.00  0.00    +0.000 C 
BRANCH  19  20
ATOM     20  C   UNL     1       6.976   4.019  12.644  0.00  0.00    +0.000 C 
ATOM     21  O   UNL     1       7.364   4.592  11.637  0.00  0.00    +0.000 OA
BRANCH  20  22
ATOM     22  O   UNL     1       6.184   2.919  12.597  0.00  0.00    +0.000 OA
ATOM     23  H   UNL     1       5.475   3.054  11.930  0.00  0.00    +0.000 HD
ENDBRANCH  20  22
ENDBRANCH  19  20
ENDBRANCH  18  19
ENDBRANCH   4  18
TORSDOF 7
ENDMDL
MODEL 4
REMARK VINA RESULT:      -7.2      1.165      1.338
REMARK  Name = 
REMARK  8 active torsions:
REMARK  status: ('A' for Active; 'I' for Inactive)
REMARK    1  A    between atoms: C_1  and  C_2
REMARK    2  A    between atoms: C_2  and  C_3
REMARK    3  A    between atoms: C_8  and  C_9
REMARK    4  A    between atoms: C_12  and  O_13
REMARK    5  A    between atoms: O_13  and  C_14
REMARK    6  A    between atoms: C_14  and  C_15
REMARK    7  A    between atoms: C_15  and  O_17
REMARK    8  A    between atoms: C_19  and  O_20
REMARK                            x       y       z     vdW  Elec       q    Type
REMARK                         _______ _______ _______ _____ _____    ______ ____
ROOT
ATOM      1  C   UNL     1       4.786   4.593  17.919  0.00  0.00    +0.000 A 
ATOM      2  C   UNL     1       4.425   4.385  16.570  0.00  0.00    +0.000 A 
ATOM      3  C   UNL     1       5.364   4.516  15.532  0.00  0.00    +0.000 A 
ATOM      4  C   UNL     1       6.680   4.854  15.830  0.00  0.00    +0.000 A 
ATOM      5  C   UNL     1       7.049   5.078  17.151  0.00  0.00    +0.000 A 
ATOM      6  C   UNL     1       6.118   4.941  18.185  0.00  0.00    +0.000 A 
ENDROOT
BRANCH   1  11
ATOM      7  C   UNL     1       0.999   3.017  19.549  0.00  0.00    +0.000 C 
ATOM      8  C   UNL     1       2.192   3.517  20.371  0.00  0.00    +0.000 C 
ATOM      9  C   UNL     1       2.065   4.963  20.813  0.00  0.00    +0.000 C 
ATOM     10  S   UNL     1       2.725   5.857  19.408  0.00  0.00    +0.000 S 
ATOM     11  C   UNL     1       3.705   4.476  18.944  0.00  0.00    +0.000 C 
ATOM     12  N   UNL     1       3.432   3.356  19.546  0.00  0.00    +0.000 NA
BRANCH   8  13
ATOM     13  C   UNL     1       2.188   2.659  21.640  0.00  0.00    +0.000 C 
ATOM     14  O   UNL     1       3.269   2.098  22.015  0.00  0.00    +0.000 OA
ATOM     15  O   UNL     1       1.163   2.578  22.382  0.00  0.00    +0.000 OA
ENDBRANCH   8  13
ENDBRANCH   1  11
BRANCH   6  16
ATOM     16  O   UNL     1       6.564   5.171  19.453  0.00  0.00    +0.000 OA
ATOM     17  H   UNL     1       5.845   5.083  20.096  0.00  0.00    +0.000 HD
ENDBRANCH   6  16
BRANCH   4  18
ATOM     18  O   UNL     1       7.694   5.024  14.929  0.00  0.00    +0.000 OA
BRANCH  18  19
ATOM     19  C   UNL     1       7.339   4.876  13.552  0.00  0.00    +0.000 C 
BRANCH  19  20
ATOM     20  C   UNL     1       8.196   5.835  12.742  0.00  0.00    +0.000 C 
ATOM     21  O   UNL     1       7.854   6.315  11.672  0.00  0.00    +0.000 OA
BRANCH  20  22
ATOM     22  O   UNL     1       9.394   6.110  13.314  0.00  0.00    +0.000 OA
ATOM     23  H   UNL     1       9.555   7.079  13.290  0.00  0.00    +0.000 HD
ENDBRANCH  20  22
ENDBRANCH  19  20
ENDBRANCH  18  19
ENDBRANCH   4  18
TORSDOF 7
ENDMDL
MODEL 5
REMARK VINA RESULT:      -7.1      5.093      7.545
REMARK  Name = 
REMARK  8 active torsions:
REMARK  status: ('A' for Active; 'I' for Inactive)
REMARK    1  A    between atoms: C_1  and  C_2
REMARK    2  A    between atoms: C_2  and  C_3
REMARK    3  A    between atoms: C_8  and  C_9
REMARK    4  A    between atoms: C_12  and  O_13
REMARK    5  A    between atoms: O_13  and  C_14
REMARK    6  A    between atoms: C_14  and  C_15
REMARK    7  A    between atoms: C_15  and  O_17
REMARK    8  A    between atoms: C_19  and  O_20
REMARK                            x       y       z     vdW  Elec       q    Type
REMARK                         _______ _______ _______ _____ _____    ______ ____
ROOT
ATOM      1  C   UNL     1       2.771   7.250  18.507  0.00  0.00    +0.000 A 
ATOM      2  C   UNL     1       2.508   8.305  17.606  0.00  0.00    +0.000 A 
ATOM      3  C   UNL     1       1.698   9.394  17.971  0.00  0.00    +0.000 A 
ATOM      4  C   UNL     1       1.143   9.446  19.245  0.00  0.00    +0.000 A 
ATOM      5  C   UNL     1       1.379   8.408  20.140  0.00  0.00    +0.000 A 
ATOM      6  C   UNL     1       2.190   7.328  19.780  0.00  0.00    +0.000 A 
ENDROOT
BRANCH   1  11
ATOM      7  C   UNL     1       5.383   5.208  15.593  0.00  0.00    +0.000 C 
ATOM      8  C   UNL     1       5.387   4.990  17.110  0.00  0.00    +0.000 C 
ATOM      9  C   UNL     1       4.549   3.806  17.557  0.00  0.00    +0.000 C 
ATOM     10  S   UNL     1       2.915   4.527  17.717  0.00  0.00    +0.000 S 
ATOM     11  C   UNL     1       3.605   6.114  18.008  0.00  0.00    +0.000 C 
ATOM     12  N   UNL     1       4.877   6.237  17.766  0.00  0.00    +0.000 NA
BRANCH   8  13
ATOM     13  C   UNL     1       6.842   4.666  17.462  0.00  0.00    +0.000 C 
ATOM     14  O   UNL     1       7.711   4.618  16.532  0.00  0.00    +0.000 OA
ATOM     15  O   UNL     1       7.222   4.546  18.666  0.00  0.00    +0.000 OA
ENDBRANCH   8  13
ENDBRANCH   1  11
BRANCH   6  16
ATOM     16  O   UNL     1       2.377   6.356  20.719  0.00  0.00    +0.000 OA
ATOM     17  H   UNL     1       3.115   6.576  21.306  0.00  0.00    +0.000 HD
ENDBRANCH   6  16
BRANCH   4  18
ATOM     18  O   UNL     1       0.333  10.433  19.734  0.00  0.00    +0.000 OA
BRANCH  18  19
ATOM     19  C   UNL     1       0.260  11.627  18.952  0.00  0.00    +0.000 C 
BRANCH  19  20
ATOM     20  C   UNL     1      -1.144  11.725  18.378  0.00  0.00    +0.000 C 
ATOM     21  O   UNL     1      -2.085  11.046  18.761  0.00  0.00    +0.000 OA
BRANCH  20  22
ATOM     22  O   UNL     1      -1.264  12.640  17.383  0.00  0.00    +0.000 OA
ATOM     23  H   UNL     1      -2.137  13.084  17.449  0.00  0.00    +0.000 HD
ENDBRANCH  20  22
ENDBRANCH  19  20
ENDBRANCH  18  19
ENDBRANCH   4  18
TORSDOF 7
ENDMDL
MODEL 6
REMARK VINA RESULT:      -7.0      4.186      8.135
REMARK  Name = 
REMARK  8 active torsions:
REMARK  status: ('A' for Active; 'I' for Inactive)
REMARK    1  A    between atoms: C_1  and  C_2
REMARK    2  A    between atoms: C_2  and  C_3
REMARK    3  A    between atoms: C_8  and  C_9
REMARK    4  A    between atoms: C_12  and  O_13
REMARK    5  A    between atoms: O_13  and  C_14
REMARK    6  A    between atoms: C_14  and  C_15
REMARK    7  A    between atoms: C_15  and  O_17
REMARK    8  A    between atoms: C_19  and  O_20
REMARK                            x       y       z     vdW  Elec       q    Type
REMARK                         _______ _______ _______ _____ _____    ______ ____
ROOT
ATOM      1  C   UNL     1       2.927   7.163  18.550  0.00  0.00    +0.000 A 
ATOM      2  C   UNL     1       2.485   8.301  17.842  0.00  0.00    +0.000 A 
ATOM      3  C   UNL     1       1.569   9.205  18.408  0.00  0.00    +0.000 A 
ATOM      4  C   UNL     1       1.085   8.985  19.693  0.00  0.00    +0.000 A 
ATOM      5  C   UNL     1       1.498   7.860  20.398  0.00  0.00    +0.000 A 
ATOM      6  C   UNL     1       2.414   6.965  19.840  0.00  0.00    +0.000 A 
ENDROOT
BRANCH   1  11
ATOM      7  C   UNL     1       5.287   5.762  15.093  0.00  0.00    +0.000 C 
ATOM      8  C   UNL     1       5.631   5.531  16.569  0.00  0.00    +0.000 C 
ATOM      9  C   UNL     1       5.160   4.190  17.102  0.00  0.00    +0.000 C 
ATOM     10  S   UNL     1       3.476   4.543  17.603  0.00  0.00    +0.000 S 
ATOM     11  C   UNL     1       3.865   6.238  17.844  0.00  0.00    +0.000 C 
ATOM     12  N   UNL     1       5.011   6.632  17.374  0.00  0.00    +0.000 NA
BRANCH   8  13
ATOM     13  C   UNL     1       7.162   5.522  16.624  0.00  0.00    +0.000 C 
ATOM     14  O   UNL     1       7.775   4.406  16.676  0.00  0.00    +0.000 OA
ATOM     15  O   UNL     1       7.836   6.590  16.514  0.00  0.00    +0.000 OA
ENDBRANCH   8  13
ENDBRANCH   1  11
BRANCH   6  16
ATOM     16  O   UNL     1       2.773   5.891  20.602  0.00  0.00    +0.000 OA
ATOM     17  H   UNL     1       2.410   5.070  20.238  0.00  0.00    +0.000 HD
ENDBRANCH   6  16
BRANCH   4  18
ATOM     18  O   UNL     1       0.189   9.770  20.364  0.00  0.00    +0.000 OA
BRANCH  18  19
ATOM     19  C   UNL     1      -0.383   9.199  21.544  0.00  0.00    +0.000 C 
BRANCH  19  20
ATOM     20  C   UNL     1      -0.048  10.111  22.713  0.00  0.00    +0.000 C 
ATOM     21  O   UNL     1       0.296   9.707  23.814  0.00  0.00    +0.000 OA
BRANCH  20  22
ATOM     22  O   UNL     1      -0.174  11.431  22.428  0.00  0.00    +0.000 OA
ATOM     23  H   UNL     1      -1.061  11.745  22.712  0.00  0.00    +0.000 HD
ENDBRANCH  20  22
ENDBRANCH  19  20
ENDBRANCH  18  19
ENDBRANCH   4  18
TORSDOF 7
ENDMDL
MODEL 7
REMARK VINA RESULT:      -7.0      4.128      8.135
REMARK  Name = 
REMARK  8 active torsions:
REMARK  status: ('A' for Active; 'I' for Inactive)
REMARK    1  A    between atoms: C_1  and  C_2
REMARK    2  A    between atoms: C_2  and  C_3
REMARK    3  A    between atoms: C_8  and  C_9
REMARK    4  A    between atoms: C_12  and  O_13
REMARK    5  A    between atoms: O_13  and  C_14
REMARK    6  A    between atoms: C_14  and  C_15
REMARK    7  A    between atoms: C_15  and  O_17
REMARK    8  A    between atoms: C_19  and  O_20
REMARK                            x       y       z     vdW  Elec       q    Type
REMARK                         _______ _______ _______ _____ _____    ______ ____
ROOT
ATOM      1  C   UNL     1       2.848   6.762  18.717  0.00  0.00    +0.000 A 
ATOM      2  C   UNL     1       2.388   6.423  20.008  0.00  0.00    +0.000 A 
ATOM      3  C   UNL     1       1.584   7.304  20.753  0.00  0.00    +0.000 A 
ATOM      4  C   UNL     1       1.226   8.536  20.214  0.00  0.00    +0.000 A 
ATOM      5  C   UNL     1       1.684   8.891  18.951  0.00  0.00    +0.000 A 
ATOM      6  C   UNL     1       2.477   8.014  18.206  0.00  0.00    +0.000 A 
ENDROOT
BRANCH   1  11
ATOM      7  C   UNL     1       5.493   5.388  15.461  0.00  0.00    +0.000 C 
ATOM      8  C   UNL     1       5.557   4.932  16.924  0.00  0.00    +0.000 C 
ATOM      9  C   UNL     1       4.809   3.639  17.192  0.00  0.00    +0.000 C 
ATOM     10  S   UNL     1       3.139   4.214  17.498  0.00  0.00    +0.000 S 
ATOM     11  C   UNL     1       3.736   5.778  18.026  0.00  0.00    +0.000 C 
ATOM     12  N   UNL     1       4.989   6.022  17.780  0.00  0.00    +0.000 NA
BRANCH   8  13
ATOM     13  C   UNL     1       7.040   4.655  17.189  0.00  0.00    +0.000 C 
ATOM     14  O   UNL     1       7.851   4.623  16.208  0.00  0.00    +0.000 OA
ATOM     15  O   UNL     1       7.494   4.559  18.369  0.00  0.00    +0.000 OA
ENDBRANCH   8  13
ENDBRANCH   1  11
BRANCH   6  16
ATOM     16  O   UNL     1       2.878   8.437  16.973  0.00  0.00    +0.000 OA
ATOM     17  H   UNL     1       2.191   8.973  16.549  0.00  0.00    +0.000 HD
ENDBRANCH   6  16
BRANCH   4  18
ATOM     18  O   UNL     1       0.461   9.491  20.823  0.00  0.00    +0.000 OA
BRANCH  18  19
ATOM     19  C   UNL     1      -0.511   9.015  21.756  0.00  0.00    +0.000 C 
BRANCH  19  20
ATOM     20  C   UNL     1      -0.332   9.788  23.053  0.00  0.00    +0.000 C 
ATOM     21  O   UNL     1       0.624   9.650  23.801  0.00  0.00    +0.000 OA
BRANCH  20  22
ATOM     22  O   UNL     1      -1.344  10.653  23.315  0.00  0.00    +0.000 OA
ATOM     23  H   UNL     1      -1.752  10.947  22.471  0.00  0.00    +0.000 HD
ENDBRANCH  20  22
ENDBRANCH  19  20
ENDBRANCH  18  19
ENDBRANCH   4  18
TORSDOF 7
ENDMDL
MODEL 8
REMARK VINA RESULT:      -6.9      5.236      7.250
REMARK  Name = 
REMARK  8 active torsions:
REMARK  status: ('A' for Active; 'I' for Inactive)
REMARK    1  A    between atoms: C_1  and  C_2
REMARK    2  A    between atoms: C_2  and  C_3
REMARK    3  A    between atoms: C_8  and  C_9
REMARK    4  A    between atoms: C_12  and  O_13
REMARK    5  A    between atoms: O_13  and  C_14
REMARK    6  A    between atoms: C_14  and  C_15
REMARK    7  A    between atoms: C_15  and  O_17
REMARK    8  A    between atoms: C_19  and  O_20
REMARK                            x       y       z     vdW  Elec       q    Type
REMARK                         _______ _______ _______ _____ _____    ______ ____
ROOT
ATOM      1  C   UNL     1       2.447   7.344  18.699  0.00  0.00    +0.000 A 
ATOM      2  C   UNL     1       2.228   8.347  17.730  0.00  0.00    +0.000 A 
ATOM      3  C   UNL     1       1.542   9.532  18.045  0.00  0.00    +0.000 A 
ATOM      4  C   UNL     1       1.068   9.733  19.338  0.00  0.00    +0.000 A 
ATOM      5  C   UNL     1       1.261   8.749  20.300  0.00  0.00    +0.000 A 
ATOM      6  C   UNL     1       1.949   7.573  19.990  0.00  0.00    +0.000 A 
ENDROOT
BRANCH   1  11
ATOM      7  C   UNL     1       4.713   3.608  19.325  0.00  0.00    +0.000 C 
ATOM      8  C   UNL     1       3.756   3.895  18.162  0.00  0.00    +0.000 C 
ATOM      9  C   UNL     1       4.452   4.394  16.909  0.00  0.00    +0.000 C 
ATOM     10  S   UNL     1       4.547   6.160  17.198  0.00  0.00    +0.000 S 
ATOM     11  C   UNL     1       3.145   6.100  18.253  0.00  0.00    +0.000 C 
ATOM     12  N   UNL     1       2.757   4.914  18.617  0.00  0.00    +0.000 NA
BRANCH   8  13
ATOM     13  C   UNL     1       3.132   2.538  17.817  0.00  0.00    +0.000 C 
ATOM     14  O   UNL     1       3.743   1.471  18.150  0.00  0.00    +0.000 OA
ATOM     15  O   UNL     1       1.977   2.452  17.302  0.00  0.00    +0.000 OA
ENDBRANCH   8  13
ENDBRANCH   1  11
BRANCH   6  16
ATOM     16  O   UNL     1       2.102   6.662  20.994  0.00  0.00    +0.000 OA
ATOM     17  H   UNL     1       1.632   5.839  20.792  0.00  0.00    +0.000 HD
ENDBRANCH   6  16
BRANCH   4  18
ATOM     18  O   UNL     1       0.380  10.827  19.784  0.00  0.00    +0.000 OA
BRANCH  18  19
ATOM     19  C   UNL     1       0.323  11.940  18.890  0.00  0.00    +0.000 C 
BRANCH  19  20
ATOM     20  C   UNL     1      -1.128  12.141  18.484  0.00  0.00    +0.000 C 
ATOM     21  O   UNL     1      -2.077  11.903  19.215  0.00  0.00    +0.000 OA
BRANCH  20  22
ATOM     22  O   UNL     1      -1.280  12.608  17.220  0.00  0.00    +0.000 OA
ATOM     23  H   UNL     1      -2.074  12.198  16.812  0.00  0.00    +0.000 HD
ENDBRANCH  20  22
ENDBRANCH  19  20
ENDBRANCH  18  19
ENDBRANCH   4  18
TORSDOF 7
ENDMDL
MODEL 9
REMARK VINA RESULT:      -6.9      3.595      4.547
REMARK  Name = 
REMARK  8 active torsions:
REMARK  status: ('A' for Active; 'I' for Inactive)
REMARK    1  A    between atoms: C_1  and  C_2
REMARK    2  A    between atoms: C_2  and  C_3
REMARK    3  A    between atoms: C_8  and  C_9
REMARK    4  A    between atoms: C_12  and  O_13
REMARK    5  A    between atoms: O_13  and  C_14
REMARK    6  A    between atoms: C_14  and  C_15
REMARK    7  A    between atoms: C_15  and  O_17
REMARK    8  A    between atoms: C_19  and  O_20
REMARK                            x       y       z     vdW  Elec       q    Type
REMARK                         _______ _______ _______ _____ _____    ______ ____
ROOT
ATOM      1  C   UNL     1       2.772   6.835  19.107  0.00  0.00    +0.000 A 
ATOM      2  C   UNL     1       3.336   7.138  17.849  0.00  0.00    +0.000 A 
ATOM      3  C   UNL     1       4.171   6.225  17.182  0.00  0.00    +0.000 A 
ATOM      4  C   UNL     1       4.451   4.993  17.764  0.00  0.00    +0.000 A 
ATOM      5  C   UNL     1       3.916   4.684  19.010  0.00  0.00    +0.000 A 
ATOM      6  C   UNL     1       3.080   5.589  19.670  0.00  0.00    +0.000 A 
ENDROOT
BRANCH   1  11
ATOM      7  C   UNL     1      -0.732   8.325  21.340  0.00  0.00    +0.000 C 
ATOM      8  C   UNL     1       0.666   8.954  21.337  0.00  0.00    +0.000 C 
ATOM      9  C   UNL     1       0.820  10.089  20.341  0.00  0.00    +0.000 C 
ATOM     10  S   UNL     1       1.263   9.225  18.835  0.00  0.00    +0.000 S 
ATOM     11  C   UNL     1       1.936   7.891  19.756  0.00  0.00    +0.000 C 
ATOM     12  N   UNL     1       1.664   7.881  21.027  0.00  0.00    +0.000 NA
BRANCH   8  13
ATOM     13  C   UNL     1       0.833   9.560  22.735  0.00  0.00    +0.000 C 
ATOM     14  O   UNL     1       1.933   9.396  23.355  0.00  0.00    +0.000 OA
ATOM     15  O   UNL     1      -0.057  10.305  23.244  0.00  0.00    +0.000 OA
ENDBRANCH   8  13
ENDBRANCH   1  11
BRANCH   6  16
ATOM     16  O   UNL     1       2.591   5.205  20.885  0.00  0.00    +0.000 OA
ATOM     17  H   UNL     1       1.649   5.416  20.963  0.00  0.00    +0.000 HD
ENDBRANCH   6  16
BRANCH   4  18
ATOM     18  O   UNL     1       5.249   4.014  17.239  0.00  0.00    +0.000 OA
BRANCH  18  19
ATOM     19  C   UNL     1       5.718   4.236  15.907  0.00  0.00    +0.000 C 
BRANCH  19  20
ATOM     20  C   UNL     1       7.175   4.661  15.988  0.00  0.00    +0.000 C 
ATOM     21  O   UNL     1       7.930   4.330  16.890  0.00  0.00    +0.000 OA
BRANCH  20  22
ATOM     22  O   UNL     1       7.569   5.455  14.963  0.00  0.00    +0.000 OA
ATOM     23  H   UNL     1       8.190   4.961  14.384  0.00  0.00    +0.000 HD
ENDBRANCH  20  22
ENDBRANCH  19  20
ENDBRANCH  18  19
ENDBRANCH   4  18
TORSDOF 7
ENDMDL
