MODEL 1
REMARK VINA RESULT:      -7.8      0.000      0.000
REMARK  Name = 
REMARK  11 active torsions:
REMARK  status: ('A' for Active; 'I' for Inactive)
REMARK    1  A    between atoms: C_1  and  C_2
REMARK    2  A    between atoms: C_4  and  C_5
REMARK    3  A    between atoms: C_8  and  C_9
REMARK    4  A    between atoms: C_10  and  S_11
REMARK    5  A    between atoms: S_11  and  N_14
REMARK    6  A    between atoms: N_14  and  C_15
REMARK    7  A    between atoms: C_15  and  C_16
REMARK    8  A    between atoms: C_19  and  O_20
REMARK    9  A    between atoms: O_20  and  C_21
REMARK   10  A    between atoms: C_21  and  C_22
REMARK   11  A    between atoms: C_21  and  C_23
REMARK                            x       y       z     vdW  Elec       q    Type
REMARK                         _______ _______ _______ _____ _____    ______ ____
ROOT
ATOM      1  S   UNL     1       5.577   4.193  19.372  0.00  0.00    +0.000 S 
ATOM      2  O   UNL     1       6.150   5.308  20.086  0.00  0.00    +0.000 OA
ATOM      3  O   UNL     1       5.409   2.901  20.005  0.00  0.00    +0.000 OA
ENDROOT
BRANCH   1   9
ATOM      4  C   UNL     1       2.434   6.506  18.278  0.00  0.00    +0.000 A 
ATOM      5  C   UNL     1       1.550   5.589  17.703  0.00  0.00    +0.000 A 
ATOM      6  C   UNL     1       1.872   4.229  17.624  0.00  0.00    +0.000 A 
ATOM      7  C   UNL     1       3.085   3.732  18.132  0.00  0.00    +0.000 A 
ATOM      8  C   UNL     1       3.364   2.264  17.971  0.00  0.00    +0.000 C 
ATOM      9  C   UNL     1       3.974   4.647  18.714  0.00  0.00    +0.000 A 
ATOM     10  C   UNL     1       3.654   6.020  18.765  0.00  0.00    +0.000 A 
BRANCH   4  14
ATOM     11  C   UNL     1       0.814  11.206  19.373  0.00  0.00    +0.000 C 
ATOM     12  C   UNL     1       1.418   9.987  18.797  0.00  0.00    +0.000 A 
ATOM     13  C   UNL     1       1.499   8.694  19.366  0.00  0.00    +0.000 A 
ATOM     14  C   UNL     1       2.105   7.923  18.402  0.00  0.00    +0.000 A 
ATOM     15  O   UNL     1       2.405   8.722  17.335  0.00  0.00    +0.000 OA
ATOM     16  N   UNL     1       1.977  10.011  17.581  0.00  0.00    +0.000 NA
ENDBRANCH   4  14
ENDBRANCH   1   9
BRANCH   1  17
ATOM     17  N   UNL     1       6.467   3.923  17.974  0.00  0.00    +0.000 NA
ATOM     18  H   UNL     1       6.054   3.206  17.378  0.00  0.00    +0.000 HD
BRANCH  17  19
ATOM     19  C   UNL     1       6.956   5.085  17.220  0.00  0.00    +0.000 C 
BRANCH  19  20
ATOM     20  C   UNL     1       6.662   4.864  15.754  0.00  0.00    +0.000 A 
ATOM     21  C   UNL     1       5.552   4.111  15.356  0.00  0.00    +0.000 A 
ATOM     22  C   UNL     1       5.414   3.720  14.022  0.00  0.00    +0.000 A 
ATOM     23  C   UNL     1       6.370   4.080  13.070  0.00  0.00    +0.000 A 
ATOM     24  C   UNL     1       7.449   4.875  13.451  0.00  0.00    +0.000 A 
ATOM     25  C   UNL     1       7.589   5.273  14.784  0.00  0.00    +0.000 A 
BRANCH  23  26
ATOM     26  O   UNL     1       6.182   3.530  11.836  0.00  0.00    +0.000 OA
BRANCH  26  27
ATOM     27  C   UNL     1       5.205   2.494  11.691  0.00  0.00    +0.000 C 
ATOM     28  C   UNL     1       4.034   3.014  10.862  0.00  0.00    +0.000 C 
ATOM     29  C   UNL     1       5.905   1.348  10.969  0.00  0.00    +0.000 C 
ENDBRANCH  26  27
ENDBRANCH  23  26
ENDBRANCH  19  20
ENDBRANCH  17  19
ENDBRANCH   1  17
TORSDOF 7
ENDMDL
MODEL 2
REMARK VINA RESULT:      -7.4      2.937      7.278
REMARK  Name = 
REMARK  11 active torsions:
REMARK  status: ('A' for Active; 'I' for Inactive)
REMARK    1  A    between atoms: C_1  and  C_2
REMARK    2  A    between atoms: C_4  and  C_5
REMARK    3  A    between atoms: C_8  and  C_9
REMARK    4  A    between atoms: C_10  and  S_11
REMARK    5  A    between atoms: S_11  and  N_14
REMARK    6  A    between atoms: N_14  and  C_15
REMARK    7  A    between atoms: C_15  and  C_16
REMARK    8  A    between atoms: C_19  and  O_20
REMARK    9  A    between atoms: O_20  and  C_21
REMARK   10  A    between atoms: C_21  and  C_22
REMARK   11  A    between atoms: C_21  and  C_23
REMARK                            x       y       z     vdW  Elec       q    Type
REMARK                         _______ _______ _______ _____ _____    ______ ____
ROOT
ATOM      1  S   UNL     1       4.433   4.201  18.808  0.00  0.00    +0.000 S 
ATOM      2  O   UNL     1       3.242   3.786  18.108  0.00  0.00    +0.000 OA
ATOM      3  O   UNL     1       5.202   3.265  19.602  0.00  0.00    +0.000 OA
ENDROOT
BRANCH   1   9
ATOM      4  C   UNL     1       7.165   6.804  17.328  0.00  0.00    +0.000 A 
ATOM      5  C   UNL     1       7.452   6.279  16.065  0.00  0.00    +0.000 A 
ATOM      6  C   UNL     1       6.827   5.112  15.610  0.00  0.00    +0.000 A 
ATOM      7  C   UNL     1       5.878   4.434  16.395  0.00  0.00    +0.000 A 
ATOM      8  C   UNL     1       5.285   3.169  15.843  0.00  0.00    +0.000 C 
ATOM      9  C   UNL     1       5.583   4.959  17.662  0.00  0.00    +0.000 A 
ATOM     10  C   UNL     1       6.238   6.120  18.124  0.00  0.00    +0.000 A 
BRANCH   4  14
ATOM     11  C   UNL     1       9.038  11.442  18.273  0.00  0.00    +0.000 C 
ATOM     12  C   UNL     1       8.648  10.017  18.275  0.00  0.00    +0.000 A 
ATOM     13  C   UNL     1       7.737   9.355  17.416  0.00  0.00    +0.000 A 
ATOM     14  C   UNL     1       7.779   8.038  17.809  0.00  0.00    +0.000 A 
ATOM     15  O   UNL     1       8.635   7.929  18.869  0.00  0.00    +0.000 OA
ATOM     16  N   UNL     1       9.178   9.165  19.160  0.00  0.00    +0.000 NA
ENDBRANCH   4  14
ENDBRANCH   1   9
BRANCH   1  17
ATOM     17  N   UNL     1       4.052   5.483  19.823  0.00  0.00    +0.000 NA
ATOM     18  H   UNL     1       4.550   6.340  19.577  0.00  0.00    +0.000 HD
BRANCH  17  19
ATOM     19  C   UNL     1       2.641   5.715  20.159  0.00  0.00    +0.000 C 
BRANCH  19  20
ATOM     20  C   UNL     1       2.258   7.100  19.692  0.00  0.00    +0.000 A 
ATOM     21  C   UNL     1       1.592   7.982  20.550  0.00  0.00    +0.000 A 
ATOM     22  C   UNL     1       1.043   9.164  20.048  0.00  0.00    +0.000 A 
ATOM     23  C   UNL     1       1.156   9.486  18.694  0.00  0.00    +0.000 A 
ATOM     24  C   UNL     1       1.863   8.636  17.846  0.00  0.00    +0.000 A 
ATOM     25  C   UNL     1       2.420   7.455  18.344  0.00  0.00    +0.000 A 
BRANCH  23  26
ATOM     26  O   UNL     1       0.468  10.600  18.313  0.00  0.00    +0.000 OA
BRANCH  26  27
ATOM     27  C   UNL     1      -0.921  10.695  18.647  0.00  0.00    +0.000 C 
ATOM     28  C   UNL     1      -1.279  12.153  18.915  0.00  0.00    +0.000 C 
ATOM     29  C   UNL     1      -1.685  10.169  17.438  0.00  0.00    +0.000 C 
ENDBRANCH  26  27
ENDBRANCH  23  26
ENDBRANCH  19  20
ENDBRANCH  17  19
ENDBRANCH   1  17
TORSDOF 7
ENDMDL
MODEL 3
REMARK VINA RESULT:      -7.3      3.971      7.396
REMARK  Name = 
REMARK  11 active torsions:
REMARK  status: ('A' for Active; 'I' for Inactive)
REMARK    1  A    between atoms: C_1  and  C_2
REMARK    2  A    between atoms: C_4  and  C_5
REMARK    3  A    between atoms: C_8  and  C_9
REMARK    4  A    between atoms: C_10  and  S_11
REMARK    5  A    between atoms: S_11  and  N_14
REMARK    6  A    between atoms: N_14  and  C_15
REMARK    7  A    between atoms: C_15  and  C_16
REMARK    8  A    between atoms: C_19  and  O_20
REMARK    9  A    between atoms: O_20  and  C_21
REMARK   10  A    between atoms: C_21  and  C_22
REMARK   11  A    between atoms: C_21  and  C_23
REMARK                            x       y       z     vdW  Elec       q    Type
REMARK                         _______ _______ _______ _____ _____    ______ ____
ROOT
ATOM      1  S   UNL     1       0.530  10.093  21.493  0.00  0.00    +0.000 S 
ATOM      2  O   UNL     1       1.679  10.938  21.707  0.00  0.00    +0.000 OA
ATOM      3  O   UNL     1      -0.023   9.291  22.565  0.00  0.00    +0.000 OA
ENDROOT
BRANCH   1   9
ATOM      4  C   UNL     1      -2.326  11.372  18.915  0.00  0.00    +0.000 A 
ATOM      5  C   UNL     1      -2.957  12.398  19.624  0.00  0.00    +0.000 A 
ATOM      6  C   UNL     1      -2.540  12.744  20.916  0.00  0.00    +0.000 A 
ATOM      7  C   UNL     1      -1.465  12.088  21.540  0.00  0.00    +0.000 A 
ATOM      8  C   UNL     1      -1.111  12.499  22.941  0.00  0.00    +0.000 C 
ATOM      9  C   UNL     1      -0.826  11.060  20.832  0.00  0.00    +0.000 A 
ATOM     10  C   UNL     1      -1.270  10.698  19.542  0.00  0.00    +0.000 A 
BRANCH   4  14
ATOM     11  C   UNL     1      -2.908   9.843  14.096  0.00  0.00    +0.000 C 
ATOM     12  C   UNL     1      -3.039  10.407  15.454  0.00  0.00    +0.000 A 
ATOM     13  C   UNL     1      -2.167  10.247  16.559  0.00  0.00    +0.000 A 
ATOM     14  C   UNL     1      -2.720  11.016  17.555  0.00  0.00    +0.000 A 
ATOM     15  O   UNL     1      -3.878  11.569  17.085  0.00  0.00    +0.000 OA
ATOM     16  N   UNL     1      -4.077  11.189  15.772  0.00  0.00    +0.000 NA
ENDBRANCH   4  14
ENDBRANCH   1   9
BRANCH   1  17
ATOM     17  N   UNL     1       0.856   9.036  20.229  0.00  0.00    +0.000 NA
ATOM     18  H   UNL     1       1.389   9.475  19.478  0.00  0.00    +0.000 HD
BRANCH  17  19
ATOM     19  C   UNL     1       1.326   7.682  20.552  0.00  0.00    +0.000 C 
BRANCH  19  20
ATOM     20  C   UNL     1       2.240   7.215  19.444  0.00  0.00    +0.000 A 
ATOM     21  C   UNL     1       3.010   6.057  19.596  0.00  0.00    +0.000 A 
ATOM     22  C   UNL     1       4.014   5.758  18.672  0.00  0.00    +0.000 A 
ATOM     23  C   UNL     1       4.257   6.598  17.584  0.00  0.00    +0.000 A 
ATOM     24  C   UNL     1       3.457   7.725  17.399  0.00  0.00    +0.000 A 
ATOM     25  C   UNL     1       2.448   8.026  18.318  0.00  0.00    +0.000 A 
BRANCH  23  26
ATOM     26  O   UNL     1       5.343   6.260  16.832  0.00  0.00    +0.000 OA
BRANCH  26  27
ATOM     27  C   UNL     1       6.533   5.831  17.503  0.00  0.00    +0.000 C 
ATOM     28  C   UNL     1       7.123   4.631  16.770  0.00  0.00    +0.000 C 
ATOM     29  C   UNL     1       7.494   7.013  17.458  0.00  0.00    +0.000 C 
ENDBRANCH  26  27
ENDBRANCH  23  26
ENDBRANCH  19  20
ENDBRANCH  17  19
ENDBRANCH   1  17
TORSDOF 7
ENDMDL
MODEL 4
REMARK VINA RESULT:      -7.3      1.989      7.909
REMARK  Name = 
REMARK  11 active torsions:
REMARK  status: ('A' for Active; 'I' for Inactive)
REMARK    1  A    between atoms: C_1  and  C_2
REMARK    2  A    between atoms: C_4  and  C_5
REMARK    3  A    between atoms: C_8  and  C_9
REMARK    4  A    between atoms: C_10  and  S_11
REMARK    5  A    between atoms: S_11  and  N_14
REMARK    6  A    between atoms: N_14  and  C_15
REMARK    7  A    between atoms: C_15  and  C_16
REMARK    8  A    between atoms: C_19  and  O_20
REMARK    9  A    between atoms: O_20  and  C_21
REMARK   10  A    between atoms: C_21  and  C_22
REMARK   11  A    between atoms: C_21  and  C_23
REMARK                            x       y       z     vdW  Elec       q    Type
REMARK                         _______ _______ _______ _____ _____    ______ ____
ROOT
ATOM      1  S   UNL     1       4.450   3.745  19.038  0.00  0.00    +0.000 S 
ATOM      2  O   UNL     1       3.288   3.172  18.403  0.00  0.00    +0.000 OA
ATOM      3  O   UNL     1       5.242   2.983  19.982  0.00  0.00    +0.000 OA
ENDROOT
BRANCH   1   9
ATOM      4  C   UNL     1       6.072   4.458  15.393  0.00  0.00    +0.000 A 
ATOM      5  C   UNL     1       7.193   5.238  15.692  0.00  0.00    +0.000 A 
ATOM      6  C   UNL     1       7.502   5.580  17.014  0.00  0.00    +0.000 A 
ATOM      7  C   UNL     1       6.711   5.140  18.089  0.00  0.00    +0.000 A 
ATOM      8  C   UNL     1       7.097   5.585  19.471  0.00  0.00    +0.000 C 
ATOM      9  C   UNL     1       5.588   4.353  17.796  0.00  0.00    +0.000 A 
ATOM     10  C   UNL     1       5.267   4.036  16.459  0.00  0.00    +0.000 A 
BRANCH   4  14
ATOM     11  C   UNL     1       4.149   3.007  10.910  0.00  0.00    +0.000 C 
ATOM     12  C   UNL     1       4.992   3.404  12.055  0.00  0.00    +0.000 A 
ATOM     13  C   UNL     1       4.582   3.899  13.317  0.00  0.00    +0.000 A 
ATOM     14  C   UNL     1       5.749   4.061  14.026  0.00  0.00    +0.000 A 
ATOM     15  O   UNL     1       6.798   3.722  13.218  0.00  0.00    +0.000 OA
ATOM     16  N   UNL     1       6.326   3.312  11.987  0.00  0.00    +0.000 NA
ENDBRANCH   4  14
ENDBRANCH   1   9
BRANCH   1  17
ATOM     17  N   UNL     1       4.002   5.158  19.827  0.00  0.00    +0.000 NA
ATOM     18  H   UNL     1       4.363   5.994  19.369  0.00  0.00    +0.000 HD
BRANCH  17  19
ATOM     19  C   UNL     1       2.608   5.301  20.269  0.00  0.00    +0.000 C 
BRANCH  19  20
ATOM     20  C   UNL     1       2.083   6.629  19.776  0.00  0.00    +0.000 A 
ATOM     21  C   UNL     1       2.331   7.050  18.465  0.00  0.00    +0.000 A 
ATOM     22  C   UNL     1       2.044   8.364  18.086  0.00  0.00    +0.000 A 
ATOM     23  C   UNL     1       1.501   9.268  19.001  0.00  0.00    +0.000 A 
ATOM     24  C   UNL     1       1.203   8.839  20.293  0.00  0.00    +0.000 A 
ATOM     25  C   UNL     1       1.483   7.523  20.675  0.00  0.00    +0.000 A 
BRANCH  23  26
ATOM     26  O   UNL     1       1.388  10.547  18.540  0.00  0.00    +0.000 OA
BRANCH  26  27
ATOM     27  C   UNL     1       0.312  11.357  19.026  0.00  0.00    +0.000 C 
ATOM     28  C   UNL     1       0.594  12.821  18.703  0.00  0.00    +0.000 C 
ATOM     29  C   UNL     1      -0.940  10.879  18.299  0.00  0.00    +0.000 C 
ENDBRANCH  26  27
ENDBRANCH  23  26
ENDBRANCH  19  20
ENDBRANCH  17  19
ENDBRANCH   1  17
TORSDOF 7
ENDMDL
MODEL 5
REMARK VINA RESULT:      -7.3      4.861      6.701
REMARK  Name = 
REMARK  11 active torsions:
REMARK  status: ('A' for Active; 'I' for Inactive)
REMARK    1  A    between atoms: C_1  and  C_2
REMARK    2  A    between atoms: C_4  and  C_5
REMARK    3  A    between atoms: C_8  and  C_9
REMARK    4  A    between atoms: C_10  and  S_11
REMARK    5  A    between atoms: S_11  and  N_14
REMARK    6  A    between atoms: N_14  and  C_15
REMARK    7  A    between atoms: C_15  and  C_16
REMARK    8  A    between atoms: C_19  and  O_20
REMARK    9  A    between atoms: O_20  and  C_21
REMARK   10  A    between atoms: C_21  and  C_22
REMARK   11  A    between atoms: C_21  and  C_23
REMARK                            x       y       z     vdW  Elec       q    Type
REMARK                         _______ _______ _______ _____ _____    ______ ____
ROOT
ATOM      1  S   UNL     1       6.709   5.990  16.754  0.00  0.00    +0.000 S 
ATOM      2  O   UNL     1       7.555   5.044  17.441  0.00  0.00    +0.000 OA
ATOM      3  O   UNL     1       6.702   6.079  15.308  0.00  0.00    +0.000 OA
ENDROOT
BRANCH   1   9
ATOM      4  C   UNL     1       2.966   6.899  18.015  0.00  0.00    +0.000 A 
ATOM      5  C   UNL     1       2.324   5.657  18.025  0.00  0.00    +0.000 A 
ATOM      6  C   UNL     1       3.003   4.492  17.649  0.00  0.00    +0.000 A 
ATOM      7  C   UNL     1       4.354   4.521  17.265  0.00  0.00    +0.000 A 
ATOM      8  C   UNL     1       4.992   3.229  16.842  0.00  0.00    +0.000 C 
ATOM      9  C   UNL     1       5.005   5.764  17.256  0.00  0.00    +0.000 A 
ATOM     10  C   UNL     1       4.306   6.938  17.610  0.00  0.00    +0.000 A 
BRANCH   4  14
ATOM     11  C   UNL     1       0.960  11.512  18.793  0.00  0.00    +0.000 C 
ATOM     12  C   UNL     1       1.408  10.106  18.856  0.00  0.00    +0.000 A 
ATOM     13  C   UNL     1       2.040   9.340  17.847  0.00  0.00    +0.000 A 
ATOM     14  C   UNL     1       2.288   8.122  18.435  0.00  0.00    +0.000 A 
ATOM     15  O   UNL     1       1.794   8.147  19.709  0.00  0.00    +0.000 OA
ATOM     16  N   UNL     1       1.244   9.386  19.972  0.00  0.00    +0.000 NA
ENDBRANCH   4  14
ENDBRANCH   1   9
BRANCH   1  17
ATOM     17  N   UNL     1       7.042   7.535  17.322  0.00  0.00    +0.000 NA
ATOM     18  H   UNL     1       6.202   8.031  17.622  0.00  0.00    +0.000 HD
BRANCH  17  19
ATOM     19  C   UNL     1       8.175   7.715  18.238  0.00  0.00    +0.000 C 
BRANCH  19  20
ATOM     20  C   UNL     1       8.411   9.196  18.423  0.00  0.00    +0.000 A 
ATOM     21  C   UNL     1       7.967  10.113  17.465  0.00  0.00    +0.000 A 
ATOM     22  C   UNL     1       8.383  11.445  17.526  0.00  0.00    +0.000 A 
ATOM     23  C   UNL     1       9.237  11.881  18.541  0.00  0.00    +0.000 A 
ATOM     24  C   UNL     1       9.641  10.983  19.527  0.00  0.00    +0.000 A 
ATOM     25  C   UNL     1       9.222   9.650  19.475  0.00  0.00    +0.000 A 
BRANCH  23  26
ATOM     26  O   UNL     1       9.667  13.169  18.411  0.00  0.00    +0.000 OA
BRANCH  26  27
ATOM     27  C   UNL     1      10.529  13.496  17.317  0.00  0.00    +0.000 C 
ATOM     28  C   UNL     1      10.796  14.998  17.312  0.00  0.00    +0.000 C 
ATOM     29  C   UNL     1      11.822  12.722  17.550  0.00  0.00    +0.000 C 
ENDBRANCH  26  27
ENDBRANCH  23  26
ENDBRANCH  19  20
ENDBRANCH  17  19
ENDBRANCH   1  17
TORSDOF 7
ENDMDL
MODEL 6
REMARK VINA RESULT:      -7.2      2.163      8.143
REMARK  Name = 
REMARK  11 active torsions:
REMARK  status: ('A' for Active; 'I' for Inactive)
REMARK    1  A    between atoms: C_1  and  C_2
REMARK    2  A    between atoms: C_4  and  C_5
REMARK    3  A    between atoms: C_8  and  C_9
REMARK    4  A    between atoms: C_10  and  S_11
REMARK    5  A    between atoms: S_11  and  N_14
REMARK    6  A    between atoms: N_14  and  C_15
REMARK    7  A    between atoms: C_15  and  C_16
REMARK    8  A    between atoms: C_19  and  O_20
REMARK    9  A    between atoms: O_20  and  C_21
REMARK   10  A    between atoms: C_21  and  C_22
REMARK   11  A    between atoms: C_21  and  C_23
REMARK                            x       y       z     vdW  Elec       q    Type
REMARK                         _______ _______ _______ _____ _____    ______ ____
ROOT
ATOM      1  S   UNL     1       3.835   4.222  18.877  0.00  0.00    +0.000 S 
ATOM      2  O   UNL     1       2.641   4.008  18.096  0.00  0.00    +0.000 OA
ATOM      3  O   UNL     1       4.252   3.270  19.887  0.00  0.00    +0.000 OA
ENDROOT
BRANCH   1   9
ATOM      4  C   UNL     1       6.032   4.345  15.473  0.00  0.00    +0.000 A 
ATOM      5  C   UNL     1       7.275   4.807  15.914  0.00  0.00    +0.000 A 
ATOM      6  C   UNL     1       7.497   5.100  17.265  0.00  0.00    +0.000 A 
ATOM      7  C   UNL     1       6.490   4.927  18.229  0.00  0.00    +0.000 A 
ATOM      8  C   UNL     1       6.805   5.302  19.649  0.00  0.00    +0.000 C 
ATOM      9  C   UNL     1       5.241   4.459  17.793  0.00  0.00    +0.000 A 
ATOM     10  C   UNL     1       5.016   4.193  16.426  0.00  0.00    +0.000 A 
BRANCH   4  14
ATOM     11  C   UNL     1       4.394   2.949  10.860  0.00  0.00    +0.000 C 
ATOM     12  C   UNL     1       5.157   3.381  12.049  0.00  0.00    +0.000 A 
ATOM     13  C   UNL     1       4.664   3.728  13.330  0.00  0.00    +0.000 A 
ATOM     14  C   UNL     1       5.787   4.001  14.076  0.00  0.00    +0.000 A 
ATOM     15  O   UNL     1       6.884   3.864  13.273  0.00  0.00    +0.000 OA
ATOM     16  N   UNL     1       6.491   3.477  12.007  0.00  0.00    +0.000 NA
ENDBRANCH   4  14
ENDBRANCH   1   9
BRANCH   1  17
ATOM     17  N   UNL     1       3.728   5.711  19.645  0.00  0.00    +0.000 NA
ATOM     18  H   UNL     1       4.077   6.477  19.067  0.00  0.00    +0.000 HD
BRANCH  17  19
ATOM     19  C   UNL     1       2.485   6.046  20.352  0.00  0.00    +0.000 C 
BRANCH  19  20
ATOM     20  C   UNL     1       2.040   7.423  19.914  0.00  0.00    +0.000 A 
ATOM     21  C   UNL     1       1.333   8.255  20.789  0.00  0.00    +0.000 A 
ATOM     22  C   UNL     1       0.732   9.421  20.311  0.00  0.00    +0.000 A 
ATOM     23  C   UNL     1       0.832   9.778  18.965  0.00  0.00    +0.000 A 
ATOM     24  C   UNL     1       1.579   8.979  18.101  0.00  0.00    +0.000 A 
ATOM     25  C   UNL     1       2.188   7.814  18.575  0.00  0.00    +0.000 A 
BRANCH  23  26
ATOM     26  O   UNL     1       0.095  10.868  18.606  0.00  0.00    +0.000 OA
BRANCH  26  27
ATOM     27  C   UNL     1      -1.312  10.859  18.870  0.00  0.00    +0.000 C 
ATOM     28  C   UNL     1      -1.677  12.078  19.711  0.00  0.00    +0.000 C 
ATOM     29  C   UNL     1      -1.998  10.921  17.510  0.00  0.00    +0.000 C 
ENDBRANCH  26  27
ENDBRANCH  23  26
ENDBRANCH  19  20
ENDBRANCH  17  19
ENDBRANCH   1  17
TORSDOF 7
ENDMDL
MODEL 7
REMARK VINA RESULT:      -7.1      1.354      1.457
REMARK  Name = 
REMARK  11 active torsions:
REMARK  status: ('A' for Active; 'I' for Inactive)
REMARK    1  A    between atoms: C_1  and  C_2
REMARK    2  A    between atoms: C_4  and  C_5
REMARK    3  A    between atoms: C_8  and  C_9
REMARK    4  A    between atoms: C_10  and  S_11
REMARK    5  A    between atoms: S_11  and  N_14
REMARK    6  A    between atoms: N_14  and  C_15
REMARK    7  A    between atoms: C_15  and  C_16
REMARK    8  A    between atoms: C_19  and  O_20
REMARK    9  A    between atoms: O_20  and  C_21
REMARK   10  A    between atoms: C_21  and  C_22
REMARK   11  A    between atoms: C_21  and  C_23
REMARK                            x       y       z     vdW  Elec       q    Type
REMARK                         _______ _______ _______ _____ _____    ______ ____
ROOT
ATOM      1  S   UNL     1       4.870   4.322  18.649  0.00  0.00    +0.000 S 
ATOM      2  O   UNL     1       5.929   4.041  19.588  0.00  0.00    +0.000 OA
ATOM      3  O   UNL     1       4.330   3.284  17.794  0.00  0.00    +0.000 OA
ENDROOT
BRANCH   1   9
ATOM      4  C   UNL     1       2.065   7.054  19.694  0.00  0.00    +0.000 A 
ATOM      5  C   UNL     1       1.309   6.380  20.657  0.00  0.00    +0.000 A 
ATOM      6  C   UNL     1       1.621   5.067  21.029  0.00  0.00    +0.000 A 
ATOM      7  C   UNL     1       2.711   4.384  20.464  0.00  0.00    +0.000 A 
ATOM      8  C   UNL     1       2.950   2.964  20.895  0.00  0.00    +0.000 C 
ATOM      9  C   UNL     1       3.476   5.056  19.500  0.00  0.00    +0.000 A 
ATOM     10  C   UNL     1       3.138   6.370  19.110  0.00  0.00    +0.000 A 
BRANCH   4  14
ATOM     11  C   UNL     1       0.413  11.804  18.908  0.00  0.00    +0.000 C 
ATOM     12  C   UNL     1       1.103  10.498  18.898  0.00  0.00    +0.000 A 
ATOM     13  C   UNL     1       0.954   9.420  19.804  0.00  0.00    +0.000 A 
ATOM     14  C   UNL     1       1.779   8.435  19.315  0.00  0.00    +0.000 A 
ATOM     15  O   UNL     1       2.416   8.915  18.205  0.00  0.00    +0.000 OA
ATOM     16  N   UNL     1       1.994  10.203  17.944  0.00  0.00    +0.000 NA
ENDBRANCH   4  14
ENDBRANCH   1   9
BRANCH   1  17
ATOM     17  N   UNL     1       5.358   5.567  17.633  0.00  0.00    +0.000 NA
ATOM     18  H   UNL     1       5.132   6.489  18.007  0.00  0.00    +0.000 HD
BRANCH  17  19
ATOM     19  C   UNL     1       6.699   5.500  17.037  0.00  0.00    +0.000 C 
BRANCH  19  20
ATOM     20  C   UNL     1       6.558   5.134  15.578  0.00  0.00    +0.000 A 
ATOM     21  C   UNL     1       5.426   4.450  15.121  0.00  0.00    +0.000 A 
ATOM     22  C   UNL     1       5.404   3.918  13.830  0.00  0.00    +0.000 A 
ATOM     23  C   UNL     1       6.500   4.067  12.977  0.00  0.00    +0.000 A 
ATOM     24  C   UNL     1       7.609   4.793  13.409  0.00  0.00    +0.000 A 
ATOM     25  C   UNL     1       7.633   5.332  14.699  0.00  0.00    +0.000 A 
BRANCH  23  26
ATOM     26  O   UNL     1       6.399   3.393  11.795  0.00  0.00    +0.000 OA
BRANCH  26  27
ATOM     27  C   UNL     1       5.439   2.337  11.690  0.00  0.00    +0.000 C 
ATOM     28  C   UNL     1       4.225   2.831  10.910  0.00  0.00    +0.000 C 
ATOM     29  C   UNL     1       6.134   1.206  10.940  0.00  0.00    +0.000 C 
ENDBRANCH  26  27
ENDBRANCH  23  26
ENDBRANCH  19  20
ENDBRANCH  17  19
ENDBRANCH   1  17
TORSDOF 7
ENDMDL
MODEL 8
REMARK VINA RESULT:      -7.0      7.155     11.242
REMARK  Name = 
REMARK  11 active torsions:
REMARK  status: ('A' for Active; 'I' for Inactive)
REMARK    1  A    between atoms: C_1  and  C_2
REMARK    2  A    between atoms: C_4  and  C_5
REMARK    3  A    between atoms: C_8  and  C_9
REMARK    4  A    between atoms: C_10  and  S_11
REMARK    5  A    between atoms: S_11  and  N_14
REMARK    6  A    between atoms: N_14  and  C_15
REMARK    7  A    between atoms: C_15  and  C_16
REMARK    8  A    between atoms: C_19  and  O_20
REMARK    9  A    between atoms: O_20  and  C_21
REMARK   10  A    between atoms: C_21  and  C_22
REMARK   11  A    between atoms: C_21  and  C_23
REMARK                            x       y       z     vdW  Elec       q    Type
REMARK                         _______ _______ _______ _____ _____    ______ ____
ROOT
ATOM      1  S   UNL     1       0.745  10.490  18.592  0.00  0.00    +0.000 S 
ATOM      2  O   UNL     1       1.933  11.300  18.470  0.00  0.00    +0.000 OA
ATOM      3  O   UNL     1       0.639   9.207  17.928  0.00  0.00    +0.000 OA
ENDROOT
BRANCH   1   9
ATOM      4  C   UNL     1      -0.819  11.037  22.291  0.00  0.00    +0.000 A 
ATOM      5  C   UNL     1      -0.363   9.920  22.997  0.00  0.00    +0.000 A 
ATOM      6  C   UNL     1       0.440   8.954  22.378  0.00  0.00    +0.000 A 
ATOM      7  C   UNL     1       0.830   9.078  21.033  0.00  0.00    +0.000 A 
ATOM      8  C   UNL     1       1.661   7.975  20.440  0.00  0.00    +0.000 C 
ATOM      9  C   UNL     1       0.378  10.198  20.321  0.00  0.00    +0.000 A 
ATOM     10  C   UNL     1      -0.453  11.153  20.944  0.00  0.00    +0.000 A 
BRANCH   4  14
ATOM     11  C   UNL     1      -4.301  14.257  24.139  0.00  0.00    +0.000 C 
ATOM     12  C   UNL     1      -3.080  13.531  23.737  0.00  0.00    +0.000 A 
ATOM     13  C   UNL     1      -2.976  12.252  23.138  0.00  0.00    +0.000 A 
ATOM     14  C   UNL     1      -1.629  12.073  22.925  0.00  0.00    +0.000 A 
ATOM     15  O   UNL     1      -0.965  13.165  23.408  0.00  0.00    +0.000 OA
ATOM     16  N   UNL     1      -1.870  14.076  23.915  0.00  0.00    +0.000 NA
ENDBRANCH   4  14
ENDBRANCH   1   9
BRANCH   1  17
ATOM     17  N   UNL     1      -0.584  11.391  18.098  0.00  0.00    +0.000 NA
ATOM     18  H   UNL     1      -0.318  12.261  17.637  0.00  0.00    +0.000 HD
BRANCH  17  19
ATOM     19  C   UNL     1      -1.688  10.697  17.424  0.00  0.00    +0.000 C 
BRANCH  19  20
ATOM     20  C   UNL     1      -2.990  11.324  17.868  0.00  0.00    +0.000 A 
ATOM     21  C   UNL     1      -3.078  11.992  19.094  0.00  0.00    +0.000 A 
ATOM     22  C   UNL     1      -4.325  12.367  19.598  0.00  0.00    +0.000 A 
ATOM     23  C   UNL     1      -5.495  12.091  18.888  0.00  0.00    +0.000 A 
ATOM     24  C   UNL     1      -5.409  11.473  17.642  0.00  0.00    +0.000 A 
ATOM     25  C   UNL     1      -4.162  11.101  17.130  0.00  0.00    +0.000 A 
BRANCH  23  26
ATOM     26  O   UNL     1      -6.649  12.395  19.549  0.00  0.00    +0.000 OA
BRANCH  26  27
ATOM     27  C   UNL     1      -6.868  11.823  20.842  0.00  0.00    +0.000 C 
ATOM     28  C   UNL     1      -7.661  12.802  21.703  0.00  0.00    +0.000 C 
ATOM     29  C   UNL     1      -7.665  10.544  20.612  0.00  0.00    +0.000 C 
ENDBRANCH  26  27
ENDBRANCH  23  26
ENDBRANCH  19  20
ENDBRANCH  17  19
ENDBRANCH   1  17
TORSDOF 7
ENDMDL
MODEL 9
REMARK VINA RESULT:      -7.0      1.507      1.801
REMARK  Name = 
REMARK  11 active torsions:
REMARK  status: ('A' for Active; 'I' for Inactive)
REMARK    1  A    between atoms: C_1  and  C_2
REMARK    2  A    between atoms: C_4  and  C_5
REMARK    3  A    between atoms: C_8  and  C_9
REMARK    4  A    between atoms: C_10  and  S_11
REMARK    5  A    between atoms: S_11  and  N_14
REMARK    6  A    between atoms: N_14  and  C_15
REMARK    7  A    between atoms: C_15  and  C_16
REMARK    8  A    between atoms: C_19  and  O_20
REMARK    9  A    between atoms: O_20  and  C_21
REMARK   10  A    between atoms: C_21  and  C_22
REMARK   11  A    between atoms: C_21  and  C_23
REMARK                            x       y       z     vdW  Elec       q    Type
REMARK                         _______ _______ _______ _____ _____    ______ ____
ROOT
ATOM      1  S   UNL     1       5.762   4.945  19.009  0.00  0.00    +0.000 S 
ATOM      2  O   UNL     1       6.699   5.389  20.012  0.00  0.00    +0.000 OA
ATOM      3  O   UNL     1       5.913   3.661  18.356  0.00  0.00    +0.000 OA
ENDROOT
BRANCH   1   9
ATOM      4  C   UNL     1       2.174   6.421  20.181  0.00  0.00    +0.000 A 
ATOM      5  C   UNL     1       1.485   5.281  20.605  0.00  0.00    +0.000 A 
ATOM      6  C   UNL     1       2.083   4.016  20.552  0.00  0.00    +0.000 A 
ATOM      7  C   UNL     1       3.399   3.846  20.089  0.00  0.00    +0.000 A 
ATOM      8  C   UNL     1       3.947   2.448  20.032  0.00  0.00    +0.000 C 
ATOM      9  C   UNL     1       4.096   4.986  19.666  0.00  0.00    +0.000 A 
ATOM     10  C   UNL     1       3.477   6.254  19.696  0.00  0.00    +0.000 A 
BRANCH   4  14
ATOM     11  C   UNL     1      -0.259  10.784  21.159  0.00  0.00    +0.000 C 
ATOM     12  C   UNL     1       0.533   9.670  20.600  0.00  0.00    +0.000 A 
ATOM     13  C   UNL     1       0.901   8.454  21.225  0.00  0.00    +0.000 A 
ATOM     14  C   UNL     1       1.583   7.754  20.258  0.00  0.00    +0.000 A 
ATOM     15  O   UNL     1       1.654   8.527  19.133  0.00  0.00    +0.000 OA
ATOM     16  N   UNL     1       0.999   9.723  19.346  0.00  0.00    +0.000 NA
ENDBRANCH   4  14
ENDBRANCH   1   9
BRANCH   1  17
ATOM     17  N   UNL     1       5.686   6.093  17.785  0.00  0.00    +0.000 NA
ATOM     18  H   UNL     1       5.284   6.976  18.101  0.00  0.00    +0.000 HD
BRANCH  17  19
ATOM     19  C   UNL     1       6.859   6.272  16.919  0.00  0.00    +0.000 C 
BRANCH  19  20
ATOM     20  C   UNL     1       6.703   5.377  15.711  0.00  0.00    +0.000 A 
ATOM     21  C   UNL     1       7.698   5.329  14.729  0.00  0.00    +0.000 A 
ATOM     22  C   UNL     1       7.451   4.682  13.515  0.00  0.00    +0.000 A 
ATOM     23  C   UNL     1       6.220   4.072  13.269  0.00  0.00    +0.000 A 
ATOM     24  C   UNL     1       5.244   4.073  14.264  0.00  0.00    +0.000 A 
ATOM     25  C   UNL     1       5.489   4.713  15.483  0.00  0.00    +0.000 A 
BRANCH  23  26
ATOM     26  O   UNL     1       6.065   3.590  12.002  0.00  0.00    +0.000 OA
BRANCH  26  27
ATOM     27  C   UNL     1       5.069   2.589  11.767  0.00  0.00    +0.000 C 
ATOM     28  C   UNL     1       4.008   3.142  10.820  0.00  0.00    +0.000 C 
ATOM     29  C   UNL     1       5.795   1.410  11.130  0.00  0.00    +0.000 C 
ENDBRANCH  26  27
ENDBRANCH  23  26
ENDBRANCH  19  20
ENDBRANCH  17  19
ENDBRANCH   1  17
TORSDOF 7
ENDMDL
