MODEL 1
REMARK VINA RESULT:      -6.6      0.000      0.000
REMARK  Name = 
REMARK  1 active torsions:
REMARK  status: ('A' for Active; 'I' for Inactive)
REMARK    1  A    between atoms: C_2  and  C_3
REMARK                            x       y       z     vdW  Elec       q    Type
REMARK                         _______ _______ _______ _____ _____    ______ ____
ROOT
ATOM      1  C   UNL     1       2.682   6.017  18.910  0.00  0.00    +0.000 A 
ATOM      2  C   UNL     1       3.661   5.843  17.937  0.00  0.00    +0.000 A 
ATOM      3  N   UNL     1       3.786   4.483  17.712  0.00  0.00    +0.000 N 
ATOM      4  C   UNL     1       2.948   3.799  18.547  0.00  0.00    +0.000 A 
ATOM      5  C   UNL     1       2.751   2.394  18.711  0.00  0.00    +0.000 A 
ATOM      6  O   UNL     1       3.347   1.508  18.108  0.00  0.00    +0.000 OA
ATOM      7  N   UNL     1       1.792   2.117  19.654  0.00  0.00    +0.000 N 
ATOM      8  C   UNL     1       1.125   3.100  20.351  0.00  0.00    +0.000 A 
ATOM      9  N   UNL     1       1.291   4.381  20.231  0.00  0.00    +0.000 NA
ATOM     10  C   UNL     1       2.255   4.728  19.279  0.00  0.00    +0.000 A 
ATOM     11  C   UNL     1       4.715   3.894  16.757  0.00  0.00    +0.000 C 
ATOM     12  C   UNL     1       5.232   4.919  15.749  0.00  0.00    +0.000 C 
ATOM     13  C   UNL     1       5.666   6.191  16.473  0.00  0.00    +0.000 C 
ATOM     14  C   UNL     1       4.465   6.841  17.165  0.00  0.00    +0.000 C 
ATOM     15  H   UNL     1       1.600   1.141  19.822  0.00  0.00    +0.000 HD
ENDROOT
BRANCH   1  17
ATOM     16  N   UNL     1       1.797   8.266  19.847  0.00  0.00    +0.000 NA
ATOM     17  C   UNL     1       2.215   7.273  19.417  0.00  0.00    +0.000 C 
ENDBRANCH   1  17
TORSDOF 1
ENDMDL
MODEL 2
REMARK VINA RESULT:      -6.5      1.048      1.048
REMARK  Name = 
REMARK  1 active torsions:
REMARK  status: ('A' for Active; 'I' for Inactive)
REMARK    1  A    between atoms: C_2  and  C_3
REMARK                            x       y       z     vdW  Elec       q    Type
REMARK                         _______ _______ _______ _____ _____    ______ ____
ROOT
ATOM      1  C   UNL     1       2.833   6.256  19.328  0.00  0.00    +0.000 A 
ATOM      2  C   UNL     1       3.709   6.024  18.273  0.00  0.00    +0.000 A 
ATOM      3  N   UNL     1       4.103   4.698  18.343  0.00  0.00    +0.000 N 
ATOM      4  C   UNL     1       3.535   4.107  19.436  0.00  0.00    +0.000 A 
ATOM      5  C   UNL     1       3.670   2.778  19.943  0.00  0.00    +0.000 A 
ATOM      6  O   UNL     1       4.373   1.894  19.466  0.00  0.00    +0.000 OA
ATOM      7  N   UNL     1       2.908   2.579  21.068  0.00  0.00    +0.000 N 
ATOM      8  C   UNL     1       2.126   3.566  21.625  0.00  0.00    +0.000 A 
ATOM      9  N   UNL     1       1.993   4.781  21.193  0.00  0.00    +0.000 NA
ATOM     10  C   UNL     1       2.743   5.047  20.043  0.00  0.00    +0.000 A 
ATOM     11  C   UNL     1       5.023   4.068  17.407  0.00  0.00    +0.000 C 
ATOM     12  C   UNL     1       5.185   4.880  16.123  0.00  0.00    +0.000 C 
ATOM     13  C   UNL     1       5.410   6.352  16.461  0.00  0.00    +0.000 C 
ATOM     14  C   UNL     1       4.183   6.924  17.175  0.00  0.00    +0.000 C 
ATOM     15  H   UNL     1       2.955   1.659  21.480  0.00  0.00    +0.000 HD
ENDROOT
BRANCH   1  17
ATOM     16  N   UNL     1       1.629   8.483  19.884  0.00  0.00    +0.000 NA
ATOM     17  C   UNL     1       2.163   7.491  19.608  0.00  0.00    +0.000 C 
ENDBRANCH   1  17
TORSDOF 1
ENDMDL
MODEL 3
REMARK VINA RESULT:      -6.4      1.605      1.666
REMARK  Name = 
REMARK  1 active torsions:
REMARK  status: ('A' for Active; 'I' for Inactive)
REMARK    1  A    between atoms: C_2  and  C_3
REMARK                            x       y       z     vdW  Elec       q    Type
REMARK                         _______ _______ _______ _____ _____    ______ ____
ROOT
ATOM      1  C   UNL     1       3.447   6.445  18.349  0.00  0.00    +0.000 A 
ATOM      2  C   UNL     1       4.745   6.190  17.919  0.00  0.00    +0.000 A 
ATOM      3  N   UNL     1       5.108   4.945  18.404  0.00  0.00    +0.000 N 
ATOM      4  C   UNL     1       4.093   4.434  19.163  0.00  0.00    +0.000 A 
ATOM      5  C   UNL     1       4.013   3.211  19.895  0.00  0.00    +0.000 A 
ATOM      6  O   UNL     1       4.899   2.367  19.988  0.00  0.00    +0.000 OA
ATOM      7  N   UNL     1       2.797   3.064  20.518  0.00  0.00    +0.000 N 
ATOM      8  C   UNL     1       1.798   4.009  20.436  0.00  0.00    +0.000 A 
ATOM      9  N   UNL     1       1.847   5.131  19.788  0.00  0.00    +0.000 NA
ATOM     10  C   UNL     1       3.063   5.338  19.128  0.00  0.00    +0.000 A 
ATOM     11  C   UNL     1       6.402   4.320  18.167  0.00  0.00    +0.000 C 
ATOM     12  C   UNL     1       7.153   4.972  17.008  0.00  0.00    +0.000 C 
ATOM     13  C   UNL     1       7.112   6.492  17.148  0.00  0.00    +0.000 C 
ATOM     14  C   UNL     1       5.668   6.992  17.055  0.00  0.00    +0.000 C 
ATOM     15  H   UNL     1       2.670   2.219  21.054  0.00  0.00    +0.000 HD
ENDROOT
BRANCH   1  17
ATOM     16  N   UNL     1       2.025   8.530  17.759  0.00  0.00    +0.000 NA
ATOM     17  C   UNL     1       2.674   7.611  18.043  0.00  0.00    +0.000 C 
ENDBRANCH   1  17
TORSDOF 1
ENDMDL
MODEL 4
REMARK VINA RESULT:      -6.3      1.255      1.273
REMARK  Name = 
REMARK  1 active torsions:
REMARK  status: ('A' for Active; 'I' for Inactive)
REMARK    1  A    between atoms: C_2  and  C_3
REMARK                            x       y       z     vdW  Elec       q    Type
REMARK                         _______ _______ _______ _____ _____    ______ ____
ROOT
ATOM      1  C   UNL     1       3.137   6.528  18.252  0.00  0.00    +0.000 A 
ATOM      2  C   UNL     1       4.086   5.980  17.395  0.00  0.00    +0.000 A 
ATOM      3  N   UNL     1       4.315   4.678  17.805  0.00  0.00    +0.000 N 
ATOM      4  C   UNL     1       3.572   4.409  18.920  0.00  0.00    +0.000 A 
ATOM      5  C   UNL     1       3.501   3.229  19.720  0.00  0.00    +0.000 A 
ATOM      6  O   UNL     1       4.143   2.199  19.543  0.00  0.00    +0.000 OA
ATOM      7  N   UNL     1       2.608   3.364  20.755  0.00  0.00    +0.000 N 
ATOM      8  C   UNL     1       1.891   4.519  20.975  0.00  0.00    +0.000 A 
ATOM      9  N   UNL     1       1.943   5.608  20.273  0.00  0.00    +0.000 NA
ATOM     10  C   UNL     1       2.835   5.532  19.198  0.00  0.00    +0.000 A 
ATOM     11  C   UNL     1       5.249   3.769  17.155  0.00  0.00    +0.000 C 
ATOM     12  C   UNL     1       5.636   4.242  15.756  0.00  0.00    +0.000 C 
ATOM     13  C   UNL     1       5.993   5.727  15.786  0.00  0.00    +0.000 C 
ATOM     14  C   UNL     1       4.772   6.555  16.195  0.00  0.00    +0.000 C 
ATOM     15  H   UNL     1       2.505   2.565  21.362  0.00  0.00    +0.000 HD
ENDROOT
BRANCH   1  17
ATOM     16  N   UNL     1       2.104   8.902  18.120  0.00  0.00    +0.000 NA
ATOM     17  C   UNL     1       2.589   7.848  18.165  0.00  0.00    +0.000 C 
ENDBRANCH   1  17
TORSDOF 1
ENDMDL
MODEL 5
REMARK VINA RESULT:      -6.2      1.499      4.002
REMARK  Name = 
REMARK  1 active torsions:
REMARK  status: ('A' for Active; 'I' for Inactive)
REMARK    1  A    between atoms: C_2  and  C_3
REMARK                            x       y       z     vdW  Elec       q    Type
REMARK                         _______ _______ _______ _____ _____    ______ ____
ROOT
ATOM      1  C   UNL     1       2.764   5.967  18.832  0.00  0.00    +0.000 A 
ATOM      2  C   UNL     1       2.325   4.647  18.869  0.00  0.00    +0.000 A 
ATOM      3  N   UNL     1       3.138   3.914  18.020  0.00  0.00    +0.000 N 
ATOM      4  C   UNL     1       4.042   4.744  17.419  0.00  0.00    +0.000 A 
ATOM      5  C   UNL     1       5.051   4.463  16.448  0.00  0.00    +0.000 A 
ATOM      6  O   UNL     1       5.281   3.369  15.945  0.00  0.00    +0.000 OA
ATOM      7  N   UNL     1       5.767   5.586  16.113  0.00  0.00    +0.000 N 
ATOM      8  C   UNL     1       5.510   6.825  16.658  0.00  0.00    +0.000 A 
ATOM      9  N   UNL     1       4.596   7.111  17.531  0.00  0.00    +0.000 NA
ATOM     10  C   UNL     1       3.833   6.004  17.918  0.00  0.00    +0.000 A 
ATOM     11  C   UNL     1       2.996   2.484  17.785  0.00  0.00    +0.000 C 
ATOM     12  C   UNL     1       2.149   1.805  18.859  0.00  0.00    +0.000 C 
ATOM     13  C   UNL     1       0.878   2.614  19.111  0.00  0.00    +0.000 C 
ATOM     14  C   UNL     1       1.234   3.998  19.661  0.00  0.00    +0.000 C 
ATOM     15  H   UNL     1       6.499   5.461  15.431  0.00  0.00    +0.000 HD
ENDROOT
BRANCH   1  17
ATOM     16  N   UNL     1       1.827   7.948  20.216  0.00  0.00    +0.000 NA
ATOM     17  C   UNL     1       2.221   7.054  19.589  0.00  0.00    +0.000 C 
ENDBRANCH   1  17
TORSDOF 1
ENDMDL
MODEL 6
REMARK VINA RESULT:      -6.2      2.184      3.669
REMARK  Name = 
REMARK  1 active torsions:
REMARK  status: ('A' for Active; 'I' for Inactive)
REMARK    1  A    between atoms: C_2  and  C_3
REMARK                            x       y       z     vdW  Elec       q    Type
REMARK                         _______ _______ _______ _____ _____    ______ ____
ROOT
ATOM      1  C   UNL     1       5.221   4.780  18.351  0.00  0.00    +0.000 A 
ATOM      2  C   UNL     1       4.342   5.851  18.231  0.00  0.00    +0.000 A 
ATOM      3  N   UNL     1       3.277   5.614  19.084  0.00  0.00    +0.000 N 
ATOM      4  C   UNL     1       3.442   4.405  19.699  0.00  0.00    +0.000 A 
ATOM      5  C   UNL     1       2.600   3.717  20.625  0.00  0.00    +0.000 A 
ATOM      6  O   UNL     1       1.513   4.107  21.037  0.00  0.00    +0.000 OA
ATOM      7  N   UNL     1       3.145   2.521  21.022  0.00  0.00    +0.000 N 
ATOM      8  C   UNL     1       4.357   2.061  20.556  0.00  0.00    +0.000 A 
ATOM      9  N   UNL     1       5.136   2.658  19.710  0.00  0.00    +0.000 NA
ATOM     10  C   UNL     1       4.637   3.888  19.268  0.00  0.00    +0.000 A 
ATOM     11  C   UNL     1       2.142   6.512  19.245  0.00  0.00    +0.000 C 
ATOM     12  C   UNL     1       2.433   7.911  18.705  0.00  0.00    +0.000 C 
ATOM     13  C   UNL     1       3.075   7.815  17.323  0.00  0.00    +0.000 C 
ATOM     14  C   UNL     1       4.427   7.104  17.416  0.00  0.00    +0.000 C 
ATOM     15  H   UNL     1       2.602   1.980  21.679  0.00  0.00    +0.000 HD
ENDROOT
BRANCH   1  17
ATOM     16  N   UNL     1       7.507   4.543  17.152  0.00  0.00    +0.000 NA
ATOM     17  C   UNL     1       6.471   4.639  17.667  0.00  0.00    +0.000 C 
ENDBRANCH   1  17
TORSDOF 1
ENDMDL
MODEL 7
REMARK VINA RESULT:      -6.0      2.015      3.670
REMARK  Name = 
REMARK  1 active torsions:
REMARK  status: ('A' for Active; 'I' for Inactive)
REMARK    1  A    between atoms: C_2  and  C_3
REMARK                            x       y       z     vdW  Elec       q    Type
REMARK                         _______ _______ _______ _____ _____    ______ ____
ROOT
ATOM      1  C   UNL     1       3.664   3.527  18.384  0.00  0.00    +0.000 A 
ATOM      2  C   UNL     1       4.259   4.364  17.445  0.00  0.00    +0.000 A 
ATOM      3  N   UNL     1       3.918   5.665  17.772  0.00  0.00    +0.000 N 
ATOM      4  C   UNL     1       3.091   5.665  18.860  0.00  0.00    +0.000 A 
ATOM      5  C   UNL     1       2.454   6.749  19.536  0.00  0.00    +0.000 A 
ATOM      6  O   UNL     1       2.530   7.934  19.229  0.00  0.00    +0.000 OA
ATOM      7  N   UNL     1       1.710   6.319  20.607  0.00  0.00    +0.000 N 
ATOM      8  C   UNL     1       1.602   4.991  20.956  0.00  0.00    +0.000 A 
ATOM      9  N   UNL     1       2.160   3.986  20.355  0.00  0.00    +0.000 NA
ATOM     10  C   UNL     1       2.937   4.361  19.253  0.00  0.00    +0.000 A 
ATOM     11  C   UNL     1       4.351   6.837  17.023  0.00  0.00    +0.000 C 
ATOM     12  C   UNL     1       5.534   6.530  16.105  0.00  0.00    +0.000 C 
ATOM     13  C   UNL     1       5.270   5.243  15.326  0.00  0.00    +0.000 C 
ATOM     14  C   UNL     1       5.156   4.057  16.287  0.00  0.00    +0.000 C 
ATOM     15  H   UNL     1       1.231   7.034  21.133  0.00  0.00    +0.000 HD
ENDROOT
BRANCH   1  17
ATOM     16  N   UNL     1       3.840   0.942  18.456  0.00  0.00    +0.000 NA
ATOM     17  C   UNL     1       3.786   2.101  18.436  0.00  0.00    +0.000 C 
ENDBRANCH   1  17
TORSDOF 1
ENDMDL
MODEL 8
REMARK VINA RESULT:      -6.0      2.465      5.084
REMARK  Name = 
REMARK  1 active torsions:
REMARK  status: ('A' for Active; 'I' for Inactive)
REMARK    1  A    between atoms: C_2  and  C_3
REMARK                            x       y       z     vdW  Elec       q    Type
REMARK                         _______ _______ _______ _____ _____    ______ ____
ROOT
ATOM      1  C   UNL     1       3.957   3.599  17.821  0.00  0.00    +0.000 A 
ATOM      2  C   UNL     1       3.363   4.737  18.358  0.00  0.00    +0.000 A 
ATOM      3  N   UNL     1       3.779   5.820  17.602  0.00  0.00    +0.000 N 
ATOM      4  C   UNL     1       4.650   5.399  16.637  0.00  0.00    +0.000 A 
ATOM      5  C   UNL     1       5.366   6.145  15.651  0.00  0.00    +0.000 A 
ATOM      6  O   UNL     1       5.333   7.361  15.503  0.00  0.00    +0.000 OA
ATOM      7  N   UNL     1       6.133   5.332  14.852  0.00  0.00    +0.000 N 
ATOM      8  C   UNL     1       6.193   3.966  15.015  0.00  0.00    +0.000 A 
ATOM      9  N   UNL     1       5.564   3.266  15.906  0.00  0.00    +0.000 NA
ATOM     10  C   UNL     1       4.759   4.038  16.752  0.00  0.00    +0.000 A 
ATOM     11  C   UNL     1       3.371   7.195  17.851  0.00  0.00    +0.000 C 
ATOM     12  C   UNL     1       2.137   7.278  18.748  0.00  0.00    +0.000 C 
ATOM     13  C   UNL     1       2.307   6.356  19.954  0.00  0.00    +0.000 C 
ATOM     14  C   UNL     1       2.405   4.899  19.496  0.00  0.00    +0.000 C 
ATOM     15  H   UNL     1       6.667   5.793  14.131  0.00  0.00    +0.000 HD
ENDROOT
BRANCH   1  17
ATOM     16  N   UNL     1       3.570   1.171  18.643  0.00  0.00    +0.000 NA
ATOM     17  C   UNL     1       3.770   2.256  18.282  0.00  0.00    +0.000 C 
ENDBRANCH   1  17
TORSDOF 1
ENDMDL
MODEL 9
REMARK VINA RESULT:      -6.0      1.936      3.781
REMARK  Name = 
REMARK  1 active torsions:
REMARK  status: ('A' for Active; 'I' for Inactive)
REMARK    1  A    between atoms: C_2  and  C_3
REMARK                            x       y       z     vdW  Elec       q    Type
REMARK                         _______ _______ _______ _____ _____    ______ ____
ROOT
ATOM      1  C   UNL     1       4.004   5.585  17.761  0.00  0.00    +0.000 A 
ATOM      2  C   UNL     1       3.188   6.570  18.309  0.00  0.00    +0.000 A 
ATOM      3  N   UNL     1       2.646   6.059  19.476  0.00  0.00    +0.000 N 
ATOM      4  C   UNL     1       3.063   4.769  19.651  0.00  0.00    +0.000 A 
ATOM      5  C   UNL     1       2.744   3.826  20.674  0.00  0.00    +0.000 A 
ATOM      6  O   UNL     1       1.985   4.017  21.619  0.00  0.00    +0.000 OA
ATOM      7  N   UNL     1       3.393   2.630  20.490  0.00  0.00    +0.000 N 
ATOM      8  C   UNL     1       4.236   2.395  19.426  0.00  0.00    +0.000 A 
ATOM      9  N   UNL     1       4.535   3.227  18.478  0.00  0.00    +0.000 NA
ATOM     10  C   UNL     1       3.906   4.469  18.612  0.00  0.00    +0.000 A 
ATOM     11  C   UNL     1       1.735   6.792  20.344  0.00  0.00    +0.000 C 
ATOM     12  C   UNL     1       1.759   8.294  20.068  0.00  0.00    +0.000 C 
ATOM     13  C   UNL     1       1.673   8.551  18.565  0.00  0.00    +0.000 C 
ATOM     14  C   UNL     1       2.900   7.968  17.859  0.00  0.00    +0.000 C 
ATOM     15  H   UNL     1       3.215   1.915  21.178  0.00  0.00    +0.000 HD
ENDROOT
BRANCH   1  17
ATOM     16  N   UNL     1       5.414   5.860  15.603  0.00  0.00    +0.000 NA
ATOM     17  C   UNL     1       4.783   5.709  16.565  0.00  0.00    +0.000 C 
ENDBRANCH   1  17
TORSDOF 1
ENDMDL
