MODEL 1
REMARK VINA RESULT:      -7.2      0.000      0.000
REMARK  Name = 
REMARK  10 active torsions:
REMARK  status: ('A' for Active; 'I' for Inactive)
REMARK    1  A    between atoms: C_1  and  O_2
REMARK    2  A    between atoms: O_2  and  C_3
REMARK    3  A    between atoms: C_6  and  C_7
REMARK    4  A    between atoms: C_11  and  C_12
REMARK    5  A    between atoms: C_14  and  N_15
REMARK    6  A    between atoms: C_16  and  O_17
REMARK    7  A    between atoms: O_17  and  C_18
REMARK    8  A    between atoms: C_19  and  O_20
REMARK    9  A    between atoms: O_20  and  C_21
REMARK   10  A    between atoms: C_24  and  N_25
REMARK                            x       y       z     vdW  Elec       q    Type
REMARK                         _______ _______ _______ _____ _____    ______ ____
ROOT
ATOM      1  C   UNL     1       3.399   3.702  19.837  0.00  0.00    +0.000 A 
ATOM      2  O   UNL     1       3.261   2.506  20.360  0.00  0.00    +0.000 OA
ATOM      3  C   UNL     1       2.361   2.598  21.316  0.00  0.00    +0.000 A 
ATOM      4  N   UNL     1       1.869   3.847  21.440  0.00  0.00    +0.000 NA
ATOM      5  C   UNL     1       2.501   4.547  20.482  0.00  0.00    +0.000 A 
ENDROOT
BRANCH   1   9
ATOM      6  C   UNL     1       6.331   4.654  16.822  0.00  0.00    +0.000 A 
ATOM      7  C   UNL     1       5.154   3.966  16.489  0.00  0.00    +0.000 A 
ATOM      8  C   UNL     1       4.209   3.672  17.462  0.00  0.00    +0.000 A 
ATOM      9  C   UNL     1       4.410   4.039  18.804  0.00  0.00    +0.000 A 
ATOM     10  C   UNL     1       5.564   4.755  19.141  0.00  0.00    +0.000 A 
ATOM     11  C   UNL     1       6.531   5.055  18.164  0.00  0.00    +0.000 A 
BRANCH  11  12
ATOM     12  N   UNL     1       7.700   5.764  18.540  0.00  0.00    +0.000 N 
ATOM     13  H   UNL     1       8.205   5.518  19.403  0.00  0.00    +0.000 HD
ATOM     14  H   UNL     1       8.057   6.540  17.968  0.00  0.00    +0.000 HD
ENDBRANCH  11  12
BRANCH   6  16
ATOM     15  C   UNL     1       7.078   4.863  14.514  0.00  0.00    +0.000 C 
ATOM     16  O   UNL     1       7.266   4.957  15.879  0.00  0.00    +0.000 OA
ENDBRANCH   6  16
ENDBRANCH   1   9
BRANCH   5  17
ATOM     17  C   UNL     1       2.194   5.962  20.162  0.00  0.00    +0.000 A 
ATOM     18  C   UNL     1       2.498   6.475  18.899  0.00  0.00    +0.000 A 
ATOM     19  C   UNL     1       2.272   7.809  18.555  0.00  0.00    +0.000 A 
ATOM     20  C   UNL     1       1.683   8.678  19.534  0.00  0.00    +0.000 A 
ATOM     21  C   UNL     1       1.347   8.148  20.803  0.00  0.00    +0.000 A 
ATOM     22  C   UNL     1       1.594   6.793  21.100  0.00  0.00    +0.000 A 
BRANCH  19  23
ATOM     23  N   UNL     1       2.670   8.188  17.239  0.00  0.00    +0.000 N 
ATOM     24  H   UNL     1       2.440   7.579  16.440  0.00  0.00    +0.000 HD
ATOM     25  H   UNL     1       3.206   9.019  16.997  0.00  0.00    +0.000 HD
ENDBRANCH  19  23
BRANCH  20  26
ATOM     26  O   UNL     1       1.401  10.002  19.362  0.00  0.00    +0.000 OA
ATOM     27  C   UNL     1       0.371  10.619  18.692  0.00  0.00    +0.000 C 
ENDBRANCH  20  26
BRANCH  21  28
ATOM     28  O   UNL     1       0.798   8.984  21.726  0.00  0.00    +0.000 OA
ATOM     29  C   UNL     1      -0.494   8.911  22.208  0.00  0.00    +0.000 C 
ENDBRANCH  21  28
ENDBRANCH   5  17
TORSDOF 7
ENDMDL
MODEL 2
REMARK VINA RESULT:      -7.2      2.085      6.253
REMARK  Name = 
REMARK  10 active torsions:
REMARK  status: ('A' for Active; 'I' for Inactive)
REMARK    1  A    between atoms: C_1  and  O_2
REMARK    2  A    between atoms: O_2  and  C_3
REMARK    3  A    between atoms: C_6  and  C_7
REMARK    4  A    between atoms: C_11  and  C_12
REMARK    5  A    between atoms: C_14  and  N_15
REMARK    6  A    between atoms: C_16  and  O_17
REMARK    7  A    between atoms: O_17  and  C_18
REMARK    8  A    between atoms: C_19  and  O_20
REMARK    9  A    between atoms: O_20  and  C_21
REMARK   10  A    between atoms: C_24  and  N_25
REMARK                            x       y       z     vdW  Elec       q    Type
REMARK                         _______ _______ _______ _____ _____    ______ ____
ROOT
ATOM      1  C   UNL     1       2.874   4.097  18.957  0.00  0.00    +0.000 A 
ATOM      2  O   UNL     1       2.275   3.196  19.701  0.00  0.00    +0.000 OA
ATOM      3  C   UNL     1       2.733   2.018  19.333  0.00  0.00    +0.000 A 
ATOM      4  N   UNL     1       3.654   2.108  18.352  0.00  0.00    +0.000 NA
ATOM      5  C   UNL     1       3.772   3.428  18.130  0.00  0.00    +0.000 A 
ENDROOT
BRANCH   1   9
ATOM      6  C   UNL     1       1.934   8.305  19.018  0.00  0.00    +0.000 A 
ATOM      7  C   UNL     1       2.233   7.652  17.812  0.00  0.00    +0.000 A 
ATOM      8  C   UNL     1       2.523   6.296  17.797  0.00  0.00    +0.000 A 
ATOM      9  C   UNL     1       2.542   5.543  18.985  0.00  0.00    +0.000 A 
ATOM     10  C   UNL     1       2.213   6.178  20.189  0.00  0.00    +0.000 A 
ATOM     11  C   UNL     1       1.921   7.553  20.216  0.00  0.00    +0.000 A 
BRANCH  11  12
ATOM     12  N   UNL     1       1.611   8.171  21.454  0.00  0.00    +0.000 N 
ATOM     13  H   UNL     1       2.330   8.696  21.971  0.00  0.00    +0.000 HD
ATOM     14  H   UNL     1       0.670   8.098  21.863  0.00  0.00    +0.000 HD
ENDBRANCH  11  12
BRANCH   6  16
ATOM     15  C   UNL     1       0.501  10.210  18.517  0.00  0.00    +0.000 C 
ATOM     16  O   UNL     1       1.639   9.634  19.050  0.00  0.00    +0.000 OA
ENDBRANCH   6  16
ENDBRANCH   1   9
BRANCH   5  17
ATOM     17  C   UNL     1       4.766   4.018  17.202  0.00  0.00    +0.000 A 
ATOM     18  C   UNL     1       4.656   3.796  15.827  0.00  0.00    +0.000 A 
ATOM     19  C   UNL     1       5.585   4.290  14.910  0.00  0.00    +0.000 A 
ATOM     20  C   UNL     1       6.681   5.076  15.400  0.00  0.00    +0.000 A 
ATOM     21  C   UNL     1       6.772   5.327  16.791  0.00  0.00    +0.000 A 
ATOM     22  C   UNL     1       5.807   4.807  17.676  0.00  0.00    +0.000 A 
BRANCH  19  23
ATOM     23  N   UNL     1       5.355   3.946  13.544  0.00  0.00    +0.000 N 
ATOM     24  H   UNL     1       5.399   4.676  12.818  0.00  0.00    +0.000 HD
ATOM     25  H   UNL     1       5.114   3.020  13.198  0.00  0.00    +0.000 HD
ENDBRANCH  19  23
BRANCH  20  26
ATOM     26  O   UNL     1       7.673   5.628  14.643  0.00  0.00    +0.000 OA
ATOM     27  C   UNL     1       8.031   5.403  13.335  0.00  0.00    +0.000 C 
ENDBRANCH  20  26
BRANCH  21  28
ATOM     28  O   UNL     1       7.820   6.065  17.246  0.00  0.00    +0.000 OA
ATOM     29  C   UNL     1       7.871   6.730  18.456  0.00  0.00    +0.000 C 
ENDBRANCH  21  28
ENDBRANCH   5  17
TORSDOF 7
ENDMDL
MODEL 3
REMARK VINA RESULT:      -6.9      1.682      1.880
REMARK  Name = 
REMARK  10 active torsions:
REMARK  status: ('A' for Active; 'I' for Inactive)
REMARK    1  A    between atoms: C_1  and  O_2
REMARK    2  A    between atoms: O_2  and  C_3
REMARK    3  A    between atoms: C_6  and  C_7
REMARK    4  A    between atoms: C_11  and  C_12
REMARK    5  A    between atoms: C_14  and  N_15
REMARK    6  A    between atoms: C_16  and  O_17
REMARK    7  A    between atoms: O_17  and  C_18
REMARK    8  A    between atoms: C_19  and  O_20
REMARK    9  A    between atoms: O_20  and  C_21
REMARK   10  A    between atoms: C_24  and  N_25
REMARK                            x       y       z     vdW  Elec       q    Type
REMARK                         _______ _______ _______ _____ _____    ______ ____
ROOT
ATOM      1  C   UNL     1       3.074   4.872  19.348  0.00  0.00    +0.000 A 
ATOM      2  O   UNL     1       2.865   3.577  19.388  0.00  0.00    +0.000 OA
ATOM      3  C   UNL     1       1.742   3.382  20.046  0.00  0.00    +0.000 A 
ATOM      4  N   UNL     1       1.172   4.538  20.442  0.00  0.00    +0.000 NA
ATOM      5  C   UNL     1       1.996   5.491  19.974  0.00  0.00    +0.000 A 
ENDROOT
BRANCH   1   9
ATOM      6  C   UNL     1       6.632   6.669  17.702  0.00  0.00    +0.000 A 
ATOM      7  C   UNL     1       5.378   6.879  17.107  0.00  0.00    +0.000 A 
ATOM      8  C   UNL     1       4.236   6.307  17.647  0.00  0.00    +0.000 A 
ATOM      9  C   UNL     1       4.302   5.492  18.791  0.00  0.00    +0.000 A 
ATOM     10  C   UNL     1       5.543   5.304  19.412  0.00  0.00    +0.000 A 
ATOM     11  C   UNL     1       6.708   5.876  18.870  0.00  0.00    +0.000 A 
BRANCH  11  12
ATOM     12  N   UNL     1       7.953   5.649  19.511  0.00  0.00    +0.000 N 
ATOM     13  H   UNL     1       8.824   5.608  18.962  0.00  0.00    +0.000 HD
ATOM     14  H   UNL     1       8.010   5.512  20.528  0.00  0.00    +0.000 HD
ENDBRANCH  11  12
BRANCH   6  16
ATOM     15  C   UNL     1       8.244   8.485  17.507  0.00  0.00    +0.000 C 
ATOM     16  O   UNL     1       7.763   7.229  17.189  0.00  0.00    +0.000 OA
ENDBRANCH   6  16
ENDBRANCH   1   9
BRANCH   5  17
ATOM     17  C   UNL     1       1.713   6.943  20.072  0.00  0.00    +0.000 A 
ATOM     18  C   UNL     1       1.688   7.730  18.919  0.00  0.00    +0.000 A 
ATOM     19  C   UNL     1       1.469   9.108  18.954  0.00  0.00    +0.000 A 
ATOM     20  C   UNL     1       1.238   9.733  20.225  0.00  0.00    +0.000 A 
ATOM     21  C   UNL     1       1.232   8.927  21.390  0.00  0.00    +0.000 A 
ATOM     22  C   UNL     1       1.457   7.539  21.301  0.00  0.00    +0.000 A 
BRANCH  19  23
ATOM     23  N   UNL     1       1.511   9.777  17.694  0.00  0.00    +0.000 N 
ATOM     24  H   UNL     1       0.637  10.120  17.269  0.00  0.00    +0.000 HD
ATOM     25  H   UNL     1       2.345   9.934  17.133  0.00  0.00    +0.000 HD
ENDBRANCH  19  23
BRANCH  20  26
ATOM     26  O   UNL     1       1.013  11.062  20.435  0.00  0.00    +0.000 OA
ATOM     27  C   UNL     1      -0.080  11.842  20.142  0.00  0.00    +0.000 C 
ENDBRANCH  20  26
BRANCH  21  28
ATOM     28  O   UNL     1       1.022   9.532  22.591  0.00  0.00    +0.000 OA
ATOM     29  C   UNL     1      -0.166   9.526  23.296  0.00  0.00    +0.000 C 
ENDBRANCH  21  28
ENDBRANCH   5  17
TORSDOF 7
ENDMDL
MODEL 4
REMARK VINA RESULT:      -6.9      1.943      6.170
REMARK  Name = 
REMARK  10 active torsions:
REMARK  status: ('A' for Active; 'I' for Inactive)
REMARK    1  A    between atoms: C_1  and  O_2
REMARK    2  A    between atoms: O_2  and  C_3
REMARK    3  A    between atoms: C_6  and  C_7
REMARK    4  A    between atoms: C_11  and  C_12
REMARK    5  A    between atoms: C_14  and  N_15
REMARK    6  A    between atoms: C_16  and  O_17
REMARK    7  A    between atoms: O_17  and  C_18
REMARK    8  A    between atoms: C_19  and  O_20
REMARK    9  A    between atoms: O_20  and  C_21
REMARK   10  A    between atoms: C_24  and  N_25
REMARK                            x       y       z     vdW  Elec       q    Type
REMARK                         _______ _______ _______ _____ _____    ______ ____
ROOT
ATOM      1  C   UNL     1       2.995   4.947  19.746  0.00  0.00    +0.000 A 
ATOM      2  O   UNL     1       2.483   4.221  20.712  0.00  0.00    +0.000 OA
ATOM      3  C   UNL     1       3.031   3.027  20.637  0.00  0.00    +0.000 A 
ATOM      4  N   UNL     1       3.928   2.936  19.635  0.00  0.00    +0.000 NA
ATOM      5  C   UNL     1       3.934   4.162  19.085  0.00  0.00    +0.000 A 
ENDROOT
BRANCH   1   9
ATOM      6  C   UNL     1       1.716   8.952  18.786  0.00  0.00    +0.000 A 
ATOM      7  C   UNL     1       2.288   8.125  17.807  0.00  0.00    +0.000 A 
ATOM      8  C   UNL     1       2.687   6.833  18.119  0.00  0.00    +0.000 A 
ATOM      9  C   UNL     1       2.546   6.324  19.422  0.00  0.00    +0.000 A 
ATOM     10  C   UNL     1       1.946   7.129  20.398  0.00  0.00    +0.000 A 
ATOM     11  C   UNL     1       1.541   8.441  20.093  0.00  0.00    +0.000 A 
BRANCH  11  12
ATOM     12  N   UNL     1       0.955   9.239  21.109  0.00  0.00    +0.000 N 
ATOM     13  H   UNL     1       0.410  10.078  20.865  0.00  0.00    +0.000 HD
ATOM     14  H   UNL     1       1.073   9.003  22.103  0.00  0.00    +0.000 HD
ENDBRANCH  11  12
BRANCH   6  16
ATOM     15  C   UNL     1       2.151  11.268  18.171  0.00  0.00    +0.000 C 
ATOM     16  O   UNL     1       1.311  10.219  18.495  0.00  0.00    +0.000 OA
ENDBRANCH   6  16
ENDBRANCH   1   9
BRANCH   5  17
ATOM     17  C   UNL     1       4.864   4.572  18.005  0.00  0.00    +0.000 A 
ATOM     18  C   UNL     1       4.683   4.090  16.706  0.00  0.00    +0.000 A 
ATOM     19  C   UNL     1       5.550   4.409  15.659  0.00  0.00    +0.000 A 
ATOM     20  C   UNL     1       6.656   5.283  15.927  0.00  0.00    +0.000 A 
ATOM     21  C   UNL     1       6.818   5.795  17.237  0.00  0.00    +0.000 A 
ATOM     22  C   UNL     1       5.914   5.446  18.260  0.00  0.00    +0.000 A 
BRANCH  19  23
ATOM     23  N   UNL     1       5.251   3.808  14.400  0.00  0.00    +0.000 N 
ATOM     24  H   UNL     1       4.270   3.716  14.098  0.00  0.00    +0.000 HD
ATOM     25  H   UNL     1       5.932   3.417  13.752  0.00  0.00    +0.000 HD
ENDBRANCH  19  23
BRANCH  20  26
ATOM     26  O   UNL     1       7.594   5.688  15.023  0.00  0.00    +0.000 OA
ATOM     27  C   UNL     1       7.746   5.379  13.692  0.00  0.00    +0.000 C 
ENDBRANCH  20  26
BRANCH  21  28
ATOM     28  O   UNL     1       7.876   6.616  17.482  0.00  0.00    +0.000 OA
ATOM     29  C   UNL     1       7.814   7.989  17.616  0.00  0.00    +0.000 C 
ENDBRANCH  21  28
ENDBRANCH   5  17
TORSDOF 7
ENDMDL
MODEL 5
REMARK VINA RESULT:      -6.7      1.718      2.056
REMARK  Name = 
REMARK  10 active torsions:
REMARK  status: ('A' for Active; 'I' for Inactive)
REMARK    1  A    between atoms: C_1  and  O_2
REMARK    2  A    between atoms: O_2  and  C_3
REMARK    3  A    between atoms: C_6  and  C_7
REMARK    4  A    between atoms: C_11  and  C_12
REMARK    5  A    between atoms: C_14  and  N_15
REMARK    6  A    between atoms: C_16  and  O_17
REMARK    7  A    between atoms: O_17  and  C_18
REMARK    8  A    between atoms: C_19  and  O_20
REMARK    9  A    between atoms: O_20  and  C_21
REMARK   10  A    between atoms: C_24  and  N_25
REMARK                            x       y       z     vdW  Elec       q    Type
REMARK                         _______ _______ _______ _____ _____    ______ ____
ROOT
ATOM      1  C   UNL     1       2.927   4.718  19.297  0.00  0.00    +0.000 A 
ATOM      2  O   UNL     1       2.675   3.432  19.365  0.00  0.00    +0.000 OA
ATOM      3  C   UNL     1       1.577   3.285  20.076  0.00  0.00    +0.000 A 
ATOM      4  N   UNL     1       1.066   4.465  20.481  0.00  0.00    +0.000 NA
ATOM      5  C   UNL     1       1.901   5.382  19.963  0.00  0.00    +0.000 A 
ENDROOT
BRANCH   1   9
ATOM      6  C   UNL     1       6.488   6.387  17.526  0.00  0.00    +0.000 A 
ATOM      7  C   UNL     1       6.507   5.872  18.832  0.00  0.00    +0.000 A 
ATOM      8  C   UNL     1       5.361   5.327  19.392  0.00  0.00    +0.000 A 
ATOM      9  C   UNL     1       4.150   5.288  18.678  0.00  0.00    +0.000 A 
ATOM     10  C   UNL     1       4.129   5.767  17.363  0.00  0.00    +0.000 A 
ATOM     11  C   UNL     1       5.283   6.326  16.786  0.00  0.00    +0.000 A 
BRANCH  11  12
ATOM     12  N   UNL     1       5.225   6.822  15.459  0.00  0.00    +0.000 N 
ATOM     13  H   UNL     1       5.635   7.737  15.224  0.00  0.00    +0.000 HD
ATOM     14  H   UNL     1       4.764   6.286  14.712  0.00  0.00    +0.000 HD
ENDBRANCH  11  12
BRANCH   6  16
ATOM     15  C   UNL     1       8.179   8.126  17.308  0.00  0.00    +0.000 C 
ATOM     16  O   UNL     1       7.605   6.918  16.957  0.00  0.00    +0.000 OA
ENDBRANCH   6  16
ENDBRANCH   1   9
BRANCH   5  17
ATOM     17  C   UNL     1       1.673   6.845  20.053  0.00  0.00    +0.000 A 
ATOM     18  C   UNL     1       1.725   7.633  18.901  0.00  0.00    +0.000 A 
ATOM     19  C   UNL     1       1.560   9.018  18.931  0.00  0.00    +0.000 A 
ATOM     20  C   UNL     1       1.307   9.651  20.194  0.00  0.00    +0.000 A 
ATOM     21  C   UNL     1       1.224   8.846  21.356  0.00  0.00    +0.000 A 
ATOM     22  C   UNL     1       1.395   7.450  21.273  0.00  0.00    +0.000 A 
BRANCH  19  23
ATOM     23  N   UNL     1       1.677   9.686  17.676  0.00  0.00    +0.000 N 
ATOM     24  H   UNL     1       2.219   9.251  16.914  0.00  0.00    +0.000 HD
ATOM     25  H   UNL     1       1.289  10.600  17.450  0.00  0.00    +0.000 HD
ENDBRANCH  19  23
BRANCH  20  26
ATOM     26  O   UNL     1       1.128  10.989  20.398  0.00  0.00    +0.000 OA
ATOM     27  C   UNL     1       0.066  11.807  20.094  0.00  0.00    +0.000 C 
ENDBRANCH  20  26
BRANCH  21  28
ATOM     28  O   UNL     1       0.993   9.458  22.549  0.00  0.00    +0.000 OA
ATOM     29  C   UNL     1      -0.231   9.549  23.182  0.00  0.00    +0.000 C 
ENDBRANCH  21  28
ENDBRANCH   5  17
TORSDOF 7
ENDMDL
MODEL 6
REMARK VINA RESULT:      -6.7      1.282      2.215
REMARK  Name = 
REMARK  10 active torsions:
REMARK  status: ('A' for Active; 'I' for Inactive)
REMARK    1  A    between atoms: C_1  and  O_2
REMARK    2  A    between atoms: O_2  and  C_3
REMARK    3  A    between atoms: C_6  and  C_7
REMARK    4  A    between atoms: C_11  and  C_12
REMARK    5  A    between atoms: C_14  and  N_15
REMARK    6  A    between atoms: C_16  and  O_17
REMARK    7  A    between atoms: O_17  and  C_18
REMARK    8  A    between atoms: C_19  and  O_20
REMARK    9  A    between atoms: O_20  and  C_21
REMARK   10  A    between atoms: C_24  and  N_25
REMARK                            x       y       z     vdW  Elec       q    Type
REMARK                         _______ _______ _______ _____ _____    ______ ____
ROOT
ATOM      1  C   UNL     1       3.333   3.581  19.912  0.00  0.00    +0.000 A 
ATOM      2  O   UNL     1       3.173   2.396  20.455  0.00  0.00    +0.000 OA
ATOM      3  C   UNL     1       2.283   2.523  21.416  0.00  0.00    +0.000 A 
ATOM      4  N   UNL     1       1.819   3.785  21.523  0.00  0.00    +0.000 NA
ATOM      5  C   UNL     1       2.458   4.456  20.549  0.00  0.00    +0.000 A 
ENDROOT
BRANCH   1   9
ATOM      6  C   UNL     1       6.259   4.424  16.858  0.00  0.00    +0.000 A 
ATOM      7  C   UNL     1       4.983   3.945  16.520  0.00  0.00    +0.000 A 
ATOM      8  C   UNL     1       4.042   3.686  17.506  0.00  0.00    +0.000 A 
ATOM      9  C   UNL     1       4.343   3.880  18.866  0.00  0.00    +0.000 A 
ATOM     10  C   UNL     1       5.600   4.389  19.212  0.00  0.00    +0.000 A 
ATOM     11  C   UNL     1       6.563   4.651  18.220  0.00  0.00    +0.000 A 
BRANCH  11  12
ATOM     12  N   UNL     1       7.835   5.147  18.604  0.00  0.00    +0.000 N 
ATOM     13  H   UNL     1       8.175   5.025  19.568  0.00  0.00    +0.000 HD
ATOM     14  H   UNL     1       8.435   5.644  17.933  0.00  0.00    +0.000 HD
ENDBRANCH  11  12
BRANCH   6  16
ATOM     15  C   UNL     1       6.961   4.679  14.540  0.00  0.00    +0.000 C 
ATOM     16  O   UNL     1       7.192   4.690  15.902  0.00  0.00    +0.000 OA
ENDBRANCH   6  16
ENDBRANCH   1   9
BRANCH   5  17
ATOM     17  C   UNL     1       2.180   5.872  20.209  0.00  0.00    +0.000 A 
ATOM     18  C   UNL     1       1.412   6.660  21.069  0.00  0.00    +0.000 A 
ATOM     19  C   UNL     1       1.083   7.985  20.781  0.00  0.00    +0.000 A 
ATOM     20  C   UNL     1       1.573   8.564  19.563  0.00  0.00    +0.000 A 
ATOM     21  C   UNL     1       2.377   7.772  18.708  0.00  0.00    +0.000 A 
ATOM     22  C   UNL     1       2.684   6.439  19.045  0.00  0.00    +0.000 A 
BRANCH  19  23
ATOM     23  N   UNL     1       0.260   8.645  21.742  0.00  0.00    +0.000 N 
ATOM     24  H   UNL     1       0.130   9.666  21.688  0.00  0.00    +0.000 HD
ATOM     25  H   UNL     1      -0.211   8.199  22.527  0.00  0.00    +0.000 HD
ENDBRANCH  19  23
BRANCH  20  26
ATOM     26  O   UNL     1       1.341   9.837  19.131  0.00  0.00    +0.000 OA
ATOM     27  C   UNL     1       0.213  10.407  18.589  0.00  0.00    +0.000 C 
ENDBRANCH  20  26
BRANCH  21  28
ATOM     28  O   UNL     1       2.829   8.328  17.551  0.00  0.00    +0.000 OA
ATOM     29  C   UNL     1       3.886   7.862  16.794  0.00  0.00    +0.000 C 
ENDBRANCH  21  28
ENDBRANCH   5  17
TORSDOF 7
ENDMDL
MODEL 7
REMARK VINA RESULT:      -6.6      2.677      5.350
REMARK  Name = 
REMARK  10 active torsions:
REMARK  status: ('A' for Active; 'I' for Inactive)
REMARK    1  A    between atoms: C_1  and  O_2
REMARK    2  A    between atoms: O_2  and  C_3
REMARK    3  A    between atoms: C_6  and  C_7
REMARK    4  A    between atoms: C_11  and  C_12
REMARK    5  A    between atoms: C_14  and  N_15
REMARK    6  A    between atoms: C_16  and  O_17
REMARK    7  A    between atoms: O_17  and  C_18
REMARK    8  A    between atoms: C_19  and  O_20
REMARK    9  A    between atoms: O_20  and  C_21
REMARK   10  A    between atoms: C_24  and  N_25
REMARK                            x       y       z     vdW  Elec       q    Type
REMARK                         _______ _______ _______ _____ _____    ______ ____
ROOT
ATOM      1  C   UNL     1       6.420   4.969  15.562  0.00  0.00    +0.000 A 
ATOM      2  O   UNL     1       6.946   4.770  14.377  0.00  0.00    +0.000 OA
ATOM      3  C   UNL     1       6.219   3.851  13.776  0.00  0.00    +0.000 A 
ATOM      4  N   UNL     1       5.189   3.432  14.537  0.00  0.00    +0.000 NA
ATOM      5  C   UNL     1       5.291   4.161  15.661  0.00  0.00    +0.000 A 
ENDROOT
BRANCH   1   9
ATOM      6  C   UNL     1       8.184   7.543  18.539  0.00  0.00    +0.000 A 
ATOM      7  C   UNL     1       7.756   8.058  17.304  0.00  0.00    +0.000 A 
ATOM      8  C   UNL     1       7.179   7.226  16.356  0.00  0.00    +0.000 A 
ATOM      9  C   UNL     1       7.022   5.849  16.594  0.00  0.00    +0.000 A 
ATOM     10  C   UNL     1       7.414   5.333  17.835  0.00  0.00    +0.000 A 
ATOM     11  C   UNL     1       8.004   6.166  18.803  0.00  0.00    +0.000 A 
BRANCH  11  12
ATOM     12  N   UNL     1       8.410   5.608  20.042  0.00  0.00    +0.000 N 
ATOM     13  H   UNL     1       8.937   6.174  20.722  0.00  0.00    +0.000 HD
ATOM     14  H   UNL     1       8.198   4.630  20.279  0.00  0.00    +0.000 HD
ENDBRANCH  11  12
BRANCH   6  16
ATOM     15  C   UNL     1       9.085   9.673  19.303  0.00  0.00    +0.000 C 
ATOM     16  O   UNL     1       8.745   8.346  19.485  0.00  0.00    +0.000 OA
ENDBRANCH   6  16
ENDBRANCH   1   9
BRANCH   5  17
ATOM     17  C   UNL     1       4.293   4.124  16.758  0.00  0.00    +0.000 A 
ATOM     18  C   UNL     1       3.854   2.897  17.261  0.00  0.00    +0.000 A 
ATOM     19  C   UNL     1       2.887   2.799  18.263  0.00  0.00    +0.000 A 
ATOM     20  C   UNL     1       2.341   4.008  18.809  0.00  0.00    +0.000 A 
ATOM     21  C   UNL     1       2.811   5.251  18.319  0.00  0.00    +0.000 A 
ATOM     22  C   UNL     1       3.791   5.297  17.308  0.00  0.00    +0.000 A 
BRANCH  19  23
ATOM     23  N   UNL     1       2.517   1.474  18.643  0.00  0.00    +0.000 N 
ATOM     24  H   UNL     1       1.584   1.301  19.048  0.00  0.00    +0.000 HD
ATOM     25  H   UNL     1       3.111   0.651  18.580  0.00  0.00    +0.000 HD
ENDBRANCH  19  23
BRANCH  20  26
ATOM     26  O   UNL     1       1.390   4.089  19.784  0.00  0.00    +0.000 OA
ATOM     27  C   UNL     1       1.407   3.657  21.089  0.00  0.00    +0.000 C 
ENDBRANCH  20  26
BRANCH  21  28
ATOM     28  O   UNL     1       2.280   6.391  18.838  0.00  0.00    +0.000 OA
ATOM     29  C   UNL     1       2.553   7.675  18.405  0.00  0.00    +0.000 C 
ENDBRANCH  21  28
ENDBRANCH   5  17
TORSDOF 7
ENDMDL
MODEL 8
REMARK VINA RESULT:      -6.4      1.821      6.057
REMARK  Name = 
REMARK  10 active torsions:
REMARK  status: ('A' for Active; 'I' for Inactive)
REMARK    1  A    between atoms: C_1  and  O_2
REMARK    2  A    between atoms: O_2  and  C_3
REMARK    3  A    between atoms: C_6  and  C_7
REMARK    4  A    between atoms: C_11  and  C_12
REMARK    5  A    between atoms: C_14  and  N_15
REMARK    6  A    between atoms: C_16  and  O_17
REMARK    7  A    between atoms: O_17  and  C_18
REMARK    8  A    between atoms: C_19  and  O_20
REMARK    9  A    between atoms: O_20  and  C_21
REMARK   10  A    between atoms: C_24  and  N_25
REMARK                            x       y       z     vdW  Elec       q    Type
REMARK                         _______ _______ _______ _____ _____    ______ ____
ROOT
ATOM      1  C   UNL     1       2.440   4.807  20.275  0.00  0.00    +0.000 A 
ATOM      2  O   UNL     1       1.773   4.202  21.230  0.00  0.00    +0.000 OA
ATOM      3  C   UNL     1       2.182   2.951  21.261  0.00  0.00    +0.000 A 
ATOM      4  N   UNL     1       3.139   2.701  20.344  0.00  0.00    +0.000 NA
ATOM      5  C   UNL     1       3.331   3.884  19.736  0.00  0.00    +0.000 A 
ENDROOT
BRANCH   1   9
ATOM      6  C   UNL     1       1.715   8.865  19.009  0.00  0.00    +0.000 A 
ATOM      7  C   UNL     1       2.218   7.910  18.111  0.00  0.00    +0.000 A 
ATOM      8  C   UNL     1       2.439   6.604  18.522  0.00  0.00    +0.000 A 
ATOM      9  C   UNL     1       2.181   6.204  19.845  0.00  0.00    +0.000 A 
ATOM     10  C   UNL     1       1.648   7.140  20.739  0.00  0.00    +0.000 A 
ATOM     11  C   UNL     1       1.424   8.468  20.335  0.00  0.00    +0.000 A 
BRANCH  11  12
ATOM     12  N   UNL     1       0.902   9.398  21.270  0.00  0.00    +0.000 N 
ATOM     13  H   UNL     1       0.111   9.141  21.877  0.00  0.00    +0.000 HD
ATOM     14  H   UNL     1       1.293  10.346  21.351  0.00  0.00    +0.000 HD
ENDBRANCH  11  12
BRANCH   6  16
ATOM     15  C   UNL     1       2.373  10.940  17.916  0.00  0.00    +0.000 C 
ATOM     16  O   UNL     1       1.485  10.150  18.621  0.00  0.00    +0.000 OA
ENDBRANCH   6  16
ENDBRANCH   1   9
BRANCH   5  17
ATOM     17  C   UNL     1       4.384   4.123  18.719  0.00  0.00    +0.000 A 
ATOM     18  C   UNL     1       4.119   3.882  17.369  0.00  0.00    +0.000 A 
ATOM     19  C   UNL     1       5.083   4.049  16.373  0.00  0.00    +0.000 A 
ATOM     20  C   UNL     1       6.389   4.506  16.753  0.00  0.00    +0.000 A 
ATOM     21  C   UNL     1       6.645   4.779  18.119  0.00  0.00    +0.000 A 
ATOM     22  C   UNL     1       5.637   4.597  19.086  0.00  0.00    +0.000 A 
BRANCH  19  23
ATOM     23  N   UNL     1       4.669   3.726  15.046  0.00  0.00    +0.000 N 
ATOM     24  H   UNL     1       5.307   3.208  14.424  0.00  0.00    +0.000 HD
ATOM     25  H   UNL     1       3.783   3.989  14.621  0.00  0.00    +0.000 HD
ENDBRANCH  19  23
BRANCH  20  26
ATOM     26  O   UNL     1       7.441   4.715  15.910  0.00  0.00    +0.000 OA
ATOM     27  C   UNL     1       7.473   5.177  14.615  0.00  0.00    +0.000 C 
ENDBRANCH  20  26
BRANCH  21  28
ATOM     28  O   UNL     1       7.889   5.203  18.469  0.00  0.00    +0.000 OA
ATOM     29  C   UNL     1       8.239   5.749  19.689  0.00  0.00    +0.000 C 
ENDBRANCH  21  28
ENDBRANCH   5  17
TORSDOF 7
ENDMDL
MODEL 9
REMARK VINA RESULT:      -6.4      2.322      3.323
REMARK  Name = 
REMARK  10 active torsions:
REMARK  status: ('A' for Active; 'I' for Inactive)
REMARK    1  A    between atoms: C_1  and  O_2
REMARK    2  A    between atoms: O_2  and  C_3
REMARK    3  A    between atoms: C_6  and  C_7
REMARK    4  A    between atoms: C_11  and  C_12
REMARK    5  A    between atoms: C_14  and  N_15
REMARK    6  A    between atoms: C_16  and  O_17
REMARK    7  A    between atoms: O_17  and  C_18
REMARK    8  A    between atoms: C_19  and  O_20
REMARK    9  A    between atoms: O_20  and  C_21
REMARK   10  A    between atoms: C_24  and  N_25
REMARK                            x       y       z     vdW  Elec       q    Type
REMARK                         _______ _______ _______ _____ _____    ______ ____
ROOT
ATOM      1  C   UNL     1       3.982   5.045  17.707  0.00  0.00    +0.000 A 
ATOM      2  O   UNL     1       3.907   3.861  17.145  0.00  0.00    +0.000 OA
ATOM      3  C   UNL     1       2.650   3.475  17.213  0.00  0.00    +0.000 A 
ATOM      4  N   UNL     1       1.861   4.396  17.803  0.00  0.00    +0.000 NA
ATOM      5  C   UNL     1       2.695   5.410  18.091  0.00  0.00    +0.000 A 
ENDROOT
BRANCH   1   9
ATOM      6  C   UNL     1       7.689   7.158  18.335  0.00  0.00    +0.000 A 
ATOM      7  C   UNL     1       6.762   7.598  17.376  0.00  0.00    +0.000 A 
ATOM      8  C   UNL     1       5.567   6.921  17.187  0.00  0.00    +0.000 A 
ATOM      9  C   UNL     1       5.257   5.770  17.934  0.00  0.00    +0.000 A 
ATOM     10  C   UNL     1       6.158   5.343  18.915  0.00  0.00    +0.000 A 
ATOM     11  C   UNL     1       7.375   6.019  19.113  0.00  0.00    +0.000 A 
BRANCH  11  12
ATOM     12  N   UNL     1       8.277   5.549  20.102  0.00  0.00    +0.000 N 
ATOM     13  H   UNL     1       8.352   4.542  20.304  0.00  0.00    +0.000 HD
ATOM     14  H   UNL     1       8.862   6.201  20.640  0.00  0.00    +0.000 HD
ENDBRANCH  11  12
BRANCH   6  16
ATOM     15  C   UNL     1       8.988   9.174  18.756  0.00  0.00    +0.000 C 
ATOM     16  O   UNL     1       8.863   7.815  18.540  0.00  0.00    +0.000 OA
ENDBRANCH   6  16
ENDBRANCH   1   9
BRANCH   5  17
ATOM     17  C   UNL     1       2.248   6.707  18.653  0.00  0.00    +0.000 A 
ATOM     18  C   UNL     1       1.902   6.801  20.004  0.00  0.00    +0.000 A 
ATOM     19  C   UNL     1       1.434   7.984  20.578  0.00  0.00    +0.000 A 
ATOM     20  C   UNL     1       1.327   9.152  19.752  0.00  0.00    +0.000 A 
ATOM     21  C   UNL     1       1.708   9.061  18.391  0.00  0.00    +0.000 A 
ATOM     22  C   UNL     1       2.176   7.844  17.858  0.00  0.00    +0.000 A 
BRANCH  19  23
ATOM     23  N   UNL     1       1.088   7.909  21.961  0.00  0.00    +0.000 N 
ATOM     24  H   UNL     1       0.935   8.776  22.496  0.00  0.00    +0.000 HD
ATOM     25  H   UNL     1       0.999   7.054  22.505  0.00  0.00    +0.000 HD
ENDBRANCH  19  23
BRANCH  20  26
ATOM     26  O   UNL     1       0.886  10.379  20.153  0.00  0.00    +0.000 OA
ATOM     27  C   UNL     1      -0.389  10.845  20.371  0.00  0.00    +0.000 C 
ENDBRANCH  20  26
BRANCH  21  28
ATOM     28  O   UNL     1       1.593  10.172  17.614  0.00  0.00    +0.000 OA
ATOM     29  C   UNL     1       2.378  11.305  17.709  0.00  0.00    +0.000 C 
ENDBRANCH  21  28
ENDBRANCH   5  17
TORSDOF 7
ENDMDL
