MODEL 1
REMARK VINA RESULT:      -8.0      0.000      0.000
REMARK  Name = 
REMARK  7 active torsions:
REMARK  status: ('A' for Active; 'I' for Inactive)
REMARK    1  A    between atoms: C_2  and  C_3
REMARK    2  A    between atoms: C_4  and  C_5
REMARK    3  A    between atoms: C_11  and  S_12
REMARK    4  A    between atoms: S_12  and  C_13
REMARK    5  A    between atoms: C_13  and  C_14
REMARK    6  A    between atoms: C_18  and  C_19
REMARK    7  A    between atoms: N_21  and  O_22
REMARK                            x       y       z     vdW  Elec       q    Type
REMARK                         _______ _______ _______ _____ _____    ______ ____
ROOT
ATOM      1  C   UNL     1       3.789   4.956  19.034  0.00  0.00    +0.000 A 
ATOM      2  C   UNL     1       4.090   5.677  17.937  0.00  0.00    +0.000 A 
ATOM      3  N   UNL     1       3.542   6.910  17.599  0.00  0.00    +0.000 NA
ATOM      4  C   UNL     1       2.654   7.378  18.407  0.00  0.00    +0.000 A 
ATOM      5  N   UNL     1       2.251   6.735  19.536  0.00  0.00    +0.000 N 
ATOM      6  C   UNL     1       2.765   5.534  19.927  0.00  0.00    +0.000 A 
ATOM      7  O   UNL     1       2.389   4.988  20.958  0.00  0.00    +0.000 OA
ATOM      8  H   UNL     1       1.547   7.160  20.120  0.00  0.00    +0.000 HD
ENDROOT
BRANCH   2   9
ATOM      9  C   UNL     1       5.047   5.186  16.991  0.00  0.00    +0.000 A 
ATOM     10  C   UNL     1       4.869   4.298  15.943  0.00  0.00    +0.000 A 
ATOM     11  C   UNL     1       6.079   4.018  15.241  0.00  0.00    +0.000 A 
ATOM     12  C   UNL     1       7.146   4.721  15.753  0.00  0.00    +0.000 A 
ATOM     13  S   UNL     1       6.687   5.712  17.068  0.00  0.00    +0.000 S 
ENDBRANCH   2   9
BRANCH   1  15
ATOM     14  N   UNL     1       4.831   2.679  19.659  0.00  0.00    +0.000 NA
ATOM     15  C   UNL     1       4.374   3.707  19.380  0.00  0.00    +0.000 C 
ENDBRANCH   1  15
BRANCH   4  16
ATOM     16  S   UNL     1       1.810   8.886  18.230  0.00  0.00    +0.000 S 
BRANCH  16  17
ATOM     17  C   UNL     1       1.101   9.174  19.873  0.00  0.00    +0.000 C 
BRANCH  17  18
ATOM     18  C   UNL     1       0.026  10.252  19.831  0.00  0.00    +0.000 A 
ATOM     19  C   UNL     1      -0.157  11.149  20.897  0.00  0.00    +0.000 A 
ATOM     20  C   UNL     1      -1.177  12.106  20.859  0.00  0.00    +0.000 A 
ATOM     21  C   UNL     1      -2.029  12.181  19.757  0.00  0.00    +0.000 A 
ATOM     22  C   UNL     1      -1.865  11.307  18.675  0.00  0.00    +0.000 A 
ATOM     23  C   UNL     1      -0.835  10.350  18.720  0.00  0.00    +0.000 A 
BRANCH  22  24
ATOM     24  C   UNL     1      -2.809  11.451  17.526  0.00  0.00    +0.000 C 
ATOM     25  O   UNL     1      -4.017  11.602  17.709  0.00  0.00    +0.000 OA
ATOM     26  N   UNL     1      -2.292  11.403  16.253  0.00  0.00    +0.000 N 
ATOM     27  H   UNL     1      -1.336  11.209  15.989  0.00  0.00    +0.000 HD
BRANCH  26  28
ATOM     28  O   UNL     1      -3.228  11.506  15.200  0.00  0.00    +0.000 OA
ATOM     29  H   UNL     1      -3.082  10.664  14.714  0.00  0.00    +0.000 HD
ENDBRANCH  26  28
ENDBRANCH  22  24
ENDBRANCH  17  18
ENDBRANCH  16  17
ENDBRANCH   4  16
TORSDOF 7
ENDMDL
MODEL 2
REMARK VINA RESULT:      -7.7      1.458      1.522
REMARK  Name = 
REMARK  7 active torsions:
REMARK  status: ('A' for Active; 'I' for Inactive)
REMARK    1  A    between atoms: C_2  and  C_3
REMARK    2  A    between atoms: C_4  and  C_5
REMARK    3  A    between atoms: C_11  and  S_12
REMARK    4  A    between atoms: S_12  and  C_13
REMARK    5  A    between atoms: C_13  and  C_14
REMARK    6  A    between atoms: C_18  and  C_19
REMARK    7  A    between atoms: N_21  and  O_22
REMARK                            x       y       z     vdW  Elec       q    Type
REMARK                         _______ _______ _______ _____ _____    ______ ____
ROOT
ATOM      1  C   UNL     1       3.452   4.117  19.816  0.00  0.00    +0.000 A 
ATOM      2  C   UNL     1       3.825   5.104  18.978  0.00  0.00    +0.000 A 
ATOM      3  N   UNL     1       3.342   6.407  18.991  0.00  0.00    +0.000 NA
ATOM      4  C   UNL     1       2.442   6.671  19.875  0.00  0.00    +0.000 A 
ATOM      5  N   UNL     1       1.970   5.756  20.763  0.00  0.00    +0.000 N 
ATOM      6  C   UNL     1       2.418   4.469  20.809  0.00  0.00    +0.000 A 
ATOM      7  O   UNL     1       1.980   3.673  21.632  0.00  0.00    +0.000 OA
ATOM      8  H   UNL     1       1.261   6.032  21.425  0.00  0.00    +0.000 HD
ENDROOT
BRANCH   2   9
ATOM      9  C   UNL     1       4.798   4.853  17.957  0.00  0.00    +0.000 A 
ATOM     10  C   UNL     1       4.616   4.376  16.669  0.00  0.00    +0.000 A 
ATOM     11  C   UNL     1       5.842   4.221  15.957  0.00  0.00    +0.000 A 
ATOM     12  C   UNL     1       6.928   4.608  16.708  0.00  0.00    +0.000 A 
ATOM     13  S   UNL     1       6.468   5.159  18.260  0.00  0.00    +0.000 S 
ENDBRANCH   2   9
BRANCH   1  15
ATOM     14  N   UNL     1       4.394   1.715  19.776  0.00  0.00    +0.000 NA
ATOM     15  C   UNL     1       3.972   2.793  19.806  0.00  0.00    +0.000 C 
ENDBRANCH   1  15
BRANCH   4  16
ATOM     16  S   UNL     1       1.668   8.208  20.113  0.00  0.00    +0.000 S 
BRANCH  16  17
ATOM     17  C   UNL     1       1.661   8.944  18.456  0.00  0.00    +0.000 C 
BRANCH  17  18
ATOM     18  C   UNL     1       0.669  10.095  18.366  0.00  0.00    +0.000 A 
ATOM     19  C   UNL     1       1.030  11.406  18.720  0.00  0.00    +0.000 A 
ATOM     20  C   UNL     1       0.093  12.444  18.672  0.00  0.00    +0.000 A 
ATOM     21  C   UNL     1      -1.218  12.189  18.268  0.00  0.00    +0.000 A 
ATOM     22  C   UNL     1      -1.605  10.894  17.899  0.00  0.00    +0.000 A 
ATOM     23  C   UNL     1      -0.656   9.857  17.949  0.00  0.00    +0.000 A 
BRANCH  22  24
ATOM     24  C   UNL     1      -3.023  10.696  17.471  0.00  0.00    +0.000 C 
ATOM     25  O   UNL     1      -3.598   9.622  17.647  0.00  0.00    +0.000 OA
ATOM     26  N   UNL     1      -3.670  11.748  16.867  0.00  0.00    +0.000 N 
ATOM     27  H   UNL     1      -3.274  12.640  16.606  0.00  0.00    +0.000 HD
BRANCH  26  28
ATOM     28  O   UNL     1      -4.996  11.500  16.446  0.00  0.00    +0.000 OA
ATOM     29  H   UNL     1      -4.856  10.990  15.618  0.00  0.00    +0.000 HD
ENDBRANCH  26  28
ENDBRANCH  22  24
ENDBRANCH  17  18
ENDBRANCH  16  17
ENDBRANCH   4  16
TORSDOF 7
ENDMDL
MODEL 3
REMARK VINA RESULT:      -7.5      3.732      8.863
REMARK  Name = 
REMARK  7 active torsions:
REMARK  status: ('A' for Active; 'I' for Inactive)
REMARK    1  A    between atoms: C_2  and  C_3
REMARK    2  A    between atoms: C_4  and  C_5
REMARK    3  A    between atoms: C_11  and  S_12
REMARK    4  A    between atoms: S_12  and  C_13
REMARK    5  A    between atoms: C_13  and  C_14
REMARK    6  A    between atoms: C_18  and  C_19
REMARK    7  A    between atoms: N_21  and  O_22
REMARK                            x       y       z     vdW  Elec       q    Type
REMARK                         _______ _______ _______ _____ _____    ______ ____
ROOT
ATOM      1  C   UNL     1       0.107  10.736  21.814  0.00  0.00    +0.000 A 
ATOM      2  C   UNL     1       0.535  10.671  20.538  0.00  0.00    +0.000 A 
ATOM      3  N   UNL     1       1.135   9.571  19.937  0.00  0.00    +0.000 NA
ATOM      4  C   UNL     1       1.310   8.538  20.688  0.00  0.00    +0.000 A 
ATOM      5  N   UNL     1       0.939   8.488  21.996  0.00  0.00    +0.000 N 
ATOM      6  C   UNL     1       0.332   9.528  22.633  0.00  0.00    +0.000 A 
ATOM      7  O   UNL     1      -0.002   9.444  23.810  0.00  0.00    +0.000 OA
ATOM      8  H   UNL     1       1.111   7.646  22.524  0.00  0.00    +0.000 HD
ENDROOT
BRANCH   2   9
ATOM      9  C   UNL     1       0.393  11.803  19.673  0.00  0.00    +0.000 A 
ATOM     10  C   UNL     1       1.295  12.820  19.401  0.00  0.00    +0.000 A 
ATOM     11  C   UNL     1       0.772  13.801  18.507  0.00  0.00    +0.000 A 
ATOM     12  C   UNL     1      -0.505  13.496  18.097  0.00  0.00    +0.000 A 
ATOM     13  S   UNL     1      -1.066  12.034  18.783  0.00  0.00    +0.000 S 
ENDBRANCH   2   9
BRANCH   1  15
ATOM     14  N   UNL     1      -1.023  12.785  22.903  0.00  0.00    +0.000 NA
ATOM     15  C   UNL     1      -0.527  11.861  22.410  0.00  0.00    +0.000 C 
ENDBRANCH   1  15
BRANCH   4  16
ATOM     16  S   UNL     1       2.033   7.036  20.200  0.00  0.00    +0.000 S 
BRANCH  16  17
ATOM     17  C   UNL     1       2.652   7.381  18.532  0.00  0.00    +0.000 C 
BRANCH  17  18
ATOM     18  C   UNL     1       3.261   6.137  17.899  0.00  0.00    +0.000 A 
ATOM     19  C   UNL     1       2.597   4.899  17.924  0.00  0.00    +0.000 A 
ATOM     20  C   UNL     1       3.192   3.758  17.375  0.00  0.00    +0.000 A 
ATOM     21  C   UNL     1       4.457   3.835  16.793  0.00  0.00    +0.000 A 
ATOM     22  C   UNL     1       5.140   5.058  16.744  0.00  0.00    +0.000 A 
ATOM     23  C   UNL     1       4.534   6.201  17.296  0.00  0.00    +0.000 A 
BRANCH  22  24
ATOM     24  C   UNL     1       6.487   5.068  16.099  0.00  0.00    +0.000 C 
ATOM     25  O   UNL     1       7.475   4.619  16.680  0.00  0.00    +0.000 OA
ATOM     26  N   UNL     1       6.597   5.599  14.836  0.00  0.00    +0.000 N 
ATOM     27  H   UNL     1       5.873   6.059  14.302  0.00  0.00    +0.000 HD
BRANCH  26  28
ATOM     28  O   UNL     1       7.897   5.620  14.283  0.00  0.00    +0.000 OA
ATOM     29  H   UNL     1       8.453   5.786  15.077  0.00  0.00    +0.000 HD
ENDBRANCH  26  28
ENDBRANCH  22  24
ENDBRANCH  17  18
ENDBRANCH  16  17
ENDBRANCH   4  16
TORSDOF 7
ENDMDL
MODEL 4
REMARK VINA RESULT:      -7.5      1.717      1.978
REMARK  Name = 
REMARK  7 active torsions:
REMARK  status: ('A' for Active; 'I' for Inactive)
REMARK    1  A    between atoms: C_2  and  C_3
REMARK    2  A    between atoms: C_4  and  C_5
REMARK    3  A    between atoms: C_11  and  S_12
REMARK    4  A    between atoms: S_12  and  C_13
REMARK    5  A    between atoms: C_13  and  C_14
REMARK    6  A    between atoms: C_18  and  C_19
REMARK    7  A    between atoms: N_21  and  O_22
REMARK                            x       y       z     vdW  Elec       q    Type
REMARK                         _______ _______ _______ _____ _____    ______ ____
ROOT
ATOM      1  C   UNL     1       3.209   3.820  18.607  0.00  0.00    +0.000 A 
ATOM      2  C   UNL     1       3.862   4.836  18.013  0.00  0.00    +0.000 A 
ATOM      3  N   UNL     1       3.587   6.189  18.179  0.00  0.00    +0.000 NA
ATOM      4  C   UNL     1       2.601   6.476  18.958  0.00  0.00    +0.000 A 
ATOM      5  N   UNL     1       1.853   5.539  19.600  0.00  0.00    +0.000 N 
ATOM      6  C   UNL     1       2.087   4.201  19.489  0.00  0.00    +0.000 A 
ATOM      7  O   UNL     1       1.401   3.383  20.093  0.00  0.00    +0.000 OA
ATOM      8  H   UNL     1       1.092   5.838  20.192  0.00  0.00    +0.000 HD
ENDROOT
BRANCH   2   9
ATOM      9  C   UNL     1       4.944   4.569  17.112  0.00  0.00    +0.000 A 
ATOM     10  C   UNL     1       4.905   4.198  15.778  0.00  0.00    +0.000 A 
ATOM     11  C   UNL     1       6.202   3.981  15.224  0.00  0.00    +0.000 A 
ATOM     12  C   UNL     1       7.200   4.218  16.141  0.00  0.00    +0.000 A 
ATOM     13  S   UNL     1       6.575   4.702  17.657  0.00  0.00    +0.000 S 
ENDBRANCH   2   9
BRANCH   1  15
ATOM     14  N   UNL     1       3.771   1.321  18.292  0.00  0.00    +0.000 NA
ATOM     15  C   UNL     1       3.516   2.441  18.446  0.00  0.00    +0.000 C 
ENDBRANCH   1  15
BRANCH   4  16
ATOM     16  S   UNL     1       2.039   8.074  19.342  0.00  0.00    +0.000 S 
BRANCH  16  17
ATOM     17  C   UNL     1       1.272   7.876  20.973  0.00  0.00    +0.000 C 
BRANCH  17  18
ATOM     18  C   UNL     1       0.451   9.102  21.351  0.00  0.00    +0.000 A 
ATOM     19  C   UNL     1      -0.002   9.306  22.665  0.00  0.00    +0.000 A 
ATOM     20  C   UNL     1      -0.792  10.416  22.985  0.00  0.00    +0.000 A 
ATOM     21  C   UNL     1      -1.140  11.338  21.998  0.00  0.00    +0.000 A 
ATOM     22  C   UNL     1      -0.694  11.168  20.681  0.00  0.00    +0.000 A 
ATOM     23  C   UNL     1       0.102  10.050  20.369  0.00  0.00    +0.000 A 
BRANCH  22  24
ATOM     24  C   UNL     1      -1.098  12.199  19.679  0.00  0.00    +0.000 C 
ATOM     25  O   UNL     1      -1.804  13.156  19.998  0.00  0.00    +0.000 OA
ATOM     26  N   UNL     1      -0.665  12.047  18.383  0.00  0.00    +0.000 N 
ATOM     27  H   UNL     1      -0.150  11.267  17.998  0.00  0.00    +0.000 HD
BRANCH  26  28
ATOM     28  O   UNL     1      -1.104  13.027  17.464  0.00  0.00    +0.000 OA
ATOM     29  H   UNL     1      -0.976  12.572  16.603  0.00  0.00    +0.000 HD
ENDBRANCH  26  28
ENDBRANCH  22  24
ENDBRANCH  17  18
ENDBRANCH  16  17
ENDBRANCH   4  16
TORSDOF 7
ENDMDL
MODEL 5
REMARK VINA RESULT:      -7.5      1.937      2.310
REMARK  Name = 
REMARK  7 active torsions:
REMARK  status: ('A' for Active; 'I' for Inactive)
REMARK    1  A    between atoms: C_2  and  C_3
REMARK    2  A    between atoms: C_4  and  C_5
REMARK    3  A    between atoms: C_11  and  S_12
REMARK    4  A    between atoms: S_12  and  C_13
REMARK    5  A    between atoms: C_13  and  C_14
REMARK    6  A    between atoms: C_18  and  C_19
REMARK    7  A    between atoms: N_21  and  O_22
REMARK                            x       y       z     vdW  Elec       q    Type
REMARK                         _______ _______ _______ _____ _____    ______ ____
ROOT
ATOM      1  C   UNL     1       3.696   4.136  19.865  0.00  0.00    +0.000 A 
ATOM      2  C   UNL     1       4.081   5.080  18.985  0.00  0.00    +0.000 A 
ATOM      3  N   UNL     1       3.519   6.345  18.851  0.00  0.00    +0.000 NA
ATOM      4  C   UNL     1       2.529   6.612  19.631  0.00  0.00    +0.000 A 
ATOM      5  N   UNL     1       2.036   5.736  20.548  0.00  0.00    +0.000 N 
ATOM      6  C   UNL     1       2.556   4.490  20.735  0.00  0.00    +0.000 A 
ATOM      7  O   UNL     1       2.096   3.730  21.580  0.00  0.00    +0.000 OA
ATOM      8  H   UNL     1       1.255   6.013  21.122  0.00  0.00    +0.000 HD
ENDROOT
BRANCH   2   9
ATOM      9  C   UNL     1       5.155   4.820  18.073  0.00  0.00    +0.000 A 
ATOM     10  C   UNL     1       6.519   4.980  18.254  0.00  0.00    +0.000 A 
ATOM     11  C   UNL     1       7.276   4.649  17.091  0.00  0.00    +0.000 A 
ATOM     12  C   UNL     1       6.474   4.218  16.060  0.00  0.00    +0.000 A 
ATOM     13  S   UNL     1       4.821   4.210  16.496  0.00  0.00    +0.000 S 
ENDBRANCH   2   9
BRANCH   1  15
ATOM     14  N   UNL     1       4.780   1.811  20.146  0.00  0.00    +0.000 NA
ATOM     15  C   UNL     1       4.295   2.854  20.007  0.00  0.00    +0.000 C 
ENDBRANCH   1  15
BRANCH   4  16
ATOM     16  S   UNL     1       1.644   8.106  19.677  0.00  0.00    +0.000 S 
BRANCH  16  17
ATOM     17  C   UNL     1       1.411   8.410  21.449  0.00  0.00    +0.000 C 
BRANCH  17  18
ATOM     18  C   UNL     1       0.445   9.562  21.691  0.00  0.00    +0.000 A 
ATOM     19  C   UNL     1      -0.187   9.742  22.933  0.00  0.00    +0.000 A 
ATOM     20  C   UNL     1      -1.104  10.781  23.124  0.00  0.00    +0.000 A 
ATOM     21  C   UNL     1      -1.403  11.655  22.079  0.00  0.00    +0.000 A 
ATOM     22  C   UNL     1      -0.781  11.508  20.833  0.00  0.00    +0.000 A 
ATOM     23  C   UNL     1       0.142  10.462  20.650  0.00  0.00    +0.000 A 
BRANCH  22  24
ATOM     24  C   UNL     1      -1.144  12.485  19.762  0.00  0.00    +0.000 C 
ATOM     25  O   UNL     1      -2.027  12.233  18.943  0.00  0.00    +0.000 OA
ATOM     26  N   UNL     1      -0.459  13.675  19.713  0.00  0.00    +0.000 N 
ATOM     27  H   UNL     1       0.328  13.951  20.283  0.00  0.00    +0.000 HD
BRANCH  26  28
ATOM     28  O   UNL     1      -0.813  14.550  18.661  0.00  0.00    +0.000 OA
ATOM     29  H   UNL     1      -0.018  15.125  18.598  0.00  0.00    +0.000 HD
ENDBRANCH  26  28
ENDBRANCH  22  24
ENDBRANCH  17  18
ENDBRANCH  16  17
ENDBRANCH   4  16
TORSDOF 7
ENDMDL
MODEL 6
REMARK VINA RESULT:      -7.5      1.510      1.751
REMARK  Name = 
REMARK  7 active torsions:
REMARK  status: ('A' for Active; 'I' for Inactive)
REMARK    1  A    between atoms: C_2  and  C_3
REMARK    2  A    between atoms: C_4  and  C_5
REMARK    3  A    between atoms: C_11  and  S_12
REMARK    4  A    between atoms: S_12  and  C_13
REMARK    5  A    between atoms: C_13  and  C_14
REMARK    6  A    between atoms: C_18  and  C_19
REMARK    7  A    between atoms: N_21  and  O_22
REMARK                            x       y       z     vdW  Elec       q    Type
REMARK                         _______ _______ _______ _____ _____    ______ ____
ROOT
ATOM      1  C   UNL     1       3.111   3.728  19.653  0.00  0.00    +0.000 A 
ATOM      2  C   UNL     1       3.710   4.848  19.204  0.00  0.00    +0.000 A 
ATOM      3  N   UNL     1       3.298   6.151  19.462  0.00  0.00    +0.000 NA
ATOM      4  C   UNL     1       2.233   6.278  20.177  0.00  0.00    +0.000 A 
ATOM      5  N   UNL     1       1.528   5.225  20.671  0.00  0.00    +0.000 N 
ATOM      6  C   UNL     1       1.894   3.928  20.466  0.00  0.00    +0.000 A 
ATOM      7  O   UNL     1       1.244   3.002  20.938  0.00  0.00    +0.000 OA
ATOM      8  H   UNL     1       0.701   5.401  21.220  0.00  0.00    +0.000 HD
ENDROOT
BRANCH   2   9
ATOM      9  C   UNL     1       4.877   4.759  18.379  0.00  0.00    +0.000 A 
ATOM     10  C   UNL     1       6.213   4.875  18.730  0.00  0.00    +0.000 A 
ATOM     11  C   UNL     1       7.092   4.766  17.612  0.00  0.00    +0.000 A 
ATOM     12  C   UNL     1       6.408   4.542  16.439  0.00  0.00    +0.000 A 
ATOM     13  S   UNL     1       4.719   4.461  16.688  0.00  0.00    +0.000 S 
ENDBRANCH   2   9
BRANCH   1  15
ATOM     14  N   UNL     1       3.942   1.329  19.192  0.00  0.00    +0.000 NA
ATOM     15  C   UNL     1       3.557   2.402  19.401  0.00  0.00    +0.000 C 
ENDBRANCH   1  15
BRANCH   4  16
ATOM     16  S   UNL     1       1.497   7.780  20.648  0.00  0.00    +0.000 S 
BRANCH  16  17
ATOM     17  C   UNL     1       1.850   8.884  19.254  0.00  0.00    +0.000 C 
BRANCH  17  18
ATOM     18  C   UNL     1       0.777   9.955  19.111  0.00  0.00    +0.000 A 
ATOM     19  C   UNL     1       0.760  11.093  19.935  0.00  0.00    +0.000 A 
ATOM     20  C   UNL     1      -0.259  12.046  19.818  0.00  0.00    +0.000 A 
ATOM     21  C   UNL     1      -1.273  11.877  18.876  0.00  0.00    +0.000 A 
ATOM     22  C   UNL     1      -1.277  10.759  18.032  0.00  0.00    +0.000 A 
ATOM     23  C   UNL     1      -0.248   9.807  18.155  0.00  0.00    +0.000 A 
BRANCH  22  24
ATOM     24  C   UNL     1      -2.390  10.647  17.042  0.00  0.00    +0.000 C 
ATOM     25  O   UNL     1      -3.210   9.732  17.106  0.00  0.00    +0.000 OA
ATOM     26  N   UNL     1      -2.471  11.595  16.049  0.00  0.00    +0.000 N 
ATOM     27  H   UNL     1      -1.813  12.338  15.859  0.00  0.00    +0.000 HD
BRANCH  26  28
ATOM     28  O   UNL     1      -3.518  11.426  15.116  0.00  0.00    +0.000 OA
ATOM     29  H   UNL     1      -4.161  12.112  15.404  0.00  0.00    +0.000 HD
ENDBRANCH  26  28
ENDBRANCH  22  24
ENDBRANCH  17  18
ENDBRANCH  16  17
ENDBRANCH   4  16
TORSDOF 7
ENDMDL
MODEL 7
REMARK VINA RESULT:      -7.4      3.631      8.876
REMARK  Name = 
REMARK  7 active torsions:
REMARK  status: ('A' for Active; 'I' for Inactive)
REMARK    1  A    between atoms: C_2  and  C_3
REMARK    2  A    between atoms: C_4  and  C_5
REMARK    3  A    between atoms: C_11  and  S_12
REMARK    4  A    between atoms: S_12  and  C_13
REMARK    5  A    between atoms: C_13  and  C_14
REMARK    6  A    between atoms: C_18  and  C_19
REMARK    7  A    between atoms: N_21  and  O_22
REMARK                            x       y       z     vdW  Elec       q    Type
REMARK                         _______ _______ _______ _____ _____    ______ ____
ROOT
ATOM      1  C   UNL     1       0.187  10.406  21.627  0.00  0.00    +0.000 A 
ATOM      2  C   UNL     1       0.203  10.148  20.305  0.00  0.00    +0.000 A 
ATOM      3  N   UNL     1       0.761   9.026  19.702  0.00  0.00    +0.000 NA
ATOM      4  C   UNL     1       1.327   8.179  20.492  0.00  0.00    +0.000 A 
ATOM      5  N   UNL     1       1.393   8.337  21.841  0.00  0.00    +0.000 N 
ATOM      6  C   UNL     1       0.850   9.407  22.489  0.00  0.00    +0.000 A 
ATOM      7  O   UNL     1       0.916   9.512  23.708  0.00  0.00    +0.000 OA
ATOM      8  H   UNL     1       1.856   7.635  22.397  0.00  0.00    +0.000 HD
ENDROOT
BRANCH   2   9
ATOM      9  C   UNL     1      -0.384  11.074  19.383  0.00  0.00    +0.000 A 
ATOM     10  C   UNL     1      -1.594  10.998  18.712  0.00  0.00    +0.000 A 
ATOM     11  C   UNL     1      -1.815  12.105  17.840  0.00  0.00    +0.000 A 
ATOM     12  C   UNL     1      -0.782  13.013  17.887  0.00  0.00    +0.000 A 
ATOM     13  S   UNL     1       0.443  12.532  18.978  0.00  0.00    +0.000 S 
ENDBRANCH   2   9
BRANCH   1  15
ATOM     14  N   UNL     1      -0.899  12.464  22.742  0.00  0.00    +0.000 NA
ATOM     15  C   UNL     1      -0.407  11.548  22.232  0.00  0.00    +0.000 C 
ENDBRANCH   1  15
BRANCH   4  16
ATOM     16  S   UNL     1       2.100   6.699  20.013  0.00  0.00    +0.000 S 
BRANCH  16  17
ATOM     17  C   UNL     1       3.194   7.208  18.660  0.00  0.00    +0.000 C 
BRANCH  17  18
ATOM     18  C   UNL     1       3.722   6.004  17.891  0.00  0.00    +0.000 A 
ATOM     19  C   UNL     1       3.014   4.790  17.851  0.00  0.00    +0.000 A 
ATOM     20  C   UNL     1       3.536   3.681  17.176  0.00  0.00    +0.000 A 
ATOM     21  C   UNL     1       4.770   3.767  16.531  0.00  0.00    +0.000 A 
ATOM     22  C   UNL     1       5.493   4.966  16.545  0.00  0.00    +0.000 A 
ATOM     23  C   UNL     1       4.961   6.078  17.224  0.00  0.00    +0.000 A 
BRANCH  22  24
ATOM     24  C   UNL     1       6.803   4.987  15.828  0.00  0.00    +0.000 C 
ATOM     25  O   UNL     1       7.841   4.626  16.384  0.00  0.00    +0.000 OA
ATOM     26  N   UNL     1       6.822   5.428  14.526  0.00  0.00    +0.000 N 
ATOM     27  H   UNL     1       6.050   5.816  14.001  0.00  0.00    +0.000 HD
BRANCH  26  28
ATOM     28  O   UNL     1       8.089   5.465  13.902  0.00  0.00    +0.000 OA
ATOM     29  H   UNL     1       8.467   6.301  14.256  0.00  0.00    +0.000 HD
ENDBRANCH  26  28
ENDBRANCH  22  24
ENDBRANCH  17  18
ENDBRANCH  16  17
ENDBRANCH   4  16
TORSDOF 7
ENDMDL
MODEL 8
REMARK VINA RESULT:      -7.4      2.180      3.298
REMARK  Name = 
REMARK  7 active torsions:
REMARK  status: ('A' for Active; 'I' for Inactive)
REMARK    1  A    between atoms: C_2  and  C_3
REMARK    2  A    between atoms: C_4  and  C_5
REMARK    3  A    between atoms: C_11  and  S_12
REMARK    4  A    between atoms: S_12  and  C_13
REMARK    5  A    between atoms: C_13  and  C_14
REMARK    6  A    between atoms: C_18  and  C_19
REMARK    7  A    between atoms: N_21  and  O_22
REMARK                            x       y       z     vdW  Elec       q    Type
REMARK                         _______ _______ _______ _____ _____    ______ ____
ROOT
ATOM      1  C   UNL     1       4.137   5.591  18.580  0.00  0.00    +0.000 A 
ATOM      2  C   UNL     1       2.881   5.672  19.060  0.00  0.00    +0.000 A 
ATOM      3  N   UNL     1       2.000   6.729  18.860  0.00  0.00    +0.000 NA
ATOM      4  C   UNL     1       2.451   7.721  18.171  0.00  0.00    +0.000 A 
ATOM      5  N   UNL     1       3.706   7.766  17.650  0.00  0.00    +0.000 N 
ATOM      6  C   UNL     1       4.606   6.753  17.799  0.00  0.00    +0.000 A 
ATOM      7  O   UNL     1       5.726   6.820  17.304  0.00  0.00    +0.000 OA
ATOM      8  H   UNL     1       3.992   8.578  17.124  0.00  0.00    +0.000 HD
ENDROOT
BRANCH   2   9
ATOM      9  C   UNL     1       2.345   4.610  19.858  0.00  0.00    +0.000 A 
ATOM     10  C   UNL     1       2.397   4.432  21.231  0.00  0.00    +0.000 A 
ATOM     11  C   UNL     1       1.777   3.220  21.657  0.00  0.00    +0.000 A 
ATOM     12  C   UNL     1       1.242   2.516  20.602  0.00  0.00    +0.000 A 
ATOM     13  S   UNL     1       1.486   3.316  19.111  0.00  0.00    +0.000 S 
ENDBRANCH   2   9
BRANCH   1  15
ATOM     14  N   UNL     1       5.756   3.611  18.925  0.00  0.00    +0.000 NA
ATOM     15  C   UNL     1       5.019   4.492  18.772  0.00  0.00    +0.000 C 
ENDBRANCH   1  15
BRANCH   4  16
ATOM     16  S   UNL     1       1.573   9.166  17.773  0.00  0.00    +0.000 S 
BRANCH  16  17
ATOM     17  C   UNL     1       0.834   9.665  19.351  0.00  0.00    +0.000 C 
BRANCH  17  18
ATOM     18  C   UNL     1      -0.448  10.460  19.136  0.00  0.00    +0.000 A 
ATOM     19  C   UNL     1      -0.970  11.297  20.135  0.00  0.00    +0.000 A 
ATOM     20  C   UNL     1      -2.171  11.986  19.936  0.00  0.00    +0.000 A 
ATOM     21  C   UNL     1      -2.868  11.850  18.735  0.00  0.00    +0.000 A 
ATOM     22  C   UNL     1      -2.367  11.030  17.716  0.00  0.00    +0.000 A 
ATOM     23  C   UNL     1      -1.158  10.343  17.924  0.00  0.00    +0.000 A 
BRANCH  22  24
ATOM     24  C   UNL     1      -3.163  10.937  16.455  0.00  0.00    +0.000 C 
ATOM     25  O   UNL     1      -4.278  11.451  16.365  0.00  0.00    +0.000 OA
ATOM     26  N   UNL     1      -2.617  10.254  15.394  0.00  0.00    +0.000 N 
ATOM     27  H   UNL     1      -1.751   9.734  15.383  0.00  0.00    +0.000 HD
BRANCH  26  28
ATOM     28  O   UNL     1      -3.423  10.162  14.236  0.00  0.00    +0.000 OA
ATOM     29  H   UNL     1      -3.549   9.191  14.152  0.00  0.00    +0.000 HD
ENDBRANCH  26  28
ENDBRANCH  22  24
ENDBRANCH  17  18
ENDBRANCH  16  17
ENDBRANCH   4  16
TORSDOF 7
ENDMDL
MODEL 9
REMARK VINA RESULT:      -7.4      3.580      9.020
REMARK  Name = 
REMARK  7 active torsions:
REMARK  status: ('A' for Active; 'I' for Inactive)
REMARK    1  A    between atoms: C_2  and  C_3
REMARK    2  A    between atoms: C_4  and  C_5
REMARK    3  A    between atoms: C_11  and  S_12
REMARK    4  A    between atoms: S_12  and  C_13
REMARK    5  A    between atoms: C_13  and  C_14
REMARK    6  A    between atoms: C_18  and  C_19
REMARK    7  A    between atoms: N_21  and  O_22
REMARK                            x       y       z     vdW  Elec       q    Type
REMARK                         _______ _______ _______ _____ _____    ______ ____
ROOT
ATOM      1  C   UNL     1       0.200  10.919  21.082  0.00  0.00    +0.000 A 
ATOM      2  C   UNL     1       0.738  11.501  19.993  0.00  0.00    +0.000 A 
ATOM      3  N   UNL     1       1.350  10.838  18.935  0.00  0.00    +0.000 NA
ATOM      4  C   UNL     1       1.418   9.555  19.032  0.00  0.00    +0.000 A 
ATOM      5  N   UNL     1       0.929   8.853  20.090  0.00  0.00    +0.000 N 
ATOM      6  C   UNL     1       0.305   9.447  21.147  0.00  0.00    +0.000 A 
ATOM      7  O   UNL     1      -0.136   8.784  22.079  0.00  0.00    +0.000 OA
ATOM      8  H   UNL     1       1.022   7.849  20.100  0.00  0.00    +0.000 HD
ENDROOT
BRANCH   2   9
ATOM      9  C   UNL     1       0.717  12.926  19.853  0.00  0.00    +0.000 A 
ATOM     10  C   UNL     1       1.524  13.880  20.453  0.00  0.00    +0.000 A 
ATOM     11  C   UNL     1       1.168  15.213  20.092  0.00  0.00    +0.000 A 
ATOM     12  C   UNL     1       0.117  15.245  19.205  0.00  0.00    +0.000 A 
ATOM     13  S   UNL     1      -0.433  13.675  18.809  0.00  0.00    +0.000 S 
ENDBRANCH   2   9
BRANCH   1  15
ATOM     14  N   UNL     1      -0.979  12.182  22.999  0.00  0.00    +0.000 NA
ATOM     15  C   UNL     1      -0.444  11.608  22.147  0.00  0.00    +0.000 C 
ENDBRANCH   1  15
BRANCH   4  16
ATOM     16  S   UNL     1       2.126   8.481  17.864  0.00  0.00    +0.000 S 
BRANCH  16  17
ATOM     17  C   UNL     1       2.573   7.022  18.841  0.00  0.00    +0.000 C 
BRANCH  17  18
ATOM     18  C   UNL     1       3.309   5.992  17.994  0.00  0.00    +0.000 A 
ATOM     19  C   UNL     1       2.820   4.684  17.839  0.00  0.00    +0.000 A 
ATOM     20  C   UNL     1       3.532   3.739  17.092  0.00  0.00    +0.000 A 
ATOM     21  C   UNL     1       4.740   4.086  16.488  0.00  0.00    +0.000 A 
ATOM     22  C   UNL     1       5.247   5.385  16.616  0.00  0.00    +0.000 A 
ATOM     23  C   UNL     1       4.525   6.330  17.367  0.00  0.00    +0.000 A 
BRANCH  22  24
ATOM     24  C   UNL     1       6.543   5.688  15.936  0.00  0.00    +0.000 C 
ATOM     25  O   UNL     1       7.425   6.333  16.503  0.00  0.00    +0.000 OA
ATOM     26  N   UNL     1       6.723   5.231  14.652  0.00  0.00    +0.000 N 
ATOM     27  H   UNL     1       6.043   4.762  14.069  0.00  0.00    +0.000 HD
BRANCH  26  28
ATOM     28  O   UNL     1       7.949   5.574  14.038  0.00  0.00    +0.000 OA
ATOM     29  H   UNL     1       7.803   6.517  13.804  0.00  0.00    +0.000 HD
ENDBRANCH  26  28
ENDBRANCH  22  24
ENDBRANCH  17  18
ENDBRANCH  16  17
ENDBRANCH   4  16
TORSDOF 7
ENDMDL
