MODEL 1
REMARK VINA RESULT:      -9.1      0.000      0.000
REMARK  Name = 
REMARK  8 active torsions:
REMARK  status: ('A' for Active; 'I' for Inactive)
REMARK    1  A    between atoms: C_1  and  C_2
REMARK    2  A    between atoms: C_2  and  N_3
REMARK    3  A    between atoms: N_3  and  C_4
REMARK    4  A    between atoms: C_4  and  C_5
REMARK    5  A    between atoms: C_6  and  C_8
REMARK    6  A    between atoms: C_8  and  N_9
REMARK    7  A    between atoms: C_11  and  C_12
REMARK    8  A    between atoms: N_19  and  C_20
REMARK                            x       y       z     vdW  Elec       q    Type
REMARK                         _______ _______ _______ _____ _____    ______ ____
ROOT
ATOM      1  C   UNL     1       2.065   6.989  20.669  0.00  0.00    +0.000 C 
ATOM      2  C   UNL     1       1.635   8.111  20.052  0.00  0.00    +0.000 C 
ATOM      3  C   UNL     1       1.772   8.337  18.603  0.00  0.00    +0.000 C 
ATOM      4  O   UNL     1       2.092   7.498  17.770  0.00  0.00    +0.000 OA
ATOM      5  N   UNL     1       1.453   9.599  18.198  0.00  0.00    +0.000 N 
ATOM      6  C   UNL     1       0.802  10.558  18.915  0.00  0.00    +0.000 C 
ATOM      7  O   UNL     1       0.300  11.493  18.287  0.00  0.00    +0.000 OA
ATOM      8  N   UNL     1       0.666  10.342  20.279  0.00  0.00    +0.000 N 
ATOM      9  C   UNL     1       1.017   9.156  20.920  0.00  0.00    +0.000 C 
ATOM     10  O   UNL     1       0.863   8.953  22.125  0.00  0.00    +0.000 OA
ATOM     11  H   UNL     1       1.467   9.748  17.199  0.00  0.00    +0.000 HD
ENDROOT
BRANCH   1  14
ATOM     12  N   UNL     1       4.242   4.636  19.063  0.00  0.00    +0.000 N 
ATOM     13  C   UNL     1       3.995   5.867  19.617  0.00  0.00    +0.000 A 
ATOM     14  C   UNL     1       2.698   5.867  20.070  0.00  0.00    +0.000 A 
ATOM     15  C   UNL     1       2.122   4.598  19.776  0.00  0.00    +0.000 A 
ATOM     16  C   UNL     1       0.849   4.025  19.985  0.00  0.00    +0.000 A 
ATOM     17  C   UNL     1       0.592   2.726  19.536  0.00  0.00    +0.000 A 
ATOM     18  C   UNL     1       1.584   1.995  18.890  0.00  0.00    +0.000 A 
ATOM     19  C   UNL     1       2.860   2.533  18.683  0.00  0.00    +0.000 A 
ATOM     20  C   UNL     1       3.112   3.840  19.136  0.00  0.00    +0.000 A 
BRANCH  12  21
ATOM     21  C   UNL     1       5.539   4.252  18.513  0.00  0.00    +0.000 C 
BRANCH  21  23
ATOM     22  N   UNL     1       7.094   6.107  17.867  0.00  0.00    +0.000 N 
ATOM     23  C   UNL     1       6.652   5.230  18.878  0.00  0.00    +0.000 C 
ATOM     24  O   UNL     1       7.141   5.272  20.009  0.00  0.00    +0.000 OA
BRANCH  22  26
ATOM     25  C   UNL     1       7.805   8.509  17.620  0.00  0.00    +0.000 C 
ATOM     26  C   UNL     1       8.046   7.153  18.269  0.00  0.00    +0.000 C 
ENDBRANCH  22  26
BRANCH  22  27
ATOM     27  C   UNL     1       6.553   6.041  16.502  0.00  0.00    +0.000 C 
ATOM     28  C   UNL     1       5.181   6.637  16.221  0.00  0.00    +0.000 C 
ENDBRANCH  22  27
ENDBRANCH  21  23
ENDBRANCH  12  21
ENDBRANCH   1  14
BRANCH   8  29
ATOM     29  C   UNL     1       0.043  11.380  21.042  0.00  0.00    +0.000 A 
ATOM     30  C   UNL     1      -1.259  11.231  21.540  0.00  0.00    +0.000 A 
ATOM     31  C   UNL     1      -1.881  12.287  22.215  0.00  0.00    +0.000 A 
ATOM     32  C   UNL     1      -1.197  13.485  22.431  0.00  0.00    +0.000 A 
ATOM     33  C   UNL     1       0.111  13.630  21.973  0.00  0.00    +0.000 A 
ATOM     34  C   UNL     1       0.716  12.588  21.276  0.00  0.00    +0.000 A 
ATOM     35  F   UNL     1       1.992  12.735  20.884  0.00  0.00    +0.000 F 
ENDBRANCH   8  29
TORSDOF 6
ENDMDL
MODEL 2
REMARK VINA RESULT:      -9.1      2.760      9.188
REMARK  Name = 
REMARK  8 active torsions:
REMARK  status: ('A' for Active; 'I' for Inactive)
REMARK    1  A    between atoms: C_1  and  C_2
REMARK    2  A    between atoms: C_2  and  N_3
REMARK    3  A    between atoms: N_3  and  C_4
REMARK    4  A    between atoms: C_4  and  C_5
REMARK    5  A    between atoms: C_6  and  C_8
REMARK    6  A    between atoms: C_8  and  N_9
REMARK    7  A    between atoms: C_11  and  C_12
REMARK    8  A    between atoms: N_19  and  C_20
REMARK                            x       y       z     vdW  Elec       q    Type
REMARK                         _______ _______ _______ _____ _____    ______ ____
ROOT
ATOM      1  C   UNL     1       1.744   9.385  18.074  0.00  0.00    +0.000 C 
ATOM      2  C   UNL     1       2.224   8.234  18.594  0.00  0.00    +0.000 C 
ATOM      3  C   UNL     1       1.786   7.692  19.892  0.00  0.00    +0.000 C 
ATOM      4  O   UNL     1       0.829   8.081  20.550  0.00  0.00    +0.000 OA
ATOM      5  N   UNL     1       2.517   6.629  20.333  0.00  0.00    +0.000 N 
ATOM      6  C   UNL     1       3.403   5.881  19.617  0.00  0.00    +0.000 C 
ATOM      7  O   UNL     1       3.701   4.771  20.064  0.00  0.00    +0.000 OA
ATOM      8  N   UNL     1       3.810   6.388  18.391  0.00  0.00    +0.000 N 
ATOM      9  C   UNL     1       3.262   7.521  17.794  0.00  0.00    +0.000 C 
ATOM     10  O   UNL     1       3.599   7.949  16.690  0.00  0.00    +0.000 OA
ATOM     11  H   UNL     1       2.182   6.197  21.182  0.00  0.00    +0.000 HD
ENDROOT
BRANCH   1  14
ATOM     12  N   UNL     1      -0.157  11.721  20.020  0.00  0.00    +0.000 N 
ATOM     13  C   UNL     1       1.017  11.079  19.716  0.00  0.00    +0.000 A 
ATOM     14  C   UNL     1       0.773  10.248  18.648  0.00  0.00    +0.000 A 
ATOM     15  C   UNL     1      -0.599  10.374  18.289  0.00  0.00    +0.000 A 
ATOM     16  C   UNL     1      -1.415   9.778  17.304  0.00  0.00    +0.000 A 
ATOM     17  C   UNL     1      -2.773  10.107  17.236  0.00  0.00    +0.000 A 
ATOM     18  C   UNL     1      -3.320  11.022  18.130  0.00  0.00    +0.000 A 
ATOM     19  C   UNL     1      -2.531  11.639  19.107  0.00  0.00    +0.000 A 
ATOM     20  C   UNL     1      -1.168  11.303  19.171  0.00  0.00    +0.000 A 
BRANCH  12  21
ATOM     21  C   UNL     1      -0.272  12.719  21.079  0.00  0.00    +0.000 C 
BRANCH  21  23
ATOM     22  N   UNL     1      -2.244  12.749  22.623  0.00  0.00    +0.000 N 
ATOM     23  C   UNL     1      -0.987  12.190  22.319  0.00  0.00    +0.000 C 
ATOM     24  O   UNL     1      -0.503  11.301  23.023  0.00  0.00    +0.000 OA
BRANCH  22  26
ATOM     25  C   UNL     1      -4.218  12.912  24.179  0.00  0.00    +0.000 C 
ATOM     26  C   UNL     1      -2.998  12.122  23.719  0.00  0.00    +0.000 C 
ENDBRANCH  22  26
BRANCH  22  27
ATOM     27  C   UNL     1      -2.816  13.839  21.819  0.00  0.00    +0.000 C 
ATOM     28  C   UNL     1      -2.476  15.278  22.176  0.00  0.00    +0.000 C 
ENDBRANCH  22  27
ENDBRANCH  21  23
ENDBRANCH  12  21
ENDBRANCH   1  14
BRANCH   8  29
ATOM     29  C   UNL     1       4.792   5.636  17.670  0.00  0.00    +0.000 A 
ATOM     30  C   UNL     1       6.153   5.970  17.738  0.00  0.00    +0.000 A 
ATOM     31  C   UNL     1       7.088   5.273  16.965  0.00  0.00    +0.000 A 
ATOM     32  C   UNL     1       6.680   4.217  16.148  0.00  0.00    +0.000 A 
ATOM     33  C   UNL     1       5.336   3.854  16.101  0.00  0.00    +0.000 A 
ATOM     34  C   UNL     1       4.404   4.567  16.850  0.00  0.00    +0.000 A 
ATOM     35  F   UNL     1       3.122   4.170  16.823  0.00  0.00    +0.000 F 
ENDBRANCH   8  29
TORSDOF 6
ENDMDL
MODEL 3
REMARK VINA RESULT:      -8.9      0.978      1.288
REMARK  Name = 
REMARK  8 active torsions:
REMARK  status: ('A' for Active; 'I' for Inactive)
REMARK    1  A    between atoms: C_1  and  C_2
REMARK    2  A    between atoms: C_2  and  N_3
REMARK    3  A    between atoms: N_3  and  C_4
REMARK    4  A    between atoms: C_4  and  C_5
REMARK    5  A    between atoms: C_6  and  C_8
REMARK    6  A    between atoms: C_8  and  N_9
REMARK    7  A    between atoms: C_11  and  C_12
REMARK    8  A    between atoms: N_19  and  C_20
REMARK                            x       y       z     vdW  Elec       q    Type
REMARK                         _______ _______ _______ _____ _____    ______ ____
ROOT
ATOM      1  C   UNL     1       1.959   6.960  20.362  0.00  0.00    +0.000 C 
ATOM      2  C   UNL     1       1.761   8.127  19.710  0.00  0.00    +0.000 C 
ATOM      3  C   UNL     1       2.275   8.389  18.355  0.00  0.00    +0.000 C 
ATOM      4  O   UNL     1       2.751   7.558  17.591  0.00  0.00    +0.000 OA
ATOM      5  N   UNL     1       2.139   9.682  17.942  0.00  0.00    +0.000 N 
ATOM      6  C   UNL     1       1.379  10.657  18.515  0.00  0.00    +0.000 C 
ATOM      7  O   UNL     1       1.105  11.642  17.826  0.00  0.00    +0.000 OA
ATOM      8  N   UNL     1       0.888  10.407  19.789  0.00  0.00    +0.000 N 
ATOM      9  C   UNL     1       0.999   9.181  20.442  0.00  0.00    +0.000 C 
ATOM     10  O   UNL     1       0.533   8.950  21.557  0.00  0.00    +0.000 OA
ATOM     11  H   UNL     1       2.414   9.861  16.987  0.00  0.00    +0.000 HD
ENDROOT
BRANCH   1  14
ATOM     12  N   UNL     1       4.302   4.572  19.073  0.00  0.00    +0.000 N 
ATOM     13  C   UNL     1       3.984   5.832  19.513  0.00  0.00    +0.000 A 
ATOM     14  C   UNL     1       2.662   5.820  19.890  0.00  0.00    +0.000 A 
ATOM     15  C   UNL     1       2.146   4.512  19.664  0.00  0.00    +0.000 A 
ATOM     16  C   UNL     1       0.882   3.910  19.843  0.00  0.00    +0.000 A 
ATOM     17  C   UNL     1       0.693   2.572  19.483  0.00  0.00    +0.000 A 
ATOM     18  C   UNL     1       1.745   1.831  18.955  0.00  0.00    +0.000 A 
ATOM     19  C   UNL     1       3.013   2.398  18.780  0.00  0.00    +0.000 A 
ATOM     20  C   UNL     1       3.196   3.744  19.143  0.00  0.00    +0.000 A 
BRANCH  12  21
ATOM     21  C   UNL     1       5.642   4.195  18.630  0.00  0.00    +0.000 C 
BRANCH  21  23
ATOM     22  N   UNL     1       7.093   6.130  17.978  0.00  0.00    +0.000 N 
ATOM     23  C   UNL     1       6.701   5.233  18.992  0.00  0.00    +0.000 C 
ATOM     24  O   UNL     1       7.188   5.303  20.123  0.00  0.00    +0.000 OA
BRANCH  22  26
ATOM     25  C   UNL     1       7.807   8.512  17.580  0.00  0.00    +0.000 C 
ATOM     26  C   UNL     1       7.989   7.226  18.378  0.00  0.00    +0.000 C 
ENDBRANCH  22  26
BRANCH  22  27
ATOM     27  C   UNL     1       6.555   6.033  16.614  0.00  0.00    +0.000 C 
ATOM     28  C   UNL     1       7.139   5.001  15.660  0.00  0.00    +0.000 C 
ENDBRANCH  22  27
ENDBRANCH  21  23
ENDBRANCH  12  21
ENDBRANCH   1  14
BRANCH   8  29
ATOM     29  C   UNL     1       0.148  11.458  20.418  0.00  0.00    +0.000 A 
ATOM     30  C   UNL     1       0.780  12.388  21.256  0.00  0.00    +0.000 A 
ATOM     31  C   UNL     1       0.028  13.359  21.924  0.00  0.00    +0.000 A 
ATOM     32  C   UNL     1      -1.354  13.434  21.736  0.00  0.00    +0.000 A 
ATOM     33  C   UNL     1      -1.987  12.538  20.877  0.00  0.00    +0.000 A 
ATOM     34  C   UNL     1      -1.239  11.554  20.236  0.00  0.00    +0.000 A 
ATOM     35  F   UNL     1      -1.865  10.731  19.379  0.00  0.00    +0.000 F 
ENDBRANCH   8  29
TORSDOF 6
ENDMDL
MODEL 4
REMARK VINA RESULT:      -8.9      2.603      9.124
REMARK  Name = 
REMARK  8 active torsions:
REMARK  status: ('A' for Active; 'I' for Inactive)
REMARK    1  A    between atoms: C_1  and  C_2
REMARK    2  A    between atoms: C_2  and  N_3
REMARK    3  A    between atoms: N_3  and  C_4
REMARK    4  A    between atoms: C_4  and  C_5
REMARK    5  A    between atoms: C_6  and  C_8
REMARK    6  A    between atoms: C_8  and  N_9
REMARK    7  A    between atoms: C_11  and  C_12
REMARK    8  A    between atoms: N_19  and  C_20
REMARK                            x       y       z     vdW  Elec       q    Type
REMARK                         _______ _______ _______ _____ _____    ______ ____
ROOT
ATOM      1  C   UNL     1       1.738   9.416  18.004  0.00  0.00    +0.000 C 
ATOM      2  C   UNL     1       2.246   8.267  18.501  0.00  0.00    +0.000 C 
ATOM      3  C   UNL     1       1.885   7.732  19.825  0.00  0.00    +0.000 C 
ATOM      4  O   UNL     1       0.968   8.127  20.536  0.00  0.00    +0.000 OA
ATOM      5  N   UNL     1       2.639   6.670  20.228  0.00  0.00    +0.000 N 
ATOM      6  C   UNL     1       3.479   5.916  19.465  0.00  0.00    +0.000 C 
ATOM      7  O   UNL     1       3.801   4.808  19.900  0.00  0.00    +0.000 OA
ATOM      8  N   UNL     1       3.814   6.416  18.214  0.00  0.00    +0.000 N 
ATOM      9  C   UNL     1       3.233   7.546  17.644  0.00  0.00    +0.000 C 
ATOM     10  O   UNL     1       3.505   7.968  16.520  0.00  0.00    +0.000 OA
ATOM     11  H   UNL     1       2.353   6.243  21.098  0.00  0.00    +0.000 HD
ENDROOT
BRANCH   1  14
ATOM     12  N   UNL     1      -0.050  11.742  20.065  0.00  0.00    +0.000 N 
ATOM     13  C   UNL     1       1.100  11.085  19.707  0.00  0.00    +0.000 A 
ATOM     14  C   UNL     1       0.804  10.284  18.629  0.00  0.00    +0.000 A 
ATOM     15  C   UNL     1      -0.576  10.445  18.320  0.00  0.00    +0.000 A 
ATOM     16  C   UNL     1      -1.436   9.889  17.349  0.00  0.00    +0.000 A 
ATOM     17  C   UNL     1      -2.789  10.246  17.334  0.00  0.00    +0.000 A 
ATOM     18  C   UNL     1      -3.287  11.150  18.266  0.00  0.00    +0.000 A 
ATOM     19  C   UNL     1      -2.454  11.729  19.231  0.00  0.00    +0.000 A 
ATOM     20  C   UNL     1      -1.096  11.365  19.241  0.00  0.00    +0.000 A 
BRANCH  12  21
ATOM     21  C   UNL     1      -0.109  12.718  21.150  0.00  0.00    +0.000 C 
BRANCH  21  23
ATOM     22  N   UNL     1      -2.065  12.885  22.706  0.00  0.00    +0.000 N 
ATOM     23  C   UNL     1      -0.878  12.207  22.366  0.00  0.00    +0.000 C 
ATOM     24  O   UNL     1      -0.494  11.235  23.021  0.00  0.00    +0.000 OA
BRANCH  22  26
ATOM     25  C   UNL     1      -4.326  12.777  23.809  0.00  0.00    +0.000 C 
ATOM     26  C   UNL     1      -2.883  12.290  23.774  0.00  0.00    +0.000 C 
ENDBRANCH  22  26
BRANCH  22  27
ATOM     27  C   UNL     1      -2.514  14.071  21.963  0.00  0.00    +0.000 C 
ATOM     28  C   UNL     1      -2.172  15.453  22.500  0.00  0.00    +0.000 C 
ENDBRANCH  22  27
ENDBRANCH  21  23
ENDBRANCH  12  21
ENDBRANCH   1  14
BRANCH   8  29
ATOM     29  C   UNL     1       4.750   5.658  17.441  0.00  0.00    +0.000 A 
ATOM     30  C   UNL     1       4.345   4.527  16.718  0.00  0.00    +0.000 A 
ATOM     31  C   UNL     1       5.288   3.753  16.033  0.00  0.00    +0.000 A 
ATOM     32  C   UNL     1       6.635   4.121  16.034  0.00  0.00    +0.000 A 
ATOM     33  C   UNL     1       7.043   5.263  16.719  0.00  0.00    +0.000 A 
ATOM     34  C   UNL     1       6.106   6.015  17.424  0.00  0.00    +0.000 A 
ATOM     35  F   UNL     1       6.516   7.136  18.039  0.00  0.00    +0.000 F 
ENDBRANCH   8  29
TORSDOF 6
ENDMDL
MODEL 5
REMARK VINA RESULT:      -8.9      2.153      4.641
REMARK  Name = 
REMARK  8 active torsions:
REMARK  status: ('A' for Active; 'I' for Inactive)
REMARK    1  A    between atoms: C_1  and  C_2
REMARK    2  A    between atoms: C_2  and  N_3
REMARK    3  A    between atoms: N_3  and  C_4
REMARK    4  A    between atoms: C_4  and  C_5
REMARK    5  A    between atoms: C_6  and  C_8
REMARK    6  A    between atoms: C_8  and  N_9
REMARK    7  A    between atoms: C_11  and  C_12
REMARK    8  A    between atoms: N_19  and  C_20
REMARK                            x       y       z     vdW  Elec       q    Type
REMARK                         _______ _______ _______ _____ _____    ______ ____
ROOT
ATOM      1  C   UNL     1       2.931   7.672  17.703  0.00  0.00    +0.000 C 
ATOM      2  C   UNL     1       2.261   8.100  18.796  0.00  0.00    +0.000 C 
ATOM      3  C   UNL     1       2.174   7.323  20.043  0.00  0.00    +0.000 C 
ATOM      4  O   UNL     1       2.830   6.326  20.319  0.00  0.00    +0.000 OA
ATOM      5  N   UNL     1       1.303   7.830  20.962  0.00  0.00    +0.000 N 
ATOM      6  C   UNL     1       0.726   9.064  20.961  0.00  0.00    +0.000 C 
ATOM      7  O   UNL     1       0.254   9.472  22.024  0.00  0.00    +0.000 OA
ATOM      8  N   UNL     1       0.815   9.800  19.788  0.00  0.00    +0.000 N 
ATOM      9  C   UNL     1       1.575   9.421  18.684  0.00  0.00    +0.000 C 
ATOM     10  O   UNL     1       1.682  10.092  17.657  0.00  0.00    +0.000 OA
ATOM     11  H   UNL     1       1.290   7.353  21.853  0.00  0.00    +0.000 HD
ENDROOT
BRANCH   1  14
ATOM     12  N   UNL     1       4.050   4.276  17.442  0.00  0.00    +0.000 N 
ATOM     13  C   UNL     1       3.053   5.210  17.561  0.00  0.00    +0.000 A 
ATOM     14  C   UNL     1       3.643   6.452  17.555  0.00  0.00    +0.000 A 
ATOM     15  C   UNL     1       5.051   6.276  17.440  0.00  0.00    +0.000 A 
ATOM     16  C   UNL     1       6.151   7.159  17.393  0.00  0.00    +0.000 A 
ATOM     17  C   UNL     1       7.450   6.647  17.304  0.00  0.00    +0.000 A 
ATOM     18  C   UNL     1       7.661   5.273  17.255  0.00  0.00    +0.000 A 
ATOM     19  C   UNL     1       6.588   4.374  17.285  0.00  0.00    +0.000 A 
ATOM     20  C   UNL     1       5.286   4.895  17.375  0.00  0.00    +0.000 A 
BRANCH  12  21
ATOM     21  C   UNL     1       3.796   2.839  17.369  0.00  0.00    +0.000 C 
BRANCH  21  23
ATOM     22  N   UNL     1       2.821   2.345  19.622  0.00  0.00    +0.000 N 
ATOM     23  C   UNL     1       2.614   2.401  18.230  0.00  0.00    +0.000 C 
ATOM     24  O   UNL     1       1.517   2.121  17.741  0.00  0.00    +0.000 OA
BRANCH  22  26
ATOM     25  C   UNL     1       1.548   2.939  21.713  0.00  0.00    +0.000 C 
ATOM     26  C   UNL     1       1.637   2.083  20.455  0.00  0.00    +0.000 C 
ENDBRANCH  22  26
BRANCH  22  27
ATOM     27  C   UNL     1       4.133   2.634  20.218  0.00  0.00    +0.000 C 
ATOM     28  C   UNL     1       4.976   1.481  20.743  0.00  0.00    +0.000 C 
ENDBRANCH  22  27
ENDBRANCH  21  23
ENDBRANCH  12  21
ENDBRANCH   1  14
BRANCH   8  29
ATOM     29  C   UNL     1       0.149  11.067  19.763  0.00  0.00    +0.000 A 
ATOM     30  C   UNL     1       0.783  12.227  20.232  0.00  0.00    +0.000 A 
ATOM     31  C   UNL     1       0.088  13.441  20.274  0.00  0.00    +0.000 A 
ATOM     32  C   UNL     1      -1.229  13.515  19.817  0.00  0.00    +0.000 A 
ATOM     33  C   UNL     1      -1.856  12.377  19.316  0.00  0.00    +0.000 A 
ATOM     34  C   UNL     1      -1.171  11.164  19.302  0.00  0.00    +0.000 A 
ATOM     35  F   UNL     1      -1.781  10.091  18.773  0.00  0.00    +0.000 F 
ENDBRANCH   8  29
TORSDOF 6
ENDMDL
MODEL 6
REMARK VINA RESULT:      -8.7      1.947      4.466
REMARK  Name = 
REMARK  8 active torsions:
REMARK  status: ('A' for Active; 'I' for Inactive)
REMARK    1  A    between atoms: C_1  and  C_2
REMARK    2  A    between atoms: C_2  and  N_3
REMARK    3  A    between atoms: N_3  and  C_4
REMARK    4  A    between atoms: C_4  and  C_5
REMARK    5  A    between atoms: C_6  and  C_8
REMARK    6  A    between atoms: C_8  and  N_9
REMARK    7  A    between atoms: C_11  and  C_12
REMARK    8  A    between atoms: N_19  and  C_20
REMARK                            x       y       z     vdW  Elec       q    Type
REMARK                         _______ _______ _______ _____ _____    ______ ____
ROOT
ATOM      1  C   UNL     1       2.808   7.800  17.796  0.00  0.00    +0.000 C 
ATOM      2  C   UNL     1       2.127   8.192  18.895  0.00  0.00    +0.000 C 
ATOM      3  C   UNL     1       2.026   7.372  20.115  0.00  0.00    +0.000 C 
ATOM      4  O   UNL     1       2.678   6.366  20.363  0.00  0.00    +0.000 OA
ATOM      5  N   UNL     1       1.146   7.849  21.041  0.00  0.00    +0.000 N 
ATOM      6  C   UNL     1       0.569   9.083  21.075  0.00  0.00    +0.000 C 
ATOM      7  O   UNL     1       0.086   9.454  22.147  0.00  0.00    +0.000 OA
ATOM      8  N   UNL     1       0.671   9.858  19.929  0.00  0.00    +0.000 N 
ATOM      9  C   UNL     1       1.443   9.516  18.821  0.00  0.00    +0.000 C 
ATOM     10  O   UNL     1       1.561  10.222  17.819  0.00  0.00    +0.000 OA
ATOM     11  H   UNL     1       1.122   7.342  21.914  0.00  0.00    +0.000 HD
ENDROOT
BRANCH   1  14
ATOM     12  N   UNL     1       3.930   4.414  17.440  0.00  0.00    +0.000 N 
ATOM     13  C   UNL     1       2.932   5.344  17.585  0.00  0.00    +0.000 A 
ATOM     14  C   UNL     1       3.521   6.586  17.614  0.00  0.00    +0.000 A 
ATOM     15  C   UNL     1       4.930   6.414  17.493  0.00  0.00    +0.000 A 
ATOM     16  C   UNL     1       6.028   7.299  17.471  0.00  0.00    +0.000 A 
ATOM     17  C   UNL     1       7.327   6.790  17.368  0.00  0.00    +0.000 A 
ATOM     18  C   UNL     1       7.540   5.419  17.281  0.00  0.00    +0.000 A 
ATOM     19  C   UNL     1       6.468   4.518  17.285  0.00  0.00    +0.000 A 
ATOM     20  C   UNL     1       5.165   5.036  17.390  0.00  0.00    +0.000 A 
BRANCH  12  21
ATOM     21  C   UNL     1       3.676   2.980  17.327  0.00  0.00    +0.000 C 
BRANCH  21  23
ATOM     22  N   UNL     1       2.763   2.428  19.593  0.00  0.00    +0.000 N 
ATOM     23  C   UNL     1       2.521   2.510  18.208  0.00  0.00    +0.000 C 
ATOM     24  O   UNL     1       1.416   2.228  17.740  0.00  0.00    +0.000 OA
BRANCH  22  26
ATOM     25  C   UNL     1       1.586   2.892  21.771  0.00  0.00    +0.000 C 
ATOM     26  C   UNL     1       1.603   2.134  20.449  0.00  0.00    +0.000 C 
ENDBRANCH  22  26
BRANCH  22  27
ATOM     27  C   UNL     1       4.086   2.719  20.162  0.00  0.00    +0.000 C 
ATOM     28  C   UNL     1       4.941   1.569  20.673  0.00  0.00    +0.000 C 
ENDBRANCH  22  27
ENDBRANCH  21  23
ENDBRANCH  12  21
ENDBRANCH   1  14
BRANCH   8  29
ATOM     29  C   UNL     1       0.006  11.126  19.941  0.00  0.00    +0.000 A 
ATOM     30  C   UNL     1      -1.321  11.252  19.506  0.00  0.00    +0.000 A 
ATOM     31  C   UNL     1      -1.927  12.512  19.450  0.00  0.00    +0.000 A 
ATOM     32  C   UNL     1      -1.229  13.649  19.861  0.00  0.00    +0.000 A 
ATOM     33  C   UNL     1       0.078  13.530  20.329  0.00  0.00    +0.000 A 
ATOM     34  C   UNL     1       0.688  12.279  20.357  0.00  0.00    +0.000 A 
ATOM     35  F   UNL     1       1.932  12.183  20.854  0.00  0.00    +0.000 F 
ENDBRANCH   8  29
TORSDOF 6
ENDMDL
MODEL 7
REMARK VINA RESULT:      -8.7      2.413      3.143
REMARK  Name = 
REMARK  8 active torsions:
REMARK  status: ('A' for Active; 'I' for Inactive)
REMARK    1  A    between atoms: C_1  and  C_2
REMARK    2  A    between atoms: C_2  and  N_3
REMARK    3  A    between atoms: N_3  and  C_4
REMARK    4  A    between atoms: C_4  and  C_5
REMARK    5  A    between atoms: C_6  and  C_8
REMARK    6  A    between atoms: C_8  and  N_9
REMARK    7  A    between atoms: C_11  and  C_12
REMARK    8  A    between atoms: N_19  and  C_20
REMARK                            x       y       z     vdW  Elec       q    Type
REMARK                         _______ _______ _______ _____ _____    ______ ____
ROOT
ATOM      1  C   UNL     1       2.682   7.453  17.745  0.00  0.00    +0.000 C 
ATOM      2  C   UNL     1       2.149   7.949  18.884  0.00  0.00    +0.000 C 
ATOM      3  C   UNL     1       2.220   7.249  20.177  0.00  0.00    +0.000 C 
ATOM      4  O   UNL     1       2.910   6.269  20.430  0.00  0.00    +0.000 OA
ATOM      5  N   UNL     1       1.466   7.813  21.164  0.00  0.00    +0.000 N 
ATOM      6  C   UNL     1       0.885   9.046  21.158  0.00  0.00    +0.000 C 
ATOM      7  O   UNL     1       0.545   9.518  22.245  0.00  0.00    +0.000 OA
ATOM      8  N   UNL     1       0.826   9.709  19.940  0.00  0.00    +0.000 N 
ATOM      9  C   UNL     1       1.447   9.261  18.776  0.00  0.00    +0.000 C 
ATOM     10  O   UNL     1       1.424   9.868  17.706  0.00  0.00    +0.000 OA
ATOM     11  H   UNL     1       1.563   7.391  22.076  0.00  0.00    +0.000 HD
ENDROOT
BRANCH   1  14
ATOM     12  N   UNL     1       5.002   4.797  17.098  0.00  0.00    +0.000 N 
ATOM     13  C   UNL     1       4.689   6.130  17.184  0.00  0.00    +0.000 A 
ATOM     14  C   UNL     1       3.378   6.225  17.585  0.00  0.00    +0.000 A 
ATOM     15  C   UNL     1       2.863   4.907  17.741  0.00  0.00    +0.000 A 
ATOM     16  C   UNL     1       1.607   4.381  18.113  0.00  0.00    +0.000 A 
ATOM     17  C   UNL     1       1.416   2.996  18.139  0.00  0.00    +0.000 A 
ATOM     18  C   UNL     1       2.457   2.136  17.807  0.00  0.00    +0.000 A 
ATOM     19  C   UNL     1       3.717   2.630  17.448  0.00  0.00    +0.000 A 
ATOM     20  C   UNL     1       3.903   4.022  17.423  0.00  0.00    +0.000 A 
BRANCH  12  21
ATOM     21  C   UNL     1       6.331   4.309  16.739  0.00  0.00    +0.000 C 
BRANCH  21  23
ATOM     22  N   UNL     1       6.862   4.823  14.345  0.00  0.00    +0.000 N 
ATOM     23  C   UNL     1       7.024   5.185  15.697  0.00  0.00    +0.000 C 
ATOM     24  O   UNL     1       7.685   6.176  16.013  0.00  0.00    +0.000 OA
BRANCH  22  26
ATOM     25  C   UNL     1       8.860   5.546  12.994  0.00  0.00    +0.000 C 
ATOM     26  C   UNL     1       7.393   5.760  13.343  0.00  0.00    +0.000 C 
ENDBRANCH  22  26
BRANCH  22  27
ATOM     27  C   UNL     1       6.113   3.620  13.955  0.00  0.00    +0.000 C 
ATOM     28  C   UNL     1       5.913   3.322  12.476  0.00  0.00    +0.000 C 
ENDBRANCH  22  27
ENDBRANCH  21  23
ENDBRANCH  12  21
ENDBRANCH   1  14
BRANCH   8  29
ATOM     29  C   UNL     1       0.155  10.973  19.921  0.00  0.00    +0.000 A 
ATOM     30  C   UNL     1       0.792  12.137  20.375  0.00  0.00    +0.000 A 
ATOM     31  C   UNL     1       0.093  13.349  20.423  0.00  0.00    +0.000 A 
ATOM     32  C   UNL     1      -1.231  13.417  19.985  0.00  0.00    +0.000 A 
ATOM     33  C   UNL     1      -1.860  12.274  19.498  0.00  0.00    +0.000 A 
ATOM     34  C   UNL     1      -1.172  11.064  19.478  0.00  0.00    +0.000 A 
ATOM     35  F   UNL     1      -1.785   9.986  18.962  0.00  0.00    +0.000 F 
ENDBRANCH   8  29
TORSDOF 6
ENDMDL
MODEL 8
REMARK VINA RESULT:      -8.6      2.886      8.590
REMARK  Name = 
REMARK  8 active torsions:
REMARK  status: ('A' for Active; 'I' for Inactive)
REMARK    1  A    between atoms: C_1  and  C_2
REMARK    2  A    between atoms: C_2  and  N_3
REMARK    3  A    between atoms: N_3  and  C_4
REMARK    4  A    between atoms: C_4  and  C_5
REMARK    5  A    between atoms: C_6  and  C_8
REMARK    6  A    between atoms: C_8  and  N_9
REMARK    7  A    between atoms: C_11  and  C_12
REMARK    8  A    between atoms: N_19  and  C_20
REMARK                            x       y       z     vdW  Elec       q    Type
REMARK                         _______ _______ _______ _____ _____    ______ ____
ROOT
ATOM      1  C   UNL     1       1.765   9.452  17.901  0.00  0.00    +0.000 C 
ATOM      2  C   UNL     1       2.260   8.310  18.426  0.00  0.00    +0.000 C 
ATOM      3  C   UNL     1       1.898   7.817  19.766  0.00  0.00    +0.000 C 
ATOM      4  O   UNL     1       0.992   8.244  20.471  0.00  0.00    +0.000 OA
ATOM      5  N   UNL     1       2.639   6.755  20.194  0.00  0.00    +0.000 N 
ATOM      6  C   UNL     1       3.465   5.969  19.447  0.00  0.00    +0.000 C 
ATOM      7  O   UNL     1       3.773   4.869  19.910  0.00  0.00    +0.000 OA
ATOM      8  N   UNL     1       3.799   6.430  18.181  0.00  0.00    +0.000 N 
ATOM      9  C   UNL     1       3.231   7.553  17.584  0.00  0.00    +0.000 C 
ATOM     10  O   UNL     1       3.503   7.940  16.447  0.00  0.00    +0.000 OA
ATOM     11  H   UNL     1       2.353   6.356  21.076  0.00  0.00    +0.000 HD
ENDROOT
BRANCH   1  14
ATOM     12  N   UNL     1       0.039  11.901  19.871  0.00  0.00    +0.000 N 
ATOM     13  C   UNL     1       1.183  11.237  19.503  0.00  0.00    +0.000 A 
ATOM     14  C   UNL     1       0.847  10.351  18.507  0.00  0.00    +0.000 A 
ATOM     15  C   UNL     1      -0.551  10.464  18.262  0.00  0.00    +0.000 A 
ATOM     16  C   UNL     1      -1.449   9.819  17.385  0.00  0.00    +0.000 A 
ATOM     17  C   UNL     1      -2.807  10.151  17.415  0.00  0.00    +0.000 A 
ATOM     18  C   UNL     1      -3.275  11.116  18.301  0.00  0.00    +0.000 A 
ATOM     19  C   UNL     1      -2.404  11.782  19.172  0.00  0.00    +0.000 A 
ATOM     20  C   UNL     1      -1.041  11.443  19.137  0.00  0.00    +0.000 A 
BRANCH  12  21
ATOM     21  C   UNL     1       0.017  12.957  20.879  0.00  0.00    +0.000 C 
BRANCH  21  23
ATOM     22  N   UNL     1       1.243  14.907  19.895  0.00  0.00    +0.000 N 
ATOM     23  C   UNL     1       1.253  13.852  20.829  0.00  0.00    +0.000 C 
ATOM     24  O   UNL     1       2.216  13.679  21.579  0.00  0.00    +0.000 OA
BRANCH  22  26
ATOM     25  C   UNL     1       3.201  15.942  18.697  0.00  0.00    +0.000 C 
ATOM     26  C   UNL     1       2.361  15.861  19.965  0.00  0.00    +0.000 C 
ENDBRANCH  22  26
BRANCH  22  27
ATOM     27  C   UNL     1       0.122  15.102  18.965  0.00  0.00    +0.000 C 
ATOM     28  C   UNL     1      -0.686  16.390  19.040  0.00  0.00    +0.000 C 
ENDBRANCH  22  27
ENDBRANCH  21  23
ENDBRANCH  12  21
ENDBRANCH   1  14
BRANCH   8  29
ATOM     29  C   UNL     1       4.720   5.637  17.424  0.00  0.00    +0.000 A 
ATOM     30  C   UNL     1       4.300   4.478  16.757  0.00  0.00    +0.000 A 
ATOM     31  C   UNL     1       5.229   3.674  16.088  0.00  0.00    +0.000 A 
ATOM     32  C   UNL     1       6.577   4.038  16.048  0.00  0.00    +0.000 A 
ATOM     33  C   UNL     1       6.998   5.208  16.677  0.00  0.00    +0.000 A 
ATOM     34  C   UNL     1       6.076   5.991  17.366  0.00  0.00    +0.000 A 
ATOM     35  F   UNL     1       6.498   7.136  17.925  0.00  0.00    +0.000 F 
ENDBRANCH   8  29
TORSDOF 6
ENDMDL
MODEL 9
REMARK VINA RESULT:      -8.6      1.122      1.432
REMARK  Name = 
REMARK  8 active torsions:
REMARK  status: ('A' for Active; 'I' for Inactive)
REMARK    1  A    between atoms: C_1  and  C_2
REMARK    2  A    between atoms: C_2  and  N_3
REMARK    3  A    between atoms: N_3  and  C_4
REMARK    4  A    between atoms: C_4  and  C_5
REMARK    5  A    between atoms: C_6  and  C_8
REMARK    6  A    between atoms: C_8  and  N_9
REMARK    7  A    between atoms: C_11  and  C_12
REMARK    8  A    between atoms: N_19  and  C_20
REMARK                            x       y       z     vdW  Elec       q    Type
REMARK                         _______ _______ _______ _____ _____    ______ ____
ROOT
ATOM      1  C   UNL     1       2.037   7.402  20.256  0.00  0.00    +0.000 C 
ATOM      2  C   UNL     1       1.464   8.530  19.782  0.00  0.00    +0.000 C 
ATOM      3  C   UNL     1       1.280   8.798  18.345  0.00  0.00    +0.000 C 
ATOM      4  O   UNL     1       1.428   7.990  17.436  0.00  0.00    +0.000 OA
ATOM      5  N   UNL     1       0.860  10.063  18.058  0.00  0.00    +0.000 N 
ATOM      6  C   UNL     1       0.362  10.986  18.929  0.00  0.00    +0.000 C 
ATOM      7  O   UNL     1      -0.280  11.926  18.454  0.00  0.00    +0.000 OA
ATOM      8  N   UNL     1       0.528  10.730  20.282  0.00  0.00    +0.000 N 
ATOM      9  C   UNL     1       1.030   9.536  20.795  0.00  0.00    +0.000 C 
ATOM     10  O   UNL     1       1.143   9.296  21.997  0.00  0.00    +0.000 OA
ATOM     11  H   UNL     1       0.655  10.239  17.085  0.00  0.00    +0.000 HD
ENDROOT
BRANCH   1  14
ATOM     12  N   UNL     1       3.767   5.179  18.037  0.00  0.00    +0.000 N 
ATOM     13  C   UNL     1       3.588   6.413  18.610  0.00  0.00    +0.000 A 
ATOM     14  C   UNL     1       2.544   6.312  19.499  0.00  0.00    +0.000 A 
ATOM     15  C   UNL     1       2.057   4.975  19.465  0.00  0.00    +0.000 A 
ATOM     16  C   UNL     1       1.018   4.291  20.132  0.00  0.00    +0.000 A 
ATOM     17  C   UNL     1       0.774   2.945  19.840  0.00  0.00    +0.000 A 
ATOM     18  C   UNL     1       1.553   2.278  18.900  0.00  0.00    +0.000 A 
ATOM     19  C   UNL     1       2.599   2.927  18.235  0.00  0.00    +0.000 A 
ATOM     20  C   UNL     1       2.839   4.280  18.532  0.00  0.00    +0.000 A 
BRANCH  12  21
ATOM     21  C   UNL     1       4.821   4.892  17.068  0.00  0.00    +0.000 C 
BRANCH  21  23
ATOM     22  N   UNL     1       6.915   6.249  17.286  0.00  0.00    +0.000 N 
ATOM     23  C   UNL     1       5.640   6.127  16.699  0.00  0.00    +0.000 C 
ATOM     24  O   UNL     1       5.221   6.977  15.911  0.00  0.00    +0.000 OA
BRANCH  22  26
ATOM     25  C   UNL     1       7.898   8.516  17.774  0.00  0.00    +0.000 C 
ATOM     26  C   UNL     1       7.761   7.351  16.802  0.00  0.00    +0.000 C 
ENDBRANCH  22  26
BRANCH  22  27
ATOM     27  C   UNL     1       7.412   5.267  18.260  0.00  0.00    +0.000 C 
ATOM     28  C   UNL     1       7.383   5.615  19.741  0.00  0.00    +0.000 C 
ENDBRANCH  22  27
ENDBRANCH  21  23
ENDBRANCH  12  21
ENDBRANCH   1  14
BRANCH   8  29
ATOM     29  C   UNL     1       0.066  11.732  21.195  0.00  0.00    +0.000 A 
ATOM     30  C   UNL     1      -1.064  11.516  21.996  0.00  0.00    +0.000 A 
ATOM     31  C   UNL     1      -1.546  12.536  22.823  0.00  0.00    +0.000 A 
ATOM     32  C   UNL     1      -0.886  13.765  22.884  0.00  0.00    +0.000 A 
ATOM     33  C   UNL     1       0.259  13.977  22.119  0.00  0.00    +0.000 A 
ATOM     34  C   UNL     1       0.720  12.970  21.276  0.00  0.00    +0.000 A 
ATOM     35  F   UNL     1       1.850  13.182  20.583  0.00  0.00    +0.000 F 
ENDBRANCH   8  29
TORSDOF 6
ENDMDL
