MODEL 1
REMARK VINA RESULT:      -8.3      0.000      0.000
REMARK  Name = 
REMARK  3 active torsions:
REMARK  status: ('A' for Active; 'I' for Inactive)
REMARK    1  A    between atoms: C_1  and  C_2
REMARK    2  A    between atoms: C_5  and  C_6
REMARK    3  A    between atoms: C_6  and  N_7
REMARK                            x       y       z     vdW  Elec       q    Type
REMARK                         _______ _______ _______ _____ _____    ______ ____
ROOT
ATOM      1  N   UNL     1       4.494   5.856  18.604  0.00  0.00    +0.000 N 
ATOM      2  C   UNL     1       3.379   6.682  18.526  0.00  0.00    +0.000 C 
ATOM      3  O   UNL     1       3.306   7.781  17.998  0.00  0.00    +0.000 OA
ATOM      4  C   UNL     1       2.222   5.948  19.211  0.00  0.00    +0.000 C 
ATOM      5  C   UNL     1       2.860   4.661  19.582  0.00  0.00    +0.000 A 
ATOM      6  C   UNL     1       2.404   3.526  20.161  0.00  0.00    +0.000 A 
ATOM      7 CL   UNL     1       0.772   3.345  20.647  0.00  0.00    +0.000 Cl
ATOM      8  N   UNL     1       3.178   2.451  20.378  0.00  0.00    +0.000 NA
ATOM      9  C   UNL     1       4.459   2.553  20.001  0.00  0.00    +0.000 A 
ATOM     10  N   UNL     1       5.271   1.460  20.212  0.00  0.00    +0.000 N 
ATOM     11  N   UNL     1       4.999   3.614  19.395  0.00  0.00    +0.000 NA
ATOM     12  C   UNL     1       4.178   4.646  19.220  0.00  0.00    +0.000 A 
ATOM     13  H   UNL     1       4.730   0.611  20.269  0.00  0.00    +0.000 HD
ATOM     14  H   UNL     1       6.063   1.476  19.585  0.00  0.00    +0.000 HD
ENDROOT
BRANCH   1  15
ATOM     15  C   UNL     1       5.787   6.152  18.038  0.00  0.00    +0.000 C 
BRANCH  15  20
ATOM     16  C   UNL     1       6.389   3.663  12.802  0.00  0.00    +0.000 C 
ATOM     17  C   UNL     1       6.274   4.374  14.120  0.00  0.00    +0.000 A 
ATOM     18  C   UNL     1       5.326   5.384  14.324  0.00  0.00    +0.000 A 
ATOM     19  C   UNL     1       5.192   5.994  15.579  0.00  0.00    +0.000 A 
ATOM     20  C   UNL     1       5.995   5.591  16.657  0.00  0.00    +0.000 A 
ATOM     21  C   UNL     1       6.965   4.613  16.426  0.00  0.00    +0.000 A 
ATOM     22  F   UNL     1       7.752   4.196  17.428  0.00  0.00    +0.000 F 
ATOM     23  C   UNL     1       7.113   4.012  15.177  0.00  0.00    +0.000 A 
ENDBRANCH  15  20
ENDBRANCH   1  15
TORSDOF 2
ENDMDL
MODEL 2
REMARK VINA RESULT:      -7.8      3.578      6.086
REMARK  Name = 
REMARK  3 active torsions:
REMARK  status: ('A' for Active; 'I' for Inactive)
REMARK    1  A    between atoms: C_1  and  C_2
REMARK    2  A    between atoms: C_5  and  C_6
REMARK    3  A    between atoms: C_6  and  N_7
REMARK                            x       y       z     vdW  Elec       q    Type
REMARK                         _______ _______ _______ _____ _____    ______ ____
ROOT
ATOM      1  N   UNL     1       3.811   5.212  18.379  0.00  0.00    +0.000 N 
ATOM      2  C   UNL     1       3.081   4.190  17.784  0.00  0.00    +0.000 C 
ATOM      3  O   UNL     1       2.008   3.737  18.149  0.00  0.00    +0.000 OA
ATOM      4  C   UNL     1       3.862   3.735  16.548  0.00  0.00    +0.000 C 
ATOM      5  C   UNL     1       5.015   4.669  16.560  0.00  0.00    +0.000 A 
ATOM      6  C   UNL     1       6.063   4.869  15.727  0.00  0.00    +0.000 A 
ATOM      7 CL   UNL     1       6.284   3.942  14.304  0.00  0.00    +0.000 Cl
ATOM      8  N   UNL     1       6.993   5.816  15.932  0.00  0.00    +0.000 NA
ATOM      9  C   UNL     1       6.846   6.567  17.030  0.00  0.00    +0.000 A 
ATOM     10  N   UNL     1       7.788   7.546  17.259  0.00  0.00    +0.000 N 
ATOM     11  N   UNL     1       5.834   6.471  17.897  0.00  0.00    +0.000 NA
ATOM     12  C   UNL     1       4.956   5.507  17.639  0.00  0.00    +0.000 A 
ATOM     13  H   UNL     1       8.239   7.823  16.400  0.00  0.00    +0.000 HD
ATOM     14  H   UNL     1       7.411   8.273  17.852  0.00  0.00    +0.000 HD
ENDROOT
BRANCH   1  15
ATOM     15  C   UNL     1       3.404   5.951  19.548  0.00  0.00    +0.000 C 
BRANCH  15  20
ATOM     16  C   UNL     1       0.417  10.860  18.568  0.00  0.00    +0.000 C 
ATOM     17  C   UNL     1       1.128   9.553  18.773  0.00  0.00    +0.000 A 
ATOM     18  C   UNL     1       1.911   8.982  17.764  0.00  0.00    +0.000 A 
ATOM     19  C   UNL     1       2.617   7.793  17.994  0.00  0.00    +0.000 A 
ATOM     20  C   UNL     1       2.563   7.163  19.246  0.00  0.00    +0.000 A 
ATOM     21  C   UNL     1       1.743   7.721  20.229  0.00  0.00    +0.000 A 
ATOM     22  F   UNL     1       1.663   7.154  21.441  0.00  0.00    +0.000 F 
ATOM     23  C   UNL     1       1.028   8.896  20.003  0.00  0.00    +0.000 A 
ENDBRANCH  15  20
ENDBRANCH   1  15
TORSDOF 2
ENDMDL
MODEL 3
REMARK VINA RESULT:      -7.8      1.075      1.472
REMARK  Name = 
REMARK  3 active torsions:
REMARK  status: ('A' for Active; 'I' for Inactive)
REMARK    1  A    between atoms: C_1  and  C_2
REMARK    2  A    between atoms: C_5  and  C_6
REMARK    3  A    between atoms: C_6  and  N_7
REMARK                            x       y       z     vdW  Elec       q    Type
REMARK                         _______ _______ _______ _____ _____    ______ ____
ROOT
ATOM      1  N   UNL     1       4.425   5.753  18.558  0.00  0.00    +0.000 N 
ATOM      2  C   UNL     1       3.321   6.597  18.560  0.00  0.00    +0.000 C 
ATOM      3  O   UNL     1       3.213   7.677  18.000  0.00  0.00    +0.000 OA
ATOM      4  C   UNL     1       2.229   5.912  19.386  0.00  0.00    +0.000 C 
ATOM      5  C   UNL     1       2.880   4.627  19.741  0.00  0.00    +0.000 A 
ATOM      6  C   UNL     1       2.467   3.524  20.406  0.00  0.00    +0.000 A 
ATOM      7 CL   UNL     1       0.890   3.393  21.061  0.00  0.00    +0.000 Cl
ATOM      8  N   UNL     1       3.242   2.442  20.586  0.00  0.00    +0.000 NA
ATOM      9  C   UNL     1       4.479   2.504  20.078  0.00  0.00    +0.000 A 
ATOM     10  N   UNL     1       5.291   1.405  20.249  0.00  0.00    +0.000 N 
ATOM     11  N   UNL     1       4.972   3.531  19.380  0.00  0.00    +0.000 NA
ATOM     12  C   UNL     1       4.154   4.572  19.248  0.00  0.00    +0.000 A 
ATOM     13  H   UNL     1       4.744   0.569  20.392  0.00  0.00    +0.000 HD
ATOM     14  H   UNL     1       6.016   1.382  19.544  0.00  0.00    +0.000 HD
ENDROOT
BRANCH   1  15
ATOM     15  C   UNL     1       5.659   6.002  17.854  0.00  0.00    +0.000 C 
BRANCH  15  20
ATOM     16  C   UNL     1       6.322   3.598  12.585  0.00  0.00    +0.000 C 
ATOM     17  C   UNL     1       6.085   4.164  13.956  0.00  0.00    +0.000 A 
ATOM     18  C   UNL     1       6.481   3.476  15.108  0.00  0.00    +0.000 A 
ATOM     19  C   UNL     1       6.308   4.047  16.376  0.00  0.00    +0.000 A 
ATOM     20  C   UNL     1       5.747   5.326  16.512  0.00  0.00    +0.000 A 
ATOM     21  C   UNL     1       5.317   5.982  15.356  0.00  0.00    +0.000 A 
ATOM     22  F   UNL     1       4.778   7.206  15.438  0.00  0.00    +0.000 F 
ATOM     23  C   UNL     1       5.475   5.414  14.092  0.00  0.00    +0.000 A 
ENDBRANCH  15  20
ENDBRANCH   1  15
TORSDOF 2
ENDMDL
MODEL 4
REMARK VINA RESULT:      -7.6      2.159      3.134
REMARK  Name = 
REMARK  3 active torsions:
REMARK  status: ('A' for Active; 'I' for Inactive)
REMARK    1  A    between atoms: C_1  and  C_2
REMARK    2  A    between atoms: C_5  and  C_6
REMARK    3  A    between atoms: C_6  and  N_7
REMARK                            x       y       z     vdW  Elec       q    Type
REMARK                         _______ _______ _______ _____ _____    ______ ____
ROOT
ATOM      1  N   UNL     1       4.134   4.344  18.365  0.00  0.00    +0.000 N 
ATOM      2  C   UNL     1       2.971   5.099  18.278  0.00  0.00    +0.000 C 
ATOM      3  O   UNL     1       2.681   5.916  17.418  0.00  0.00    +0.000 OA
ATOM      4  C   UNL     1       2.083   4.703  19.461  0.00  0.00    +0.000 C 
ATOM      5  C   UNL     1       2.895   3.641  20.105  0.00  0.00    +0.000 A 
ATOM      6  C   UNL     1       2.691   2.820  21.160  0.00  0.00    +0.000 A 
ATOM      7 CL   UNL     1       1.249   2.868  22.084  0.00  0.00    +0.000 Cl
ATOM      8  N   UNL     1       3.579   1.893  21.552  0.00  0.00    +0.000 NA
ATOM      9  C   UNL     1       4.714   1.819  20.846  0.00  0.00    +0.000 A 
ATOM     10  N   UNL     1       5.640   0.873  21.229  0.00  0.00    +0.000 N 
ATOM     11  N   UNL     1       5.000   2.560  19.771  0.00  0.00    +0.000 NA
ATOM     12  C   UNL     1       4.080   3.464  19.445  0.00  0.00    +0.000 A 
ATOM     13  H   UNL     1       5.200   0.119  21.735  0.00  0.00    +0.000 HD
ATOM     14  H   UNL     1       6.248   0.635  20.458  0.00  0.00    +0.000 HD
ENDROOT
BRANCH   1  15
ATOM     15  C   UNL     1       5.218   4.378  17.415  0.00  0.00    +0.000 C 
BRANCH  15  20
ATOM     16  C   UNL     1       8.723   8.909  18.494  0.00  0.00    +0.000 C 
ATOM     17  C   UNL     1       7.887   7.703  18.176  0.00  0.00    +0.000 A 
ATOM     18  C   UNL     1       8.017   6.513  18.902  0.00  0.00    +0.000 A 
ATOM     19  C   UNL     1       7.185   5.418  18.632  0.00  0.00    +0.000 A 
ATOM     20  C   UNL     1       6.196   5.501  17.640  0.00  0.00    +0.000 A 
ATOM     21  C   UNL     1       6.107   6.679  16.896  0.00  0.00    +0.000 A 
ATOM     22  F   UNL     1       5.175   6.803  15.940  0.00  0.00    +0.000 F 
ATOM     23  C   UNL     1       6.940   7.768  17.150  0.00  0.00    +0.000 A 
ENDBRANCH  15  20
ENDBRANCH   1  15
TORSDOF 2
ENDMDL
MODEL 5
REMARK VINA RESULT:      -7.6      0.952      1.007
REMARK  Name = 
REMARK  3 active torsions:
REMARK  status: ('A' for Active; 'I' for Inactive)
REMARK    1  A    between atoms: C_1  and  C_2
REMARK    2  A    between atoms: C_5  and  C_6
REMARK    3  A    between atoms: C_6  and  N_7
REMARK                            x       y       z     vdW  Elec       q    Type
REMARK                         _______ _______ _______ _____ _____    ______ ____
ROOT
ATOM      1  N   UNL     1       4.659   5.561  18.325  0.00  0.00    +0.000 N 
ATOM      2  C   UNL     1       3.616   6.464  18.161  0.00  0.00    +0.000 C 
ATOM      3  O   UNL     1       3.621   7.490  17.500  0.00  0.00    +0.000 OA
ATOM      4  C   UNL     1       2.421   5.924  18.952  0.00  0.00    +0.000 C 
ATOM      5  C   UNL     1       2.958   4.643  19.472  0.00  0.00    +0.000 A 
ATOM      6  C   UNL     1       2.424   3.632  20.197  0.00  0.00    +0.000 A 
ATOM      7 CL   UNL     1       0.796   3.654  20.728  0.00  0.00    +0.000 Cl
ATOM      8  N   UNL     1       3.112   2.530  20.536  0.00  0.00    +0.000 NA
ATOM      9  C   UNL     1       4.386   2.473  20.129  0.00  0.00    +0.000 A 
ATOM     10  N   UNL     1       5.109   1.349  20.464  0.00  0.00    +0.000 N 
ATOM     11  N   UNL     1       4.997   3.399  19.385  0.00  0.00    +0.000 NA
ATOM     12  C   UNL     1       4.261   4.468  19.094  0.00  0.00    +0.000 A 
ATOM     13  H   UNL     1       4.500   0.563  20.636  0.00  0.00    +0.000 HD
ATOM     14  H   UNL     1       5.883   1.218  19.827  0.00  0.00    +0.000 HD
ENDROOT
BRANCH   1  15
ATOM     15  C   UNL     1       5.957   5.672  17.706  0.00  0.00    +0.000 C 
BRANCH  15  20
ATOM     16  C   UNL     1       6.440   3.475  12.329  0.00  0.00    +0.000 C 
ATOM     17  C   UNL     1       6.247   4.087  13.687  0.00  0.00    +0.000 A 
ATOM     18  C   UNL     1       5.225   3.661  14.541  0.00  0.00    +0.000 A 
ATOM     19  C   UNL     1       5.099   4.200  15.829  0.00  0.00    +0.000 A 
ATOM     20  C   UNL     1       6.006   5.166  16.289  0.00  0.00    +0.000 A 
ATOM     21  C   UNL     1       6.995   5.612  15.410  0.00  0.00    +0.000 A 
ATOM     22  F   UNL     1       7.886   6.532  15.808  0.00  0.00    +0.000 F 
ATOM     23  C   UNL     1       7.118   5.090  14.123  0.00  0.00    +0.000 A 
ENDBRANCH  15  20
ENDBRANCH   1  15
TORSDOF 2
ENDMDL
MODEL 6
REMARK VINA RESULT:      -7.5      3.436      6.000
REMARK  Name = 
REMARK  3 active torsions:
REMARK  status: ('A' for Active; 'I' for Inactive)
REMARK    1  A    between atoms: C_1  and  C_2
REMARK    2  A    between atoms: C_5  and  C_6
REMARK    3  A    between atoms: C_6  and  N_7
REMARK                            x       y       z     vdW  Elec       q    Type
REMARK                         _______ _______ _______ _____ _____    ______ ____
ROOT
ATOM      1  N   UNL     1       4.039   3.954  18.210  0.00  0.00    +0.000 N 
ATOM      2  C   UNL     1       3.455   3.633  16.990  0.00  0.00    +0.000 C 
ATOM      3  O   UNL     1       2.300   3.293  16.788  0.00  0.00    +0.000 OA
ATOM      4  C   UNL     1       4.531   3.806  15.914  0.00  0.00    +0.000 C 
ATOM      5  C   UNL     1       5.681   4.298  16.713  0.00  0.00    +0.000 A 
ATOM      6  C   UNL     1       6.931   4.707  16.396  0.00  0.00    +0.000 A 
ATOM      7 CL   UNL     1       7.499   4.730  14.781  0.00  0.00    +0.000 Cl
ATOM      8  N   UNL     1       7.812   5.148  17.308  0.00  0.00    +0.000 NA
ATOM      9  C   UNL     1       7.399   5.154  18.582  0.00  0.00    +0.000 A 
ATOM     10  N   UNL     1       8.286   5.604  19.534  0.00  0.00    +0.000 N 
ATOM     11  N   UNL     1       6.178   4.800  18.995  0.00  0.00    +0.000 NA
ATOM     12  C   UNL     1       5.360   4.366  18.040  0.00  0.00    +0.000 A 
ATOM     13  H   UNL     1       8.977   6.216  19.127  0.00  0.00    +0.000 HD
ATOM     14  H   UNL     1       7.795   5.926  20.357  0.00  0.00    +0.000 HD
ENDROOT
BRANCH   1  15
ATOM     15  C   UNL     1       3.354   3.966  19.479  0.00  0.00    +0.000 C 
BRANCH  15  20
ATOM     16  C   UNL     1       0.844   9.019  20.942  0.00  0.00    +0.000 C 
ATOM     17  C   UNL     1       1.437   7.713  20.497  0.00  0.00    +0.000 A 
ATOM     18  C   UNL     1       2.319   7.643  19.413  0.00  0.00    +0.000 A 
ATOM     19  C   UNL     1       2.911   6.425  19.051  0.00  0.00    +0.000 A 
ATOM     20  C   UNL     1       2.641   5.257  19.780  0.00  0.00    +0.000 A 
ATOM     21  C   UNL     1       1.726   5.334  20.832  0.00  0.00    +0.000 A 
ATOM     22  F   UNL     1       1.440   4.243  21.558  0.00  0.00    +0.000 F 
ATOM     23  C   UNL     1       1.123   6.540  21.189  0.00  0.00    +0.000 A 
ENDBRANCH  15  20
ENDBRANCH   1  15
TORSDOF 2
ENDMDL
MODEL 7
REMARK VINA RESULT:      -7.4      2.403      3.104
REMARK  Name = 
REMARK  3 active torsions:
REMARK  status: ('A' for Active; 'I' for Inactive)
REMARK    1  A    between atoms: C_1  and  C_2
REMARK    2  A    between atoms: C_5  and  C_6
REMARK    3  A    between atoms: C_6  and  N_7
REMARK                            x       y       z     vdW  Elec       q    Type
REMARK                         _______ _______ _______ _____ _____    ______ ____
ROOT
ATOM      1  N   UNL     1       2.811   3.575  17.987  0.00  0.00    +0.000 N 
ATOM      2  C   UNL     1       1.486   3.995  17.982  0.00  0.00    +0.000 C 
ATOM      3  O   UNL     1       0.866   4.480  17.048  0.00  0.00    +0.000 OA
ATOM      4  C   UNL     1       0.917   3.716  19.376  0.00  0.00    +0.000 C 
ATOM      5  C   UNL     1       2.069   3.066  20.047  0.00  0.00    +0.000 A 
ATOM      6  C   UNL     1       2.247   2.513  21.269  0.00  0.00    +0.000 A 
ATOM      7 CL   UNL     1       0.994   2.458  22.435  0.00  0.00    +0.000 Cl
ATOM      8  N   UNL     1       3.401   1.945  21.656  0.00  0.00    +0.000 NA
ATOM      9  C   UNL     1       4.401   1.959  20.766  0.00  0.00    +0.000 A 
ATOM     10  N   UNL     1       5.593   1.380  21.142  0.00  0.00    +0.000 N 
ATOM     11  N   UNL     1       4.319   2.451  19.527  0.00  0.00    +0.000 NA
ATOM     12  C   UNL     1       3.152   3.007  19.213  0.00  0.00    +0.000 A 
ATOM     13  H   UNL     1       5.450   0.697  21.871  0.00  0.00    +0.000 HD
ATOM     14  H   UNL     1       6.127   1.102  20.330  0.00  0.00    +0.000 HD
ENDROOT
BRANCH   1  15
ATOM     15  C   UNL     1       3.699   3.618  16.851  0.00  0.00    +0.000 C 
BRANCH  15  20
ATOM     16  C   UNL     1       7.811   7.675  17.629  0.00  0.00    +0.000 C 
ATOM     17  C   UNL     1       6.769   6.632  17.344  0.00  0.00    +0.000 A 
ATOM     18  C   UNL     1       7.120   5.305  17.073  0.00  0.00    +0.000 A 
ATOM     19  C   UNL     1       6.131   4.332  16.870  0.00  0.00    +0.000 A 
ATOM     20  C   UNL     1       4.772   4.669  16.951  0.00  0.00    +0.000 A 
ATOM     21  C   UNL     1       4.437   6.006  17.180  0.00  0.00    +0.000 A 
ATOM     22  F   UNL     1       3.151   6.372  17.268  0.00  0.00    +0.000 F 
ATOM     23  C   UNL     1       5.416   6.981  17.369  0.00  0.00    +0.000 A 
ENDBRANCH  15  20
ENDBRANCH   1  15
TORSDOF 2
ENDMDL
MODEL 8
REMARK VINA RESULT:      -7.4      2.714      3.965
REMARK  Name = 
REMARK  3 active torsions:
REMARK  status: ('A' for Active; 'I' for Inactive)
REMARK    1  A    between atoms: C_1  and  C_2
REMARK    2  A    between atoms: C_5  and  C_6
REMARK    3  A    between atoms: C_6  and  N_7
REMARK                            x       y       z     vdW  Elec       q    Type
REMARK                         _______ _______ _______ _____ _____    ______ ____
ROOT
ATOM      1  N   UNL     1       3.661   3.547  17.739  0.00  0.00    +0.000 N 
ATOM      2  C   UNL     1       3.628   2.175  17.957  0.00  0.00    +0.000 C 
ATOM      3  O   UNL     1       4.146   1.304  17.276  0.00  0.00    +0.000 OA
ATOM      4  C   UNL     1       2.832   1.939  19.244  0.00  0.00    +0.000 C 
ATOM      5  C   UNL     1       2.526   3.328  19.667  0.00  0.00    +0.000 A 
ATOM      6  C   UNL     1       1.905   3.860  20.745  0.00  0.00    +0.000 A 
ATOM      7 CL   UNL     1       1.260   2.885  21.996  0.00  0.00    +0.000 Cl
ATOM      8  N   UNL     1       1.766   5.182  20.934  0.00  0.00    +0.000 NA
ATOM      9  C   UNL     1       2.269   5.977  19.980  0.00  0.00    +0.000 A 
ATOM     10  N   UNL     1       2.139   7.337  20.155  0.00  0.00    +0.000 N 
ATOM     11  N   UNL     1       2.925   5.554  18.896  0.00  0.00    +0.000 NA
ATOM     12  C   UNL     1       3.018   4.234  18.768  0.00  0.00    +0.000 A 
ATOM     13  H   UNL     1       2.029   7.569  21.130  0.00  0.00    +0.000 HD
ATOM     14  H   UNL     1       2.843   7.834  19.626  0.00  0.00    +0.000 HD
ENDROOT
BRANCH   1  15
ATOM     15  C   UNL     1       4.353   4.198  16.654  0.00  0.00    +0.000 C 
BRANCH  15  20
ATOM     16  C   UNL     1       8.479   7.821  18.611  0.00  0.00    +0.000 C 
ATOM     17  C   UNL     1       7.476   6.850  18.057  0.00  0.00    +0.000 A 
ATOM     18  C   UNL     1       7.434   5.519  18.487  0.00  0.00    +0.000 A 
ATOM     19  C   UNL     1       6.451   4.643  18.005  0.00  0.00    +0.000 A 
ATOM     20  C   UNL     1       5.483   5.091  17.093  0.00  0.00    +0.000 A 
ATOM     21  C   UNL     1       5.564   6.409  16.641  0.00  0.00    +0.000 A 
ATOM     22  F   UNL     1       4.658   6.880  15.772  0.00  0.00    +0.000 F 
ATOM     23  C   UNL     1       6.547   7.282  17.106  0.00  0.00    +0.000 A 
ENDBRANCH  15  20
ENDBRANCH   1  15
TORSDOF 2
ENDMDL
MODEL 9
REMARK VINA RESULT:      -7.4      4.796      6.527
REMARK  Name = 
REMARK  3 active torsions:
REMARK  status: ('A' for Active; 'I' for Inactive)
REMARK    1  A    between atoms: C_1  and  C_2
REMARK    2  A    between atoms: C_5  and  C_6
REMARK    3  A    between atoms: C_6  and  N_7
REMARK                            x       y       z     vdW  Elec       q    Type
REMARK                         _______ _______ _______ _____ _____    ______ ____
ROOT
ATOM      1  N   UNL     1       1.906   8.432  19.443  0.00  0.00    +0.000 N 
ATOM      2  C   UNL     1       1.741   8.944  18.161  0.00  0.00    +0.000 C 
ATOM      3  O   UNL     1       2.294   8.572  17.138  0.00  0.00    +0.000 OA
ATOM      4  C   UNL     1       0.701  10.064  18.251  0.00  0.00    +0.000 C 
ATOM      5  C   UNL     1       0.330  10.016  19.686  0.00  0.00    +0.000 A 
ATOM      6  C   UNL     1      -0.573  10.686  20.440  0.00  0.00    +0.000 A 
ATOM      7 CL   UNL     1      -1.596  11.890  19.779  0.00  0.00    +0.000 Cl
ATOM      8  N   UNL     1      -0.757  10.448  21.749  0.00  0.00    +0.000 NA
ATOM      9  C   UNL     1       0.018   9.505  22.298  0.00  0.00    +0.000 A 
ATOM     10  N   UNL     1      -0.155   9.243  23.639  0.00  0.00    +0.000 N 
ATOM     11  N   UNL     1       0.915   8.767  21.637  0.00  0.00    +0.000 NA
ATOM     12  C   UNL     1       1.052   9.062  20.347  0.00  0.00    +0.000 A 
ATOM     13  H   UNL     1      -1.078   9.511  23.945  0.00  0.00    +0.000 HD
ATOM     14  H   UNL     1       0.167   8.312  23.867  0.00  0.00    +0.000 HD
ENDROOT
BRANCH   1  15
ATOM     15  C   UNL     1       2.766   7.328  19.791  0.00  0.00    +0.000 C 
BRANCH  15  20
ATOM     16  C   UNL     1       0.770   1.926  18.888  0.00  0.00    +0.000 C 
ATOM     17  C   UNL     1       1.204   3.347  19.106  0.00  0.00    +0.000 A 
ATOM     18  C   UNL     1       0.902   4.030  20.289  0.00  0.00    +0.000 A 
ATOM     19  C   UNL     1       1.369   5.335  20.500  0.00  0.00    +0.000 A 
ATOM     20  C   UNL     1       2.160   5.974  19.534  0.00  0.00    +0.000 A 
ATOM     21  C   UNL     1       2.417   5.296  18.340  0.00  0.00    +0.000 A 
ATOM     22  F   UNL     1       3.171   5.867  17.390  0.00  0.00    +0.000 F 
ATOM     23  C   UNL     1       1.945   4.003  18.118  0.00  0.00    +0.000 A 
ENDBRANCH  15  20
ENDBRANCH   1  15
TORSDOF 2
ENDMDL
