MODEL 1
REMARK VINA RESULT:      -7.8      0.000      0.000
REMARK  Name = 
REMARK  12 active torsions:
REMARK  status: ('A' for Active; 'I' for Inactive)
REMARK    1  A    between atoms: C_1  and  N_2
REMARK    2  A    between atoms: N_2  and  C_3
REMARK    3  A    between atoms: N_2  and  C_4
REMARK    4  A    between atoms: C_7  and  C_8
REMARK    5  A    between atoms: C_8  and  C_9
REMARK    6  A    between atoms: C_8  and  N_16
REMARK    7  A    between atoms: N_11  and  C_12
REMARK    8  A    between atoms: C_12  and  C_13
REMARK    9  A    between atoms: C_12  and  C_14
REMARK   10  A    between atoms: C_12  and  C_15
REMARK   11  A    between atoms: N_16  and  C_24
REMARK   12  A    between atoms: C_17  and  C_19
REMARK                            x       y       z     vdW  Elec       q    Type
REMARK                         _______ _______ _______ _____ _____    ______ ____
ROOT
ATOM      1  C   UNL     1       5.052   5.761  18.470  0.00  0.00    +0.000 C 
ENDROOT
BRANCH   1   5
ATOM      2  C   UNL     1       1.691   8.510  19.122  0.00  0.00    +0.000 A 
ATOM      3  C   UNL     1       1.981   7.473  20.020  0.00  0.00    +0.000 A 
ATOM      4  C   UNL     1       3.065   6.602  19.820  0.00  0.00    +0.000 A 
ATOM      5  C   UNL     1       3.858   6.692  18.668  0.00  0.00    +0.000 A 
ATOM      6  C   UNL     1       3.427   7.567  17.671  0.00  0.00    +0.000 A 
ATOM      7  C   UNL     1       2.404   8.487  17.914  0.00  0.00    +0.000 A 
BRANCH   2   9
ATOM      8  C   UNL     1       1.092  10.850  18.898  0.00  0.00    +0.000 C 
ATOM      9  N   UNL     1       0.734   9.509  19.382  0.00  0.00    +0.000 N 
ATOM     10  C   UNL     1       0.071   9.498  20.687  0.00  0.00    +0.000 C 
ENDBRANCH   2   9
ENDBRANCH   1   5
BRANCH   1  11
ATOM     11  C   UNL     1       4.620   4.341  18.967  0.00  0.00    +0.000 C 
ATOM     12  O   UNL     1       5.425   3.517  19.399  0.00  0.00    +0.000 OA
ATOM     13  N   UNL     1       3.255   4.080  18.812  0.00  0.00    +0.000 N 
ATOM     14  H   UNL     1       2.706   4.792  18.347  0.00  0.00    +0.000 HD
BRANCH  13  15
ATOM     15  C   UNL     1       2.643   2.740  18.883  0.00  0.00    +0.000 C 
ATOM     16  C   UNL     1       3.419   1.717  18.043  0.00  0.00    +0.000 C 
ATOM     17  C   UNL     1       2.673   2.266  20.351  0.00  0.00    +0.000 C 
ATOM     18  C   UNL     1       1.173   2.798  18.436  0.00  0.00    +0.000 C 
ENDBRANCH  13  15
ENDBRANCH   1  11
BRANCH   1  19
ATOM     19  N   UNL     1       5.782   5.706  17.148  0.00  0.00    +0.000 N 
ATOM     20  C   UNL     1       5.310   5.039  15.991  0.00  0.00    +0.000 C 
ATOM     21  O   UNL     1       4.171   4.617  15.864  0.00  0.00    +0.000 OA
BRANCH  20  22
ATOM     22  C   UNL     1       6.229   4.803  14.852  0.00  0.00    +0.000 A 
ATOM     23  C   UNL     1       5.946   3.885  13.844  0.00  0.00    +0.000 A 
ATOM     24  S   UNL     1       7.187   3.985  12.671  0.00  0.00    +0.000 S 
ATOM     25  N   UNL     1       8.000   5.182  13.503  0.00  0.00    +0.000 NA
ATOM     26  N   UNL     1       7.396   5.528  14.626  0.00  0.00    +0.000 NA
ENDBRANCH  20  22
BRANCH  19  27
ATOM     27  C   UNL     1       7.109   6.302  17.161  0.00  0.00    +0.000 C 
ATOM     28  C   UNL     1       7.250   7.784  17.441  0.00  0.00    +0.000 C 
ATOM     29  C   UNL     1       7.836   6.791  18.389  0.00  0.00    +0.000 C 
ENDBRANCH  19  27
ENDBRANCH   1  19
TORSDOF 7
ENDMDL
MODEL 2
REMARK VINA RESULT:      -6.9      5.434      9.534
REMARK  Name = 
REMARK  12 active torsions:
REMARK  status: ('A' for Active; 'I' for Inactive)
REMARK    1  A    between atoms: C_1  and  N_2
REMARK    2  A    between atoms: N_2  and  C_3
REMARK    3  A    between atoms: N_2  and  C_4
REMARK    4  A    between atoms: C_7  and  C_8
REMARK    5  A    between atoms: C_8  and  C_9
REMARK    6  A    between atoms: C_8  and  N_16
REMARK    7  A    between atoms: N_11  and  C_12
REMARK    8  A    between atoms: C_12  and  C_13
REMARK    9  A    between atoms: C_12  and  C_14
REMARK   10  A    between atoms: C_12  and  C_15
REMARK   11  A    between atoms: N_16  and  C_24
REMARK   12  A    between atoms: C_17  and  C_19
REMARK                            x       y       z     vdW  Elec       q    Type
REMARK                         _______ _______ _______ _____ _____    ______ ____
ROOT
ATOM      1  C   UNL     1       0.432  11.604  18.768  0.00  0.00    +0.000 C 
ENDROOT
BRANCH   1   5
ATOM      2  C   UNL     1       2.187   7.622  19.355  0.00  0.00    +0.000 A 
ATOM      3  C   UNL     1       2.166   8.241  18.097  0.00  0.00    +0.000 A 
ATOM      4  C   UNL     1       1.618   9.521  17.911  0.00  0.00    +0.000 A 
ATOM      5  C   UNL     1       1.000  10.201  18.970  0.00  0.00    +0.000 A 
ATOM      6  C   UNL     1       0.816   9.490  20.155  0.00  0.00    +0.000 A 
ATOM      7  C   UNL     1       1.439   8.255  20.358  0.00  0.00    +0.000 A 
BRANCH   2   9
ATOM      8  C   UNL     1       3.766   5.978  18.525  0.00  0.00    +0.000 C 
ATOM      9  N   UNL     1       2.888   6.429  19.614  0.00  0.00    +0.000 N 
ATOM     10  C   UNL     1       2.174   5.350  20.298  0.00  0.00    +0.000 C 
ENDBRANCH   2   9
ENDBRANCH   1   5
BRANCH   1  11
ATOM     11  C   UNL     1      -1.123  11.460  18.645  0.00  0.00    +0.000 C 
ATOM     12  O   UNL     1      -1.864  11.429  19.626  0.00  0.00    +0.000 OA
ATOM     13  N   UNL     1      -1.572  11.305  17.330  0.00  0.00    +0.000 N 
ATOM     14  H   UNL     1      -0.863  11.239  16.612  0.00  0.00    +0.000 HD
BRANCH  13  15
ATOM     15  C   UNL     1      -2.916  10.827  16.955  0.00  0.00    +0.000 C 
ATOM     16  C   UNL     1      -4.005  11.840  17.334  0.00  0.00    +0.000 C 
ATOM     17  C   UNL     1      -2.959  10.638  15.425  0.00  0.00    +0.000 C 
ATOM     18  C   UNL     1      -3.201   9.464  17.608  0.00  0.00    +0.000 C 
ENDBRANCH  13  15
ENDBRANCH   1  11
BRANCH   1  19
ATOM     19  N   UNL     1       0.831  12.741  19.679  0.00  0.00    +0.000 N 
ATOM     20  C   UNL     1       0.497  12.832  21.053  0.00  0.00    +0.000 C 
ATOM     21  O   UNL     1       0.036  11.908  21.705  0.00  0.00    +0.000 OA
BRANCH  20  22
ATOM     22  C   UNL     1       0.686  14.114  21.772  0.00  0.00    +0.000 A 
ATOM     23  C   UNL     1      -0.380  14.938  22.120  0.00  0.00    +0.000 A 
ATOM     24  S   UNL     1       0.236  16.253  23.023  0.00  0.00    +0.000 S 
ATOM     25  N   UNL     1       1.808  15.700  22.925  0.00  0.00    +0.000 NA
ATOM     26  N   UNL     1       1.913  14.569  22.249  0.00  0.00    +0.000 NA
ENDBRANCH  20  22
BRANCH  19  27
ATOM     27  C   UNL     1       1.507  13.844  19.014  0.00  0.00    +0.000 C 
ATOM     28  C   UNL     1       3.022  13.882  19.000  0.00  0.00    +0.000 C 
ATOM     29  C   UNL     1       2.271  13.747  17.716  0.00  0.00    +0.000 C 
ENDBRANCH  19  27
ENDBRANCH   1  19
TORSDOF 7
ENDMDL
MODEL 3
REMARK VINA RESULT:      -6.8      5.478      9.426
REMARK  Name = 
REMARK  12 active torsions:
REMARK  status: ('A' for Active; 'I' for Inactive)
REMARK    1  A    between atoms: C_1  and  N_2
REMARK    2  A    between atoms: N_2  and  C_3
REMARK    3  A    between atoms: N_2  and  C_4
REMARK    4  A    between atoms: C_7  and  C_8
REMARK    5  A    between atoms: C_8  and  C_9
REMARK    6  A    between atoms: C_8  and  N_16
REMARK    7  A    between atoms: N_11  and  C_12
REMARK    8  A    between atoms: C_12  and  C_13
REMARK    9  A    between atoms: C_12  and  C_14
REMARK   10  A    between atoms: C_12  and  C_15
REMARK   11  A    between atoms: N_16  and  C_24
REMARK   12  A    between atoms: C_17  and  C_19
REMARK                            x       y       z     vdW  Elec       q    Type
REMARK                         _______ _______ _______ _____ _____    ______ ____
ROOT
ATOM      1  C   UNL     1       0.543  11.535  18.801  0.00  0.00    +0.000 C 
ENDROOT
BRANCH   1   5
ATOM      2  C   UNL     1       2.114   7.478  19.401  0.00  0.00    +0.000 A 
ATOM      3  C   UNL     1       1.500   8.193  20.439  0.00  0.00    +0.000 A 
ATOM      4  C   UNL     1       0.984   9.485  20.244  0.00  0.00    +0.000 A 
ATOM      5  C   UNL     1       1.131  10.142  19.015  0.00  0.00    +0.000 A 
ATOM      6  C   UNL     1       1.942   9.526  18.063  0.00  0.00    +0.000 A 
ATOM      7  C   UNL     1       2.377   8.207  18.232  0.00  0.00    +0.000 A 
BRANCH   2   9
ATOM      8  C   UNL     1       1.855   5.404  20.631  0.00  0.00    +0.000 C 
ATOM      9  N   UNL     1       2.474   6.122  19.507  0.00  0.00    +0.000 N 
ATOM     10  C   UNL     1       3.870   5.762  19.259  0.00  0.00    +0.000 C 
ENDBRANCH   2   9
ENDBRANCH   1   5
BRANCH   1  11
ATOM     11  C   UNL     1      -1.013  11.375  18.727  0.00  0.00    +0.000 C 
ATOM     12  O   UNL     1      -1.712  11.233  19.729  0.00  0.00    +0.000 OA
ATOM     13  N   UNL     1      -1.514  11.343  17.423  0.00  0.00    +0.000 N 
ATOM     14  H   UNL     1      -0.835  11.362  16.674  0.00  0.00    +0.000 HD
BRANCH  13  15
ATOM     15  C   UNL     1      -2.866  10.880  17.056  0.00  0.00    +0.000 C 
ATOM     16  C   UNL     1      -3.141   9.463  17.576  0.00  0.00    +0.000 C 
ATOM     17  C   UNL     1      -3.900  11.828  17.697  0.00  0.00    +0.000 C 
ATOM     18  C   UNL     1      -3.055  10.938  15.530  0.00  0.00    +0.000 C 
ENDBRANCH  13  15
ENDBRANCH   1  11
BRANCH   1  19
ATOM     19  N   UNL     1       0.958  12.694  19.677  0.00  0.00    +0.000 N 
ATOM     20  C   UNL     1       0.634  12.828  21.050  0.00  0.00    +0.000 C 
ATOM     21  O   UNL     1       0.168  11.927  21.731  0.00  0.00    +0.000 OA
BRANCH  20  22
ATOM     22  C   UNL     1       0.838  14.128  21.731  0.00  0.00    +0.000 A 
ATOM     23  C   UNL     1      -0.219  14.973  22.058  0.00  0.00    +0.000 A 
ATOM     24  S   UNL     1       0.415  16.307  22.920  0.00  0.00    +0.000 S 
ATOM     25  N   UNL     1       1.980  15.735  22.833  0.00  0.00    +0.000 NA
ATOM     26  N   UNL     1       2.071  14.584  22.190  0.00  0.00    +0.000 NA
ENDBRANCH  20  22
BRANCH  19  27
ATOM     27  C   UNL     1       1.640  13.771  18.977  0.00  0.00    +0.000 C 
ATOM     28  C   UNL     1       3.154  13.788  18.941  0.00  0.00    +0.000 C 
ATOM     29  C   UNL     1       2.384  13.633  17.671  0.00  0.00    +0.000 C 
ENDBRANCH  19  27
ENDBRANCH   1  19
TORSDOF 7
ENDMDL
MODEL 4
REMARK VINA RESULT:      -6.7      5.382      9.427
REMARK  Name = 
REMARK  12 active torsions:
REMARK  status: ('A' for Active; 'I' for Inactive)
REMARK    1  A    between atoms: C_1  and  N_2
REMARK    2  A    between atoms: N_2  and  C_3
REMARK    3  A    between atoms: N_2  and  C_4
REMARK    4  A    between atoms: C_7  and  C_8
REMARK    5  A    between atoms: C_8  and  C_9
REMARK    6  A    between atoms: C_8  and  N_16
REMARK    7  A    between atoms: N_11  and  C_12
REMARK    8  A    between atoms: C_12  and  C_13
REMARK    9  A    between atoms: C_12  and  C_14
REMARK   10  A    between atoms: C_12  and  C_15
REMARK   11  A    between atoms: N_16  and  C_24
REMARK   12  A    between atoms: C_17  and  C_19
REMARK                            x       y       z     vdW  Elec       q    Type
REMARK                         _______ _______ _______ _____ _____    ______ ____
ROOT
ATOM      1  C   UNL     1       0.356  11.237  18.665  0.00  0.00    +0.000 C 
ENDROOT
BRANCH   1   5
ATOM      2  C   UNL     1       2.256   7.351  19.419  0.00  0.00    +0.000 A 
ATOM      3  C   UNL     1       1.677   8.103  20.452  0.00  0.00    +0.000 A 
ATOM      4  C   UNL     1       1.056   9.339  20.209  0.00  0.00    +0.000 A 
ATOM      5  C   UNL     1       1.057   9.906  18.927  0.00  0.00    +0.000 A 
ATOM      6  C   UNL     1       1.831   9.272  17.956  0.00  0.00    +0.000 A 
ATOM      7  C   UNL     1       2.371   8.002  18.182  0.00  0.00    +0.000 A 
BRANCH   2   9
ATOM      8  C   UNL     1       3.056   5.327  18.348  0.00  0.00    +0.000 C 
ATOM      9  N   UNL     1       2.719   6.033  19.592  0.00  0.00    +0.000 N 
ATOM     10  C   UNL     1       2.055   5.200  20.595  0.00  0.00    +0.000 C 
ENDBRANCH   2   9
ENDBRANCH   1   5
BRANCH   1  11
ATOM     11  C   UNL     1      -1.179  10.942  18.574  0.00  0.00    +0.000 C 
ATOM     12  O   UNL     1      -1.796  10.364  19.468  0.00  0.00    +0.000 OA
ATOM     13  N   UNL     1      -1.758  11.335  17.364  0.00  0.00    +0.000 N 
ATOM     14  H   UNL     1      -1.133  11.704  16.659  0.00  0.00    +0.000 HD
BRANCH  13  15
ATOM     15  C   UNL     1      -3.080  10.890  16.884  0.00  0.00    +0.000 C 
ATOM     16  C   UNL     1      -4.206  11.792  17.406  0.00  0.00    +0.000 C 
ATOM     17  C   UNL     1      -3.092  10.965  15.342  0.00  0.00    +0.000 C 
ATOM     18  C   UNL     1      -3.331   9.428  17.287  0.00  0.00    +0.000 C 
ENDBRANCH  13  15
ENDBRANCH   1  11
BRANCH   1  19
ATOM     19  N   UNL     1       0.656  12.452  19.511  0.00  0.00    +0.000 N 
ATOM     20  C   UNL     1       0.159  12.669  20.820  0.00  0.00    +0.000 C 
ATOM     21  O   UNL     1      -0.391  11.809  21.491  0.00  0.00    +0.000 OA
BRANCH  20  22
ATOM     22  C   UNL     1       0.275  14.011  21.438  0.00  0.00    +0.000 A 
ATOM     23  C   UNL     1      -0.713  14.981  21.304  0.00  0.00    +0.000 A 
ATOM     24  S   UNL     1      -0.258  16.337  22.243  0.00  0.00    +0.000 S 
ATOM     25  N   UNL     1       1.154  15.614  22.764  0.00  0.00    +0.000 NA
ATOM     26  N   UNL     1       1.316  14.396  22.278  0.00  0.00    +0.000 NA
ENDBRANCH  20  22
BRANCH  19  27
ATOM     27  C   UNL     1       1.423  13.488  18.837  0.00  0.00    +0.000 C 
ATOM     28  C   UNL     1       2.893  13.649  19.162  0.00  0.00    +0.000 C 
ATOM     29  C   UNL     1       2.478  13.251  17.785  0.00  0.00    +0.000 C 
ENDBRANCH  19  27
ENDBRANCH   1  19
TORSDOF 7
ENDMDL
MODEL 5
REMARK VINA RESULT:      -6.7      0.481      1.433
REMARK  Name = 
REMARK  12 active torsions:
REMARK  status: ('A' for Active; 'I' for Inactive)
REMARK    1  A    between atoms: C_1  and  N_2
REMARK    2  A    between atoms: N_2  and  C_3
REMARK    3  A    between atoms: N_2  and  C_4
REMARK    4  A    between atoms: C_7  and  C_8
REMARK    5  A    between atoms: C_8  and  C_9
REMARK    6  A    between atoms: C_8  and  N_16
REMARK    7  A    between atoms: N_11  and  C_12
REMARK    8  A    between atoms: C_12  and  C_13
REMARK    9  A    between atoms: C_12  and  C_14
REMARK   10  A    between atoms: C_12  and  C_15
REMARK   11  A    between atoms: N_16  and  C_24
REMARK   12  A    between atoms: C_17  and  C_19
REMARK                            x       y       z     vdW  Elec       q    Type
REMARK                         _______ _______ _______ _____ _____    ______ ____
ROOT
ATOM      1  C   UNL     1       4.978   5.744  18.534  0.00  0.00    +0.000 C 
ENDROOT
BRANCH   1   5
ATOM      2  C   UNL     1       1.691   8.614  19.034  0.00  0.00    +0.000 A 
ATOM      3  C   UNL     1       2.596   8.705  17.966  0.00  0.00    +0.000 A 
ATOM      4  C   UNL     1       3.638   7.779  17.797  0.00  0.00    +0.000 A 
ATOM      5  C   UNL     1       3.860   6.764  18.738  0.00  0.00    +0.000 A 
ATOM      6  C   UNL     1       3.110   6.817  19.913  0.00  0.00    +0.000 A 
ATOM      7  C   UNL     1       2.021   7.685  20.033  0.00  0.00    +0.000 A 
BRANCH   2   9
ATOM      8  C   UNL     1      -0.210   9.263  20.393  0.00  0.00    +0.000 C 
ATOM      9  N   UNL     1       0.532   9.406  19.132  0.00  0.00    +0.000 N 
ATOM     10  C   UNL     1      -0.314   9.530  17.946  0.00  0.00    +0.000 C 
ENDBRANCH   2   9
ENDBRANCH   1   5
BRANCH   1  11
ATOM     11  C   UNL     1       4.417   4.349  18.971  0.00  0.00    +0.000 C 
ATOM     12  O   UNL     1       5.144   3.433  19.353  0.00  0.00    +0.000 OA
ATOM     13  N   UNL     1       3.032   4.226  18.821  0.00  0.00    +0.000 N 
ATOM     14  H   UNL     1       2.550   5.007  18.398  0.00  0.00    +0.000 HD
BRANCH  13  15
ATOM     15  C   UNL     1       2.298   2.947  18.838  0.00  0.00    +0.000 C 
ATOM     16  C   UNL     1       0.854   3.115  18.347  0.00  0.00    +0.000 C 
ATOM     17  C   UNL     1       3.008   1.961  17.888  0.00  0.00    +0.000 C 
ATOM     18  C   UNL     1       2.318   2.338  20.251  0.00  0.00    +0.000 C 
ENDBRANCH  13  15
ENDBRANCH   1  11
BRANCH   1  19
ATOM     19  N   UNL     1       5.734   5.673  17.228  0.00  0.00    +0.000 N 
ATOM     20  C   UNL     1       5.237   5.091  16.036  0.00  0.00    +0.000 C 
ATOM     21  O   UNL     1       4.070   4.773  15.869  0.00  0.00    +0.000 OA
BRANCH  20  22
ATOM     22  C   UNL     1       6.161   4.817  14.911  0.00  0.00    +0.000 A 
ATOM     23  C   UNL     1       5.875   3.879  13.923  0.00  0.00    +0.000 A 
ATOM     24  S   UNL     1       7.126   3.936  12.757  0.00  0.00    +0.000 S 
ATOM     25  N   UNL     1       7.947   5.143  13.566  0.00  0.00    +0.000 NA
ATOM     26  N   UNL     1       7.338   5.523  14.676  0.00  0.00    +0.000 NA
ENDBRANCH  20  22
BRANCH  19  27
ATOM     27  C   UNL     1       7.106   6.153  17.293  0.00  0.00    +0.000 C 
ATOM     28  C   UNL     1       7.363   7.632  17.497  0.00  0.00    +0.000 C 
ATOM     29  C   UNL     1       7.800   6.653  18.536  0.00  0.00    +0.000 C 
ENDBRANCH  19  27
ENDBRANCH   1  19
TORSDOF 7
ENDMDL
MODEL 6
REMARK VINA RESULT:      -6.6      0.728      1.280
REMARK  Name = 
REMARK  12 active torsions:
REMARK  status: ('A' for Active; 'I' for Inactive)
REMARK    1  A    between atoms: C_1  and  N_2
REMARK    2  A    between atoms: N_2  and  C_3
REMARK    3  A    between atoms: N_2  and  C_4
REMARK    4  A    between atoms: C_7  and  C_8
REMARK    5  A    between atoms: C_8  and  C_9
REMARK    6  A    between atoms: C_8  and  N_16
REMARK    7  A    between atoms: N_11  and  C_12
REMARK    8  A    between atoms: C_12  and  C_13
REMARK    9  A    between atoms: C_12  and  C_14
REMARK   10  A    between atoms: C_12  and  C_15
REMARK   11  A    between atoms: N_16  and  C_24
REMARK   12  A    between atoms: C_17  and  C_19
REMARK                            x       y       z     vdW  Elec       q    Type
REMARK                         _______ _______ _______ _____ _____    ______ ____
ROOT
ATOM      1  C   UNL     1       4.885   5.266  18.261  0.00  0.00    +0.000 C 
ENDROOT
BRANCH   1   5
ATOM      2  C   UNL     1       1.894   8.358  19.140  0.00  0.00    +0.000 A 
ATOM      3  C   UNL     1       2.088   7.257  19.986  0.00  0.00    +0.000 A 
ATOM      4  C   UNL     1       3.054   6.275  19.713  0.00  0.00    +0.000 A 
ATOM      5  C   UNL     1       3.816   6.321  18.538  0.00  0.00    +0.000 A 
ATOM      6  C   UNL     1       3.461   7.282  17.592  0.00  0.00    +0.000 A 
ATOM      7  C   UNL     1       2.561   8.304  17.908  0.00  0.00    +0.000 A 
BRANCH   2   9
ATOM      8  C   UNL     1       0.378   9.331  20.765  0.00  0.00    +0.000 C 
ATOM      9  N   UNL     1       1.071   9.450  19.474  0.00  0.00    +0.000 N 
ATOM     10  C   UNL     1       0.264  10.049  18.411  0.00  0.00    +0.000 C 
ENDBRANCH   2   9
ENDBRANCH   1   5
BRANCH   1  11
ATOM     11  C   UNL     1       4.200   3.865  18.403  0.00  0.00    +0.000 C 
ATOM     12  O   UNL     1       4.437   2.932  17.637  0.00  0.00    +0.000 OA
ATOM     13  N   UNL     1       3.257   3.800  19.433  0.00  0.00    +0.000 N 
ATOM     14  H   UNL     1       3.067   4.660  19.931  0.00  0.00    +0.000 HD
BRANCH  13  15
ATOM     15  C   UNL     1       2.246   2.736  19.578  0.00  0.00    +0.000 C 
ATOM     16  C   UNL     1       1.634   2.722  20.985  0.00  0.00    +0.000 C 
ATOM     17  C   UNL     1       1.108   3.000  18.570  0.00  0.00    +0.000 C 
ATOM     18  C   UNL     1       2.862   1.366  19.246  0.00  0.00    +0.000 C 
ENDBRANCH  13  15
ENDBRANCH   1  11
BRANCH   1  19
ATOM     19  N   UNL     1       5.760   5.352  17.032  0.00  0.00    +0.000 N 
ATOM     20  C   UNL     1       5.354   4.997  15.723  0.00  0.00    +0.000 C 
ATOM     21  O   UNL     1       4.195   4.784  15.403  0.00  0.00    +0.000 OA
BRANCH  20  22
ATOM     22  C   UNL     1       6.369   4.845  14.654  0.00  0.00    +0.000 A 
ATOM     23  C   UNL     1       6.213   3.948  13.600  0.00  0.00    +0.000 A 
ATOM     24  S   UNL     1       7.534   4.148  12.532  0.00  0.00    +0.000 S 
ATOM     25  N   UNL     1       8.217   5.356  13.460  0.00  0.00    +0.000 NA
ATOM     26  N   UNL     1       7.511   5.633  14.542  0.00  0.00    +0.000 NA
ENDBRANCH  20  22
BRANCH  19  27
ATOM     27  C   UNL     1       7.141   5.727  17.295  0.00  0.00    +0.000 C 
ATOM     28  C   UNL     1       7.467   7.173  17.611  0.00  0.00    +0.000 C 
ATOM     29  C   UNL     1       7.700   6.118  18.641  0.00  0.00    +0.000 C 
ENDBRANCH  19  27
ENDBRANCH   1  19
TORSDOF 7
ENDMDL
MODEL 7
REMARK VINA RESULT:      -6.5      1.086      1.592
REMARK  Name = 
REMARK  12 active torsions:
REMARK  status: ('A' for Active; 'I' for Inactive)
REMARK    1  A    between atoms: C_1  and  N_2
REMARK    2  A    between atoms: N_2  and  C_3
REMARK    3  A    between atoms: N_2  and  C_4
REMARK    4  A    between atoms: C_7  and  C_8
REMARK    5  A    between atoms: C_8  and  C_9
REMARK    6  A    between atoms: C_8  and  N_16
REMARK    7  A    between atoms: N_11  and  C_12
REMARK    8  A    between atoms: C_12  and  C_13
REMARK    9  A    between atoms: C_12  and  C_14
REMARK   10  A    between atoms: C_12  and  C_15
REMARK   11  A    between atoms: N_16  and  C_24
REMARK   12  A    between atoms: C_17  and  C_19
REMARK                            x       y       z     vdW  Elec       q    Type
REMARK                         _______ _______ _______ _____ _____    ______ ____
ROOT
ATOM      1  C   UNL     1       4.855   5.496  18.221  0.00  0.00    +0.000 C 
ENDROOT
BRANCH   1   5
ATOM      2  C   UNL     1       1.827   8.614  18.848  0.00  0.00    +0.000 A 
ATOM      3  C   UNL     1       2.734   8.669  17.780  0.00  0.00    +0.000 A 
ATOM      4  C   UNL     1       3.693   7.665  17.570  0.00  0.00    +0.000 A 
ATOM      5  C   UNL     1       3.829   6.599  18.470  0.00  0.00    +0.000 A 
ATOM      6  C   UNL     1       3.088   6.670  19.650  0.00  0.00    +0.000 A 
ATOM      7  C   UNL     1       2.077   7.623  19.808  0.00  0.00    +0.000 A 
BRANCH   2   9
ATOM      8  C   UNL     1       0.116   9.515  20.313  0.00  0.00    +0.000 C 
ATOM      9  N   UNL     1       0.740   9.498  18.982  0.00  0.00    +0.000 N 
ATOM     10  C   UNL     1      -0.209   9.590  17.872  0.00  0.00    +0.000 C 
ENDBRANCH   2   9
ENDBRANCH   1   5
BRANCH   1  11
ATOM     11  C   UNL     1       4.123   4.127  18.427  0.00  0.00    +0.000 C 
ATOM     12  O   UNL     1       3.035   3.875  17.912  0.00  0.00    +0.000 OA
ATOM     13  N   UNL     1       4.788   3.258  19.297  0.00  0.00    +0.000 N 
ATOM     14  H   UNL     1       5.621   3.613  19.746  0.00  0.00    +0.000 HD
BRANCH  13  15
ATOM     15  C   UNL     1       4.179   2.067  19.919  0.00  0.00    +0.000 C 
ATOM     16  C   UNL     1       3.734   1.042  18.867  0.00  0.00    +0.000 C 
ATOM     17  C   UNL     1       5.234   1.391  20.819  0.00  0.00    +0.000 C 
ATOM     18  C   UNL     1       2.992   2.475  20.807  0.00  0.00    +0.000 C 
ENDBRANCH  13  15
ENDBRANCH   1  11
BRANCH   1  19
ATOM     19  N   UNL     1       5.716   5.503  16.980  0.00  0.00    +0.000 N 
ATOM     20  C   UNL     1       5.302   5.043  15.706  0.00  0.00    +0.000 C 
ATOM     21  O   UNL     1       4.143   4.788  15.417  0.00  0.00    +0.000 OA
BRANCH  20  22
ATOM     22  C   UNL     1       6.308   4.826  14.639  0.00  0.00    +0.000 A 
ATOM     23  C   UNL     1       6.108   3.923  13.599  0.00  0.00    +0.000 A 
ATOM     24  S   UNL     1       7.437   4.044  12.528  0.00  0.00    +0.000 S 
ATOM     25  N   UNL     1       8.178   5.230  13.439  0.00  0.00    +0.000 NA
ATOM     26  N   UNL     1       7.486   5.558  14.516  0.00  0.00    +0.000 NA
ENDBRANCH  20  22
BRANCH  19  27
ATOM     27  C   UNL     1       7.093   5.920  17.197  0.00  0.00    +0.000 C 
ATOM     28  C   UNL     1       7.384   7.369  17.529  0.00  0.00    +0.000 C 
ATOM     29  C   UNL     1       7.691   6.303  18.528  0.00  0.00    +0.000 C 
ENDBRANCH  19  27
ENDBRANCH   1  19
TORSDOF 7
ENDMDL
MODEL 8
REMARK VINA RESULT:      -6.5      2.525      5.362
REMARK  Name = 
REMARK  12 active torsions:
REMARK  status: ('A' for Active; 'I' for Inactive)
REMARK    1  A    between atoms: C_1  and  N_2
REMARK    2  A    between atoms: N_2  and  C_3
REMARK    3  A    between atoms: N_2  and  C_4
REMARK    4  A    between atoms: C_7  and  C_8
REMARK    5  A    between atoms: C_8  and  C_9
REMARK    6  A    between atoms: C_8  and  N_16
REMARK    7  A    between atoms: N_11  and  C_12
REMARK    8  A    between atoms: C_12  and  C_13
REMARK    9  A    between atoms: C_12  and  C_14
REMARK   10  A    between atoms: C_12  and  C_15
REMARK   11  A    between atoms: N_16  and  C_24
REMARK   12  A    between atoms: C_17  and  C_19
REMARK                            x       y       z     vdW  Elec       q    Type
REMARK                         _______ _______ _______ _____ _____    ______ ____
ROOT
ATOM      1  C   UNL     1       2.959   4.370  18.209  0.00  0.00    +0.000 C 
ENDROOT
BRANCH   1   5
ATOM      2  C   UNL     1       1.640   8.289  19.684  0.00  0.00    +0.000 A 
ATOM      3  C   UNL     1       2.096   8.110  18.370  0.00  0.00    +0.000 A 
ATOM      4  C   UNL     1       2.504   6.854  17.893  0.00  0.00    +0.000 A 
ATOM      5  C   UNL     1       2.541   5.738  18.741  0.00  0.00    +0.000 A 
ATOM      6  C   UNL     1       2.312   5.968  20.097  0.00  0.00    +0.000 A 
ATOM      7  C   UNL     1       1.823   7.198  20.546  0.00  0.00    +0.000 A 
BRANCH   2   9
ATOM      8  C   UNL     1       0.426   9.400  21.467  0.00  0.00    +0.000 C 
ATOM      9  N   UNL     1       1.052   9.484  20.139  0.00  0.00    +0.000 N 
ATOM     10  C   UNL     1       0.306  10.292  19.173  0.00  0.00    +0.000 C 
ENDBRANCH   2   9
ENDBRANCH   1   5
BRANCH   1  11
ATOM     11  C   UNL     1       4.026   4.614  17.089  0.00  0.00    +0.000 C 
ATOM     12  O   UNL     1       4.065   3.949  16.055  0.00  0.00    +0.000 OA
ATOM     13  N   UNL     1       4.960   5.604  17.407  0.00  0.00    +0.000 N 
ATOM     14  H   UNL     1       4.895   6.011  18.330  0.00  0.00    +0.000 HD
BRANCH  13  15
ATOM     15  C   UNL     1       6.241   5.806  16.703  0.00  0.00    +0.000 C 
ATOM     16  C   UNL     1       7.140   4.566  16.792  0.00  0.00    +0.000 C 
ATOM     17  C   UNL     1       5.943   6.068  15.211  0.00  0.00    +0.000 C 
ATOM     18  C   UNL     1       6.969   7.040  17.262  0.00  0.00    +0.000 C 
ENDBRANCH  13  15
ENDBRANCH   1  11
BRANCH   1  19
ATOM     19  N   UNL     1       3.364   3.261  19.153  0.00  0.00    +0.000 N 
ATOM     20  C   UNL     1       4.667   3.084  19.681  0.00  0.00    +0.000 C 
ATOM     21  O   UNL     1       5.552   3.922  19.606  0.00  0.00    +0.000 OA
BRANCH  20  22
ATOM     22  C   UNL     1       5.020   1.813  20.355  0.00  0.00    +0.000 A 
ATOM     23  C   UNL     1       5.046   0.595  19.683  0.00  0.00    +0.000 A 
ATOM     24  S   UNL     1       5.600  -0.603  20.772  0.00  0.00    +0.000 S 
ATOM     25  N   UNL     1       5.779   0.489  22.021  0.00  0.00    +0.000 NA
ATOM     26  N   UNL     1       5.449   1.722  21.677  0.00  0.00    +0.000 NA
ENDBRANCH  20  22
BRANCH  19  27
ATOM     27  C   UNL     1       2.328   2.273  19.410  0.00  0.00    +0.000 C 
ATOM     28  C   UNL     1       1.301   2.543  20.490  0.00  0.00    +0.000 C 
ATOM     29  C   UNL     1       0.867   2.428  19.066  0.00  0.00    +0.000 C 
ENDBRANCH  19  27
ENDBRANCH   1  19
TORSDOF 7
ENDMDL
MODEL 9
REMARK VINA RESULT:      -6.4      5.709      9.958
REMARK  Name = 
REMARK  12 active torsions:
REMARK  status: ('A' for Active; 'I' for Inactive)
REMARK    1  A    between atoms: C_1  and  N_2
REMARK    2  A    between atoms: N_2  and  C_3
REMARK    3  A    between atoms: N_2  and  C_4
REMARK    4  A    between atoms: C_7  and  C_8
REMARK    5  A    between atoms: C_8  and  C_9
REMARK    6  A    between atoms: C_8  and  N_16
REMARK    7  A    between atoms: N_11  and  C_12
REMARK    8  A    between atoms: C_12  and  C_13
REMARK    9  A    between atoms: C_12  and  C_14
REMARK   10  A    between atoms: C_12  and  C_15
REMARK   11  A    between atoms: N_16  and  C_24
REMARK   12  A    between atoms: C_17  and  C_19
REMARK                            x       y       z     vdW  Elec       q    Type
REMARK                         _______ _______ _______ _____ _____    ______ ____
ROOT
ATOM      1  C   UNL     1       0.566  11.977  19.207  0.00  0.00    +0.000 C 
ENDROOT
BRANCH   1   5
ATOM      2  C   UNL     1       1.971   7.829  19.531  0.00  0.00    +0.000 A 
ATOM      3  C   UNL     1       1.978   8.518  18.309  0.00  0.00    +0.000 A 
ATOM      4  C   UNL     1       1.543   9.849  18.208  0.00  0.00    +0.000 A 
ATOM      5  C   UNL     1       1.011  10.520  19.317  0.00  0.00    +0.000 A 
ATOM      6  C   UNL     1       0.790   9.763  20.467  0.00  0.00    +0.000 A 
ATOM      7  C   UNL     1       1.305   8.468  20.587  0.00  0.00    +0.000 A 
BRANCH   2   9
ATOM      8  C   UNL     1       3.228   6.022  18.512  0.00  0.00    +0.000 C 
ATOM      9  N   UNL     1       2.568   6.567  19.707  0.00  0.00    +0.000 N 
ATOM     10  C   UNL     1       1.845   5.572  20.501  0.00  0.00    +0.000 C 
ENDBRANCH   2   9
ENDBRANCH   1   5
BRANCH   1  11
ATOM     11  C   UNL     1      -0.662  12.013  18.236  0.00  0.00    +0.000 C 
ATOM     12  O   UNL     1      -0.924  12.991  17.537  0.00  0.00    +0.000 OA
ATOM     13  N   UNL     1      -1.459  10.866  18.292  0.00  0.00    +0.000 N 
ATOM     14  H   UNL     1      -1.207  10.170  18.981  0.00  0.00    +0.000 HD
BRANCH  13  15
ATOM     15  C   UNL     1      -2.827  10.768  17.748  0.00  0.00    +0.000 C 
ATOM     16  C   UNL     1      -3.773  11.782  18.405  0.00  0.00    +0.000 C 
ATOM     17  C   UNL     1      -2.776  11.077  16.238  0.00  0.00    +0.000 C 
ATOM     18  C   UNL     1      -3.369   9.339  17.920  0.00  0.00    +0.000 C 
ENDBRANCH  13  15
ENDBRANCH   1  11
BRANCH   1  19
ATOM     19  N   UNL     1       0.343  12.816  20.443  0.00  0.00    +0.000 N 
ATOM     20  C   UNL     1      -0.775  12.703  21.306  0.00  0.00    +0.000 C 
ATOM     21  O   UNL     1      -1.572  11.778  21.271  0.00  0.00    +0.000 OA
BRANCH  20  22
ATOM     22  C   UNL     1      -1.037  13.759  22.312  0.00  0.00    +0.000 A 
ATOM     23  C   UNL     1      -1.905  14.820  22.070  0.00  0.00    +0.000 A 
ATOM     24  S   UNL     1      -2.017  15.752  23.501  0.00  0.00    +0.000 S 
ATOM     25  N   UNL     1      -0.970  14.757  24.338  0.00  0.00    +0.000 NA
ATOM     26  N   UNL     1      -0.529  13.747  23.609  0.00  0.00    +0.000 NA
ENDBRANCH  20  22
BRANCH  19  27
ATOM     27  C   UNL     1       1.322  13.872  20.646  0.00  0.00    +0.000 C 
ATOM     28  C   UNL     1       2.726  13.505  21.080  0.00  0.00    +0.000 C 
ATOM     29  C   UNL     1       2.505  14.151  19.753  0.00  0.00    +0.000 C 
ENDBRANCH  19  27
ENDBRANCH   1  19
TORSDOF 7
ENDMDL
