MODEL 1
REMARK VINA RESULT:      -8.2      0.000      0.000
REMARK  Name = 
REMARK  14 active torsions:
REMARK  status: ('A' for Active; 'I' for Inactive)
REMARK    1  A    between atoms: C_1  and  O_2
REMARK    2  A    between atoms: O_2  and  C_3
REMARK    3  A    between atoms: C_4  and  O_5
REMARK    4  A    between atoms: C_6  and  O_7
REMARK    5  A    between atoms: C_8  and  O_9
REMARK    6  A    between atoms: O_9  and  C_10
REMARK    7  A    between atoms: C_13  and  C_14
REMARK    8  A    between atoms: C_14  and  C_15
REMARK    9  A    between atoms: C_15  and  N_16
REMARK   10  A    between atoms: C_17  and  C_18
REMARK   11  A    between atoms: C_20  and  C_21
REMARK   12  A    between atoms: C_24  and  C_25
REMARK   13  A    between atoms: C_33  and  C_34
REMARK   14  A    between atoms: C_33  and  C_35
REMARK                            x       y       z     vdW  Elec       q    Type
REMARK                         _______ _______ _______ _____ _____    ______ ____
ROOT
ATOM      1  C   UNL     1       1.320   9.377  19.531  0.00  0.00    +0.000 A 
ATOM      2  C   UNL     1       0.811   8.811  20.684  0.00  0.00    +0.000 A 
ATOM      3  C   UNL     1       1.131   7.496  21.009  0.00  0.00    +0.000 A 
ATOM      4  C   UNL     1       1.963   6.691  20.198  0.00  0.00    +0.000 A 
ATOM      5  C   UNL     1       2.446   7.237  18.971  0.00  0.00    +0.000 A 
ATOM      6  C   UNL     1       2.088   8.583  18.680  0.00  0.00    +0.000 A 
ENDROOT
BRANCH   5   7
ATOM      7  C   UNL     1       3.350   6.549  17.998  0.00  0.00    +0.000 A 
ATOM      8  C   UNL     1       3.214   5.200  17.638  0.00  0.00    +0.000 A 
ATOM      9  C   UNL     1       4.162   4.550  16.831  0.00  0.00    +0.000 A 
ATOM     10  C   UNL     1       5.232   5.257  16.274  0.00  0.00    +0.000 A 
ATOM     11  C   UNL     1       5.299   6.634  16.493  0.00  0.00    +0.000 A 
ATOM     12  C   UNL     1       4.393   7.256  17.358  0.00  0.00    +0.000 A 
BRANCH  10  13
ATOM     13  C   UNL     1       6.301   4.572  15.463  0.00  0.00    +0.000 C 
ATOM     14  F   UNL     1       5.984   3.297  15.105  0.00  0.00    +0.000 F 
ATOM     15  F   UNL     1       6.583   5.229  14.307  0.00  0.00    +0.000 F 
ATOM     16  F   UNL     1       7.484   4.478  16.139  0.00  0.00    +0.000 F 
ENDBRANCH  10  13
ENDBRANCH   5   7
BRANCH   1  17
ATOM     17  O   UNL     1       1.206  10.693  19.164  0.00  0.00    +0.000 OA
BRANCH  17  21
ATOM     18  C   UNL     1      -0.988  13.983  20.484  0.00  0.00    +0.000 C 
ATOM     19  C   UNL     1       0.460  13.911  21.005  0.00  0.00    +0.000 C 
ATOM     20  C   UNL     1       1.277  12.894  20.187  0.00  0.00    +0.000 C 
ATOM     21  C   UNL     1       0.541  11.542  20.107  0.00  0.00    +0.000 C 
ATOM     22  O   UNL     1      -0.820  11.665  19.713  0.00  0.00    +0.000 OA
ATOM     23  C   UNL     1      -1.629  12.559  20.482  0.00  0.00    +0.000 C 
ATOM     24  C   UNL     1      -1.862  11.970  21.888  0.00  0.00    +0.000 C 
ATOM     25  C   UNL     1      -2.993  12.538  19.776  0.00  0.00    +0.000 C 
BRANCH  18  27
ATOM     26  C   UNL     1      -0.480  15.887  19.060  0.00  0.00    +0.000 C 
ATOM     27  O   UNL     1      -0.844  14.521  19.154  0.00  0.00    +0.000 OA
ENDBRANCH  18  27
BRANCH  19  28
ATOM     28  O   UNL     1       0.514  13.622  22.409  0.00  0.00    +0.000 OA
ATOM     29  H   UNL     1       0.524  14.468  22.897  0.00  0.00    +0.000 HD
ENDBRANCH  19  28
BRANCH  20  30
ATOM     30  O   UNL     1       2.558  12.715  20.836  0.00  0.00    +0.000 OA
ATOM     31  H   UNL     1       2.418  12.179  21.637  0.00  0.00    +0.000 HD
ENDBRANCH  20  30
ENDBRANCH  17  21
ENDBRANCH   1  17
BRANCH   4  32
ATOM     32  C   UNL     1       2.411   5.355  20.798  0.00  0.00    +0.000 C 
BRANCH  32  33
ATOM     33  C   UNL     1       1.392   4.198  20.692  0.00  0.00    +0.000 C 
BRANCH  33  34
ATOM     34  N   UNL     1       1.710   3.208  19.676  0.00  0.00    +0.000 N 
ATOM     35  C   UNL     1       2.833   2.414  19.757  0.00  0.00    +0.000 C 
ATOM     36  C   UNL     1       3.046   1.536  18.553  0.00  0.00    +0.000 C 
ATOM     37  O   UNL     1       3.586   2.394  20.711  0.00  0.00    +0.000 OA
ATOM     38  H   UNL     1       1.264   3.312  18.772  0.00  0.00    +0.000 HD
ENDBRANCH  33  34
ENDBRANCH  32  33
ENDBRANCH   4  32
TORSDOF 10
ENDMDL
MODEL 2
REMARK VINA RESULT:      -8.0      4.713      9.577
REMARK  Name = 
REMARK  14 active torsions:
REMARK  status: ('A' for Active; 'I' for Inactive)
REMARK    1  A    between atoms: C_1  and  O_2
REMARK    2  A    between atoms: O_2  and  C_3
REMARK    3  A    between atoms: C_4  and  O_5
REMARK    4  A    between atoms: C_6  and  O_7
REMARK    5  A    between atoms: C_8  and  O_9
REMARK    6  A    between atoms: O_9  and  C_10
REMARK    7  A    between atoms: C_13  and  C_14
REMARK    8  A    between atoms: C_14  and  C_15
REMARK    9  A    between atoms: C_15  and  N_16
REMARK   10  A    between atoms: C_17  and  C_18
REMARK   11  A    between atoms: C_20  and  C_21
REMARK   12  A    between atoms: C_24  and  C_25
REMARK   13  A    between atoms: C_33  and  C_34
REMARK   14  A    between atoms: C_33  and  C_35
REMARK                            x       y       z     vdW  Elec       q    Type
REMARK                         _______ _______ _______ _____ _____    ______ ____
ROOT
ATOM      1  C   UNL     1       2.256   7.481  19.032  0.00  0.00    +0.000 A 
ATOM      2  C   UNL     1       1.869   6.645  20.062  0.00  0.00    +0.000 A 
ATOM      3  C   UNL     1       1.062   7.135  21.085  0.00  0.00    +0.000 A 
ATOM      4  C   UNL     1       0.615   8.476  21.128  0.00  0.00    +0.000 A 
ATOM      5  C   UNL     1       1.057   9.369  20.106  0.00  0.00    +0.000 A 
ATOM      6  C   UNL     1       1.884   8.824  19.086  0.00  0.00    +0.000 A 
ENDROOT
BRANCH   5   7
ATOM      7  C   UNL     1       0.674  10.810  19.972  0.00  0.00    +0.000 A 
ATOM      8  C   UNL     1      -0.534  11.239  19.403  0.00  0.00    +0.000 A 
ATOM      9  C   UNL     1      -0.798  12.597  19.166  0.00  0.00    +0.000 A 
ATOM     10  C   UNL     1       0.100  13.585  19.581  0.00  0.00    +0.000 A 
ATOM     11  C   UNL     1       1.236  13.188  20.290  0.00  0.00    +0.000 A 
ATOM     12  C   UNL     1       1.526  11.829  20.454  0.00  0.00    +0.000 A 
BRANCH  10  13
ATOM     13  C   UNL     1      -0.125  15.043  19.279  0.00  0.00    +0.000 C 
ATOM     14  F   UNL     1       0.995  15.807  19.403  0.00  0.00    +0.000 F 
ATOM     15  F   UNL     1      -0.585  15.251  18.016  0.00  0.00    +0.000 F 
ATOM     16  F   UNL     1      -1.048  15.608  20.112  0.00  0.00    +0.000 F 
ENDBRANCH  10  13
ENDBRANCH   5   7
BRANCH   1  17
ATOM     17  O   UNL     1       2.922   7.099  17.896  0.00  0.00    +0.000 OA
BRANCH  17  21
ATOM     18  C   UNL     1       6.182   4.718  16.852  0.00  0.00    +0.000 C 
ATOM     19  C   UNL     1       4.900   3.947  17.223  0.00  0.00    +0.000 C 
ATOM     20  C   UNL     1       3.685   4.893  17.229  0.00  0.00    +0.000 C 
ATOM     21  C   UNL     1       3.970   6.142  18.086  0.00  0.00    +0.000 C 
ATOM     22  O   UNL     1       5.208   6.768  17.774  0.00  0.00    +0.000 OA
ATOM     23  C   UNL     1       6.372   5.937  17.811  0.00  0.00    +0.000 C 
ATOM     24  C   UNL     1       6.687   5.547  19.269  0.00  0.00    +0.000 C 
ATOM     25  C   UNL     1       7.511   6.860  17.357  0.00  0.00    +0.000 C 
BRANCH  18  27
ATOM     26  C   UNL     1       6.423   4.253  14.478  0.00  0.00    +0.000 C 
ATOM     27  O   UNL     1       5.949   5.126  15.488  0.00  0.00    +0.000 OA
ENDBRANCH  18  27
BRANCH  19  28
ATOM     28  O   UNL     1       5.032   3.251  18.471  0.00  0.00    +0.000 OA
ATOM     29  H   UNL     1       5.214   3.908  19.170  0.00  0.00    +0.000 HD
ENDBRANCH  19  28
BRANCH  20  30
ATOM     30  O   UNL     1       2.554   4.174  17.775  0.00  0.00    +0.000 OA
ATOM     31  H   UNL     1       1.975   4.817  18.222  0.00  0.00    +0.000 HD
ENDBRANCH  20  30
ENDBRANCH  17  21
ENDBRANCH   1  17
BRANCH   4  32
ATOM     32  C   UNL     1      -0.448   8.805  22.179  0.00  0.00    +0.000 C 
BRANCH  32  33
ATOM     33  C   UNL     1      -0.253  10.140  22.933  0.00  0.00    +0.000 C 
BRANCH  33  34
ATOM     34  N   UNL     1      -1.425  11.001  22.945  0.00  0.00    +0.000 N 
ATOM     35  C   UNL     1      -1.327  12.364  23.117  0.00  0.00    +0.000 C 
ATOM     36  C   UNL     1      -2.657  13.063  23.215  0.00  0.00    +0.000 C 
ATOM     37  O   UNL     1      -0.274  12.972  23.168  0.00  0.00    +0.000 OA
ATOM     38  H   UNL     1      -2.321  10.561  23.121  0.00  0.00    +0.000 HD
ENDBRANCH  33  34
ENDBRANCH  32  33
ENDBRANCH   4  32
TORSDOF 10
ENDMDL
MODEL 3
REMARK VINA RESULT:      -7.9      5.353     10.099
REMARK  Name = 
REMARK  14 active torsions:
REMARK  status: ('A' for Active; 'I' for Inactive)
REMARK    1  A    between atoms: C_1  and  O_2
REMARK    2  A    between atoms: O_2  and  C_3
REMARK    3  A    between atoms: C_4  and  O_5
REMARK    4  A    between atoms: C_6  and  O_7
REMARK    5  A    between atoms: C_8  and  O_9
REMARK    6  A    between atoms: O_9  and  C_10
REMARK    7  A    between atoms: C_13  and  C_14
REMARK    8  A    between atoms: C_14  and  C_15
REMARK    9  A    between atoms: C_15  and  N_16
REMARK   10  A    between atoms: C_17  and  C_18
REMARK   11  A    between atoms: C_20  and  C_21
REMARK   12  A    between atoms: C_24  and  C_25
REMARK   13  A    between atoms: C_33  and  C_34
REMARK   14  A    between atoms: C_33  and  C_35
REMARK                            x       y       z     vdW  Elec       q    Type
REMARK                         _______ _______ _______ _____ _____    ______ ____
ROOT
ATOM      1  C   UNL     1       2.012   8.072  19.427  0.00  0.00    +0.000 A 
ATOM      2  C   UNL     1       2.444   8.586  18.219  0.00  0.00    +0.000 A 
ATOM      3  C   UNL     1       1.980   9.826  17.789  0.00  0.00    +0.000 A 
ATOM      4  C   UNL     1       1.064  10.599  18.538  0.00  0.00    +0.000 A 
ATOM      5  C   UNL     1       0.558  10.056  19.757  0.00  0.00    +0.000 A 
ATOM      6  C   UNL     1       1.057   8.784  20.152  0.00  0.00    +0.000 A 
ENDROOT
BRANCH   5   7
ATOM      7  C   UNL     1      -0.397  10.731  20.691  0.00  0.00    +0.000 A 
ATOM      8  C   UNL     1      -1.449  11.552  20.259  0.00  0.00    +0.000 A 
ATOM      9  C   UNL     1      -2.238  12.281  21.164  0.00  0.00    +0.000 A 
ATOM     10  C   UNL     1      -2.063  12.136  22.544  0.00  0.00    +0.000 A 
ATOM     11  C   UNL     1      -1.126  11.206  22.996  0.00  0.00    +0.000 A 
ATOM     12  C   UNL     1      -0.295  10.542  22.087  0.00  0.00    +0.000 A 
BRANCH  10  13
ATOM     13  C   UNL     1      -2.847  12.956  23.535  0.00  0.00    +0.000 C 
ATOM     14  F   UNL     1      -3.545  12.208  24.433  0.00  0.00    +0.000 F 
ATOM     15  F   UNL     1      -2.057  13.786  24.268  0.00  0.00    +0.000 F 
ATOM     16  F   UNL     1      -3.771  13.757  22.929  0.00  0.00    +0.000 F 
ENDBRANCH  10  13
ENDBRANCH   5   7
BRANCH   1  17
ATOM     17  O   UNL     1       2.492   6.942  20.036  0.00  0.00    +0.000 OA
BRANCH  17  21
ATOM     18  C   UNL     1       3.223   2.957  19.051  0.00  0.00    +0.000 C 
ATOM     19  C   UNL     1       4.287   3.958  18.562  0.00  0.00    +0.000 C 
ATOM     20  C   UNL     1       4.123   5.312  19.276  0.00  0.00    +0.000 C 
ATOM     21  C   UNL     1       2.666   5.806  19.182  0.00  0.00    +0.000 C 
ATOM     22  O   UNL     1       1.712   4.818  19.554  0.00  0.00    +0.000 OA
ATOM     23  C   UNL     1       1.794   3.563  18.874  0.00  0.00    +0.000 C 
ATOM     24  C   UNL     1       1.362   3.739  17.404  0.00  0.00    +0.000 C 
ATOM     25  C   UNL     1       0.712   2.700  19.539  0.00  0.00    +0.000 C 
BRANCH  18  27
ATOM     26  C   UNL     1       4.642   1.874  20.702  0.00  0.00    +0.000 C 
ATOM     27  O   UNL     1       3.563   2.753  20.438  0.00  0.00    +0.000 OA
ENDBRANCH  18  27
BRANCH  19  28
ATOM     28  O   UNL     1       4.267   4.110  17.135  0.00  0.00    +0.000 OA
ATOM     29  H   UNL     1       4.317   3.223  16.731  0.00  0.00    +0.000 HD
ENDBRANCH  19  28
BRANCH  20  30
ATOM     30  O   UNL     1       5.005   6.268  18.643  0.00  0.00    +0.000 OA
ATOM     31  H   UNL     1       5.722   5.774  18.206  0.00  0.00    +0.000 HD
ENDBRANCH  20  30
ENDBRANCH  17  21
ENDBRANCH   1  17
BRANCH   4  32
ATOM     32  C   UNL     1       0.828  12.033  18.054  0.00  0.00    +0.000 C 
BRANCH  32  33
ATOM     33  C   UNL     1       1.782  13.101  18.634  0.00  0.00    +0.000 C 
BRANCH  33  34
ATOM     34  N   UNL     1       1.193  13.934  19.670  0.00  0.00    +0.000 N 
ATOM     35  C   UNL     1       1.507  13.772  21.001  0.00  0.00    +0.000 C 
ATOM     36  C   UNL     1       0.708  14.651  21.927  0.00  0.00    +0.000 C 
ATOM     37  O   UNL     1       2.361  13.011  21.414  0.00  0.00    +0.000 OA
ATOM     38  H   UNL     1       0.339  14.428  19.438  0.00  0.00    +0.000 HD
ENDBRANCH  33  34
ENDBRANCH  32  33
ENDBRANCH   4  32
TORSDOF 10
ENDMDL
MODEL 4
REMARK VINA RESULT:      -7.9      1.091      1.428
REMARK  Name = 
REMARK  14 active torsions:
REMARK  status: ('A' for Active; 'I' for Inactive)
REMARK    1  A    between atoms: C_1  and  O_2
REMARK    2  A    between atoms: O_2  and  C_3
REMARK    3  A    between atoms: C_4  and  O_5
REMARK    4  A    between atoms: C_6  and  O_7
REMARK    5  A    between atoms: C_8  and  O_9
REMARK    6  A    between atoms: O_9  and  C_10
REMARK    7  A    between atoms: C_13  and  C_14
REMARK    8  A    between atoms: C_14  and  C_15
REMARK    9  A    between atoms: C_15  and  N_16
REMARK   10  A    between atoms: C_17  and  C_18
REMARK   11  A    between atoms: C_20  and  C_21
REMARK   12  A    between atoms: C_24  and  C_25
REMARK   13  A    between atoms: C_33  and  C_34
REMARK   14  A    between atoms: C_33  and  C_35
REMARK                            x       y       z     vdW  Elec       q    Type
REMARK                         _______ _______ _______ _____ _____    ______ ____
ROOT
ATOM      1  C   UNL     1       1.237   9.696  18.790  0.00  0.00    +0.000 A 
ATOM      2  C   UNL     1       0.747   9.310  20.024  0.00  0.00    +0.000 A 
ATOM      3  C   UNL     1       1.128   8.087  20.569  0.00  0.00    +0.000 A 
ATOM      4  C   UNL     1       2.005   7.197  19.906  0.00  0.00    +0.000 A 
ATOM      5  C   UNL     1       2.470   7.550  18.604  0.00  0.00    +0.000 A 
ATOM      6  C   UNL     1       2.049   8.806  18.087  0.00  0.00    +0.000 A 
ENDROOT
BRANCH   5   7
ATOM      7  C   UNL     1       3.414   6.751  17.761  0.00  0.00    +0.000 A 
ATOM      8  C   UNL     1       3.294   5.367  17.566  0.00  0.00    +0.000 A 
ATOM      9  C   UNL     1       4.275   4.628  16.887  0.00  0.00    +0.000 A 
ATOM     10  C   UNL     1       5.368   5.265  16.292  0.00  0.00    +0.000 A 
ATOM     11  C   UNL     1       5.425   6.659  16.340  0.00  0.00    +0.000 A 
ATOM     12  C   UNL     1       4.483   7.379  17.083  0.00  0.00    +0.000 A 
BRANCH  10  13
ATOM     13  C   UNL     1       6.470   4.491  15.617  0.00  0.00    +0.000 C 
ATOM     14  F   UNL     1       6.077   3.273  15.151  0.00  0.00    +0.000 F 
ATOM     15  F   UNL     1       6.996   5.151  14.551  0.00  0.00    +0.000 F 
ATOM     16  F   UNL     1       7.516   4.241  16.457  0.00  0.00    +0.000 F 
ENDBRANCH  10  13
ENDBRANCH   5   7
BRANCH   1  17
ATOM     17  O   UNL     1       1.061  10.922  18.204  0.00  0.00    +0.000 OA
BRANCH  17  21
ATOM     18  C   UNL     1       0.746  14.849  19.571  0.00  0.00    +0.000 C 
ATOM     19  C   UNL     1       2.129  14.458  19.018  0.00  0.00    +0.000 C 
ATOM     20  C   UNL     1       2.039  13.144  18.218  0.00  0.00    +0.000 C 
ATOM     21  C   UNL     1       1.330  12.052  19.042  0.00  0.00    +0.000 C 
ATOM     22  O   UNL     1       0.102  12.486  19.613  0.00  0.00    +0.000 OA
ATOM     23  C   UNL     1       0.152  13.672  20.410  0.00  0.00    +0.000 C 
ATOM     24  C   UNL     1       0.912  13.386  21.721  0.00  0.00    +0.000 C 
ATOM     25  C   UNL     1      -1.310  13.924  20.807  0.00  0.00    +0.000 C 
BRANCH  18  27
ATOM     26  C   UNL     1      -0.398  16.472  18.170  0.00  0.00    +0.000 C 
ATOM     27  O   UNL     1      -0.029  15.122  18.386  0.00  0.00    +0.000 OA
ENDBRANCH  18  27
BRANCH  19  28
ATOM     28  O   UNL     1       3.121  14.377  20.052  0.00  0.00    +0.000 OA
ATOM     29  H   UNL     1       3.772  15.090  19.909  0.00  0.00    +0.000 HD
ENDBRANCH  19  28
BRANCH  20  30
ATOM     30  O   UNL     1       3.383  12.718  17.895  0.00  0.00    +0.000 OA
ATOM     31  H   UNL     1       3.326  12.056  17.182  0.00  0.00    +0.000 HD
ENDBRANCH  20  30
ENDBRANCH  17  21
ENDBRANCH   1  17
BRANCH   4  32
ATOM     32  C   UNL     1       2.514   6.008  20.725  0.00  0.00    +0.000 C 
BRANCH  32  33
ATOM     33  C   UNL     1       1.531   4.823  20.866  0.00  0.00    +0.000 C 
BRANCH  33  34
ATOM     34  N   UNL     1       1.693   3.785  19.860  0.00  0.00    +0.000 N 
ATOM     35  C   UNL     1       2.578   2.743  20.023  0.00  0.00    +0.000 C 
ATOM     36  C   UNL     1       2.683   1.840  18.823  0.00  0.00    +0.000 C 
ATOM     37  O   UNL     1       3.213   2.540  21.041  0.00  0.00    +0.000 OA
ATOM     38  H   UNL     1       1.371   3.995  18.922  0.00  0.00    +0.000 HD
ENDBRANCH  33  34
ENDBRANCH  32  33
ENDBRANCH   4  32
TORSDOF 10
ENDMDL
MODEL 5
REMARK VINA RESULT:      -7.9      5.338     10.133
REMARK  Name = 
REMARK  14 active torsions:
REMARK  status: ('A' for Active; 'I' for Inactive)
REMARK    1  A    between atoms: C_1  and  O_2
REMARK    2  A    between atoms: O_2  and  C_3
REMARK    3  A    between atoms: C_4  and  O_5
REMARK    4  A    between atoms: C_6  and  O_7
REMARK    5  A    between atoms: C_8  and  O_9
REMARK    6  A    between atoms: O_9  and  C_10
REMARK    7  A    between atoms: C_13  and  C_14
REMARK    8  A    between atoms: C_14  and  C_15
REMARK    9  A    between atoms: C_15  and  N_16
REMARK   10  A    between atoms: C_17  and  C_18
REMARK   11  A    between atoms: C_20  and  C_21
REMARK   12  A    between atoms: C_24  and  C_25
REMARK   13  A    between atoms: C_33  and  C_34
REMARK   14  A    between atoms: C_33  and  C_35
REMARK                            x       y       z     vdW  Elec       q    Type
REMARK                         _______ _______ _______ _____ _____    ______ ____
ROOT
ATOM      1  C   UNL     1       2.015   7.833  19.579  0.00  0.00    +0.000 A 
ATOM      2  C   UNL     1       2.466   8.324  18.369  0.00  0.00    +0.000 A 
ATOM      3  C   UNL     1       2.081   9.595  17.951  0.00  0.00    +0.000 A 
ATOM      4  C   UNL     1       1.228  10.423  18.715  0.00  0.00    +0.000 A 
ATOM      5  C   UNL     1       0.701   9.908  19.938  0.00  0.00    +0.000 A 
ATOM      6  C   UNL     1       1.118   8.603  20.320  0.00  0.00    +0.000 A 
ENDROOT
BRANCH   5   7
ATOM      7  C   UNL     1      -0.195  10.640  20.887  0.00  0.00    +0.000 A 
ATOM      8  C   UNL     1      -0.236  10.382  22.265  0.00  0.00    +0.000 A 
ATOM      9  C   UNL     1      -1.187  10.987  23.102  0.00  0.00    +0.000 A 
ATOM     10  C   UNL     1      -2.069  11.950  22.604  0.00  0.00    +0.000 A 
ATOM     11  C   UNL     1      -1.941  12.336  21.269  0.00  0.00    +0.000 A 
ATOM     12  C   UNL     1      -1.042  11.673  20.427  0.00  0.00    +0.000 A 
BRANCH  10  13
ATOM     13  C   UNL     1      -3.143  12.565  23.464  0.00  0.00    +0.000 C 
ATOM     14  F   UNL     1      -4.237  12.975  22.763  0.00  0.00    +0.000 F 
ATOM     15  F   UNL     1      -3.605  11.711  24.416  0.00  0.00    +0.000 F 
ATOM     16  F   UNL     1      -2.702  13.670  24.133  0.00  0.00    +0.000 F 
ENDBRANCH  10  13
ENDBRANCH   5   7
BRANCH   1  17
ATOM     17  O   UNL     1       2.424   6.669  20.176  0.00  0.00    +0.000 OA
BRANCH  17  21
ATOM     18  C   UNL     1       3.366   2.765  19.054  0.00  0.00    +0.000 C 
ATOM     19  C   UNL     1       4.462   3.810  18.770  0.00  0.00    +0.000 C 
ATOM     20  C   UNL     1       4.176   5.114  19.539  0.00  0.00    +0.000 C 
ATOM     21  C   UNL     1       2.733   5.592  19.285  0.00  0.00    +0.000 C 
ATOM     22  O   UNL     1       1.761   4.570  19.467  0.00  0.00    +0.000 OA
ATOM     23  C   UNL     1       1.959   3.361  18.728  0.00  0.00    +0.000 C 
ATOM     24  C   UNL     1       1.719   3.624  17.227  0.00  0.00    +0.000 C 
ATOM     25  C   UNL     1       0.819   2.443  19.190  0.00  0.00    +0.000 C 
BRANCH  18  27
ATOM     26  C   UNL     1       4.696   1.770  20.829  0.00  0.00    +0.000 C 
ATOM     27  O   UNL     1       3.527   2.478  20.458  0.00  0.00    +0.000 OA
ENDBRANCH  18  27
BRANCH  19  28
ATOM     28  O   UNL     1       4.625   4.053  17.365  0.00  0.00    +0.000 OA
ATOM     29  H   UNL     1       4.810   5.004  17.237  0.00  0.00    +0.000 HD
ENDBRANCH  19  28
BRANCH  20  30
ATOM     30  O   UNL     1       5.112   6.121  19.087  0.00  0.00    +0.000 OA
ATOM     31  H   UNL     1       4.656   6.982  19.096  0.00  0.00    +0.000 HD
ENDBRANCH  20  30
ENDBRANCH  17  21
ENDBRANCH   1  17
BRANCH   4  32
ATOM     32  C   UNL     1       1.083  11.872  18.242  0.00  0.00    +0.000 C 
BRANCH  32  33
ATOM     33  C   UNL     1       2.277  12.802  18.557  0.00  0.00    +0.000 C 
BRANCH  33  34
ATOM     34  N   UNL     1       1.936  13.968  19.358  0.00  0.00    +0.000 N 
ATOM     35  C   UNL     1       1.907  13.923  20.734  0.00  0.00    +0.000 C 
ATOM     36  C   UNL     1       1.420  15.196  21.374  0.00  0.00    +0.000 C 
ATOM     37  O   UNL     1       2.257  12.963  21.393  0.00  0.00    +0.000 OA
ATOM     38  H   UNL     1       1.438  14.719  18.894  0.00  0.00    +0.000 HD
ENDBRANCH  33  34
ENDBRANCH  32  33
ENDBRANCH   4  32
TORSDOF 10
ENDMDL
MODEL 6
REMARK VINA RESULT:      -7.9      1.352      1.747
REMARK  Name = 
REMARK  14 active torsions:
REMARK  status: ('A' for Active; 'I' for Inactive)
REMARK    1  A    between atoms: C_1  and  O_2
REMARK    2  A    between atoms: O_2  and  C_3
REMARK    3  A    between atoms: C_4  and  O_5
REMARK    4  A    between atoms: C_6  and  O_7
REMARK    5  A    between atoms: C_8  and  O_9
REMARK    6  A    between atoms: O_9  and  C_10
REMARK    7  A    between atoms: C_13  and  C_14
REMARK    8  A    between atoms: C_14  and  C_15
REMARK    9  A    between atoms: C_15  and  N_16
REMARK   10  A    between atoms: C_17  and  C_18
REMARK   11  A    between atoms: C_20  and  C_21
REMARK   12  A    between atoms: C_24  and  C_25
REMARK   13  A    between atoms: C_33  and  C_34
REMARK   14  A    between atoms: C_33  and  C_35
REMARK                            x       y       z     vdW  Elec       q    Type
REMARK                         _______ _______ _______ _____ _____    ______ ____
ROOT
ATOM      1  C   UNL     1       1.381   8.719  19.899  0.00  0.00    +0.000 A 
ATOM      2  C   UNL     1       0.649   8.114  20.904  0.00  0.00    +0.000 A 
ATOM      3  C   UNL     1       0.899   6.786  21.239  0.00  0.00    +0.000 A 
ATOM      4  C   UNL     1       1.879   6.006  20.584  0.00  0.00    +0.000 A 
ATOM      5  C   UNL     1       2.600   6.594  19.501  0.00  0.00    +0.000 A 
ATOM      6  C   UNL     1       2.307   7.951  19.193  0.00  0.00    +0.000 A 
ENDROOT
BRANCH   5   7
ATOM      7  C   UNL     1       3.684   5.935  18.707  0.00  0.00    +0.000 A 
ATOM      8  C   UNL     1       4.819   5.349  19.286  0.00  0.00    +0.000 A 
ATOM      9  C   UNL     1       5.882   4.866  18.505  0.00  0.00    +0.000 A 
ATOM     10  C   UNL     1       5.802   4.864  17.110  0.00  0.00    +0.000 A 
ATOM     11  C   UNL     1       4.616   5.300  16.516  0.00  0.00    +0.000 A 
ATOM     12  C   UNL     1       3.594   5.848  17.299  0.00  0.00    +0.000 A 
BRANCH  10  13
ATOM     13  C   UNL     1       6.953   4.417  16.247  0.00  0.00    +0.000 C 
ATOM     14  F   UNL     1       7.358   5.353  15.345  0.00  0.00    +0.000 F 
ATOM     15  F   UNL     1       8.056   4.092  16.974  0.00  0.00    +0.000 F 
ATOM     16  F   UNL     1       6.649   3.308  15.512  0.00  0.00    +0.000 F 
ENDBRANCH  10  13
ENDBRANCH   5   7
BRANCH   1  17
ATOM     17  O   UNL     1       1.342  10.047  19.566  0.00  0.00    +0.000 OA
BRANCH  17  21
ATOM     18  C   UNL     1      -1.550  13.003  19.033  0.00  0.00    +0.000 C 
ATOM     19  C   UNL     1      -1.082  12.799  20.487  0.00  0.00    +0.000 C 
ATOM     20  C   UNL     1       0.216  11.972  20.525  0.00  0.00    +0.000 C 
ATOM     21  C   UNL     1       0.065  10.681  19.698  0.00  0.00    +0.000 C 
ATOM     22  O   UNL     1      -0.459  10.905  18.395  0.00  0.00    +0.000 OA
ATOM     23  C   UNL     1      -1.694  11.622  18.317  0.00  0.00    +0.000 C 
ATOM     24  C   UNL     1      -2.839  10.746  18.863  0.00  0.00    +0.000 C 
ATOM     25  C   UNL     1      -1.950  11.774  16.811  0.00  0.00    +0.000 C 
BRANCH  18  27
ATOM     26  C   UNL     1      -0.431  15.157  18.899  0.00  0.00    +0.000 C 
ATOM     27  O   UNL     1      -0.509  13.815  18.453  0.00  0.00    +0.000 OA
ENDBRANCH  18  27
BRANCH  19  28
ATOM     28  O   UNL     1      -2.105  12.211  21.305  0.00  0.00    +0.000 OA
ATOM     29  H   UNL     1      -2.458  11.429  20.839  0.00  0.00    +0.000 HD
ENDBRANCH  19  28
BRANCH  20  30
ATOM     30  O   UNL     1       0.501  11.639  21.904  0.00  0.00    +0.000 OA
ATOM     31  H   UNL     1       0.555  10.669  21.975  0.00  0.00    +0.000 HD
ENDBRANCH  20  30
ENDBRANCH  17  21
ENDBRANCH   1  17
BRANCH   4  32
ATOM     32  C   UNL     1       2.199   4.647  21.213  0.00  0.00    +0.000 C 
BRANCH  32  33
ATOM     33  C   UNL     1       1.304   3.472  20.758  0.00  0.00    +0.000 C 
BRANCH  33  34
ATOM     34  N   UNL     1       1.489   3.078  19.370  0.00  0.00    +0.000 N 
ATOM     35  C   UNL     1       2.626   2.429  18.942  0.00  0.00    +0.000 C 
ATOM     36  C   UNL     1       2.679   2.211  17.453  0.00  0.00    +0.000 C 
ATOM     37  O   UNL     1       3.510   2.041  19.681  0.00  0.00    +0.000 OA
ATOM     38  H   UNL     1       0.915   3.543  18.676  0.00  0.00    +0.000 HD
ENDBRANCH  33  34
ENDBRANCH  32  33
ENDBRANCH   4  32
TORSDOF 10
ENDMDL
MODEL 7
REMARK VINA RESULT:      -7.8      4.926      9.644
REMARK  Name = 
REMARK  14 active torsions:
REMARK  status: ('A' for Active; 'I' for Inactive)
REMARK    1  A    between atoms: C_1  and  O_2
REMARK    2  A    between atoms: O_2  and  C_3
REMARK    3  A    between atoms: C_4  and  O_5
REMARK    4  A    between atoms: C_6  and  O_7
REMARK    5  A    between atoms: C_8  and  O_9
REMARK    6  A    between atoms: O_9  and  C_10
REMARK    7  A    between atoms: C_13  and  C_14
REMARK    8  A    between atoms: C_14  and  C_15
REMARK    9  A    between atoms: C_15  and  N_16
REMARK   10  A    between atoms: C_17  and  C_18
REMARK   11  A    between atoms: C_20  and  C_21
REMARK   12  A    between atoms: C_24  and  C_25
REMARK   13  A    between atoms: C_33  and  C_34
REMARK   14  A    between atoms: C_33  and  C_35
REMARK                            x       y       z     vdW  Elec       q    Type
REMARK                         _______ _______ _______ _____ _____    ______ ____
ROOT
ATOM      1  C   UNL     1       2.307   7.566  18.892  0.00  0.00    +0.000 A 
ATOM      2  C   UNL     1       1.884   6.763  19.934  0.00  0.00    +0.000 A 
ATOM      3  C   UNL     1       1.046   7.286  20.915  0.00  0.00    +0.000 A 
ATOM      4  C   UNL     1       0.603   8.629  20.903  0.00  0.00    +0.000 A 
ATOM      5  C   UNL     1       1.082   9.490  19.869  0.00  0.00    +0.000 A 
ATOM      6  C   UNL     1       1.939   8.911  18.894  0.00  0.00    +0.000 A 
ENDROOT
BRANCH   5   7
ATOM      7  C   UNL     1       0.710  10.927  19.680  0.00  0.00    +0.000 A 
ATOM      8  C   UNL     1       1.579  11.993  19.956  0.00  0.00    +0.000 A 
ATOM      9  C   UNL     1       1.152  13.329  19.901  0.00  0.00    +0.000 A 
ATOM     10  C   UNL     1      -0.140  13.651  19.473  0.00  0.00    +0.000 A 
ATOM     11  C   UNL     1      -0.971  12.613  19.045  0.00  0.00    +0.000 A 
ATOM     12  C   UNL     1      -0.561  11.282  19.174  0.00  0.00    +0.000 A 
BRANCH  10  13
ATOM     13  C   UNL     1      -0.647  15.069  19.470  0.00  0.00    +0.000 C 
ATOM     14  F   UNL     1      -0.601  15.665  18.247  0.00  0.00    +0.000 F 
ATOM     15  F   UNL     1      -1.938  15.164  19.887  0.00  0.00    +0.000 F 
ATOM     16  F   UNL     1       0.075  15.879  20.299  0.00  0.00    +0.000 F 
ENDBRANCH  10  13
ENDBRANCH   5   7
BRANCH   1  17
ATOM     17  O   UNL     1       3.008   7.148  17.791  0.00  0.00    +0.000 OA
BRANCH  17  21
ATOM     18  C   UNL     1       6.236   4.657  16.917  0.00  0.00    +0.000 C 
ATOM     19  C   UNL     1       4.916   3.930  17.240  0.00  0.00    +0.000 C 
ATOM     20  C   UNL     1       3.731   4.912  17.183  0.00  0.00    +0.000 C 
ATOM     21  C   UNL     1       4.017   6.162  18.038  0.00  0.00    +0.000 C 
ATOM     22  O   UNL     1       5.286   6.747  17.773  0.00  0.00    +0.000 OA
ATOM     23  C   UNL     1       6.421   5.881  17.870  0.00  0.00    +0.000 C 
ATOM     24  C   UNL     1       6.660   5.501  19.345  0.00  0.00    +0.000 C 
ATOM     25  C   UNL     1       7.607   6.763  17.456  0.00  0.00    +0.000 C 
BRANCH  18  27
ATOM     26  C   UNL     1       6.491   4.120  14.560  0.00  0.00    +0.000 C 
ATOM     27  O   UNL     1       6.076   5.055  15.540  0.00  0.00    +0.000 OA
ENDBRANCH  18  27
BRANCH  19  28
ATOM     28  O   UNL     1       4.972   3.246  18.500  0.00  0.00    +0.000 OA
ATOM     29  H   UNL     1       4.885   2.288  18.334  0.00  0.00    +0.000 HD
ENDBRANCH  19  28
BRANCH  20  30
ATOM     30  O   UNL     1       2.556   4.234  17.686  0.00  0.00    +0.000 OA
ATOM     31  H   UNL     1       2.072   4.855  18.259  0.00  0.00    +0.000 HD
ENDBRANCH  20  30
ENDBRANCH  17  21
ENDBRANCH   1  17
BRANCH   4  32
ATOM     32  C   UNL     1      -0.492   8.994  21.909  0.00  0.00    +0.000 C 
BRANCH  32  33
ATOM     33  C   UNL     1      -0.084  10.002  23.007  0.00  0.00    +0.000 C 
BRANCH  33  34
ATOM     34  N   UNL     1      -0.493  11.373  22.747  0.00  0.00    +0.000 N 
ATOM     35  C   UNL     1      -1.763  11.821  23.034  0.00  0.00    +0.000 C 
ATOM     36  C   UNL     1      -2.026  13.234  22.585  0.00  0.00    +0.000 C 
ATOM     37  O   UNL     1      -2.605  11.162  23.612  0.00  0.00    +0.000 OA
ATOM     38  H   UNL     1       0.064  11.905  22.088  0.00  0.00    +0.000 HD
ENDBRANCH  33  34
ENDBRANCH  32  33
ENDBRANCH   4  32
TORSDOF 10
ENDMDL
MODEL 8
REMARK VINA RESULT:      -7.8      1.132      1.360
REMARK  Name = 
REMARK  14 active torsions:
REMARK  status: ('A' for Active; 'I' for Inactive)
REMARK    1  A    between atoms: C_1  and  O_2
REMARK    2  A    between atoms: O_2  and  C_3
REMARK    3  A    between atoms: C_4  and  O_5
REMARK    4  A    between atoms: C_6  and  O_7
REMARK    5  A    between atoms: C_8  and  O_9
REMARK    6  A    between atoms: O_9  and  C_10
REMARK    7  A    between atoms: C_13  and  C_14
REMARK    8  A    between atoms: C_14  and  C_15
REMARK    9  A    between atoms: C_15  and  N_16
REMARK   10  A    between atoms: C_17  and  C_18
REMARK   11  A    between atoms: C_20  and  C_21
REMARK   12  A    between atoms: C_24  and  C_25
REMARK   13  A    between atoms: C_33  and  C_34
REMARK   14  A    between atoms: C_33  and  C_35
REMARK                            x       y       z     vdW  Elec       q    Type
REMARK                         _______ _______ _______ _____ _____    ______ ____
ROOT
ATOM      1  C   UNL     1       1.100   9.500  19.837  0.00  0.00    +0.000 A 
ATOM      2  C   UNL     1       0.319   8.882  20.796  0.00  0.00    +0.000 A 
ATOM      3  C   UNL     1       0.532   7.541  21.102  0.00  0.00    +0.000 A 
ATOM      4  C   UNL     1       1.522   6.760  20.462  0.00  0.00    +0.000 A 
ATOM      5  C   UNL     1       2.295   7.364  19.425  0.00  0.00    +0.000 A 
ATOM      6  C   UNL     1       2.038   8.735  19.144  0.00  0.00    +0.000 A 
ENDROOT
BRANCH   5   7
ATOM      7  C   UNL     1       3.396   6.708  18.653  0.00  0.00    +0.000 A 
ATOM      8  C   UNL     1       4.250   5.738  19.198  0.00  0.00    +0.000 A 
ATOM      9  C   UNL     1       5.359   5.247  18.490  0.00  0.00    +0.000 A 
ATOM     10  C   UNL     1       5.595   5.638  17.169  0.00  0.00    +0.000 A 
ATOM     11  C   UNL     1       4.669   6.483  16.555  0.00  0.00    +0.000 A 
ATOM     12  C   UNL     1       3.611   7.025  17.293  0.00  0.00    +0.000 A 
BRANCH  10  13
ATOM     13  C   UNL     1       6.814   5.181  16.410  0.00  0.00    +0.000 C 
ATOM     14  F   UNL     1       7.734   6.164  16.209  0.00  0.00    +0.000 F 
ATOM     15  F   UNL     1       7.472   4.170  17.037  0.00  0.00    +0.000 F 
ATOM     16  F   UNL     1       6.503   4.712  15.166  0.00  0.00    +0.000 F 
ENDBRANCH  10  13
ENDBRANCH   5   7
BRANCH   1  17
ATOM     17  O   UNL     1       1.098  10.838  19.541  0.00  0.00    +0.000 OA
BRANCH  17  21
ATOM     18  C   UNL     1      -1.180  14.094  20.804  0.00  0.00    +0.000 C 
ATOM     19  C   UNL     1       0.253  14.040  21.367  0.00  0.00    +0.000 C 
ATOM     20  C   UNL     1       1.108  13.037  20.571  0.00  0.00    +0.000 C 
ATOM     21  C   UNL     1       0.394  11.675  20.465  0.00  0.00    +0.000 C 
ATOM     22  O   UNL     1      -0.957  11.780  20.032  0.00  0.00    +0.000 OA
ATOM     23  C   UNL     1      -1.801  12.661  20.779  0.00  0.00    +0.000 C 
ATOM     24  C   UNL     1      -2.067  12.065  22.176  0.00  0.00    +0.000 C 
ATOM     25  C   UNL     1      -3.143  12.623  20.034  0.00  0.00    +0.000 C 
BRANCH  18  27
ATOM     26  C   UNL     1      -0.708  16.020  19.398  0.00  0.00    +0.000 C 
ATOM     27  O   UNL     1      -1.005  14.638  19.480  0.00  0.00    +0.000 OA
ENDBRANCH  18  27
BRANCH  19  28
ATOM     28  O   UNL     1       0.270  13.748  22.772  0.00  0.00    +0.000 OA
ATOM     29  H   UNL     1       0.034  12.808  22.892  0.00  0.00    +0.000 HD
ENDBRANCH  19  28
BRANCH  20  30
ATOM     30  O   UNL     1       2.371  12.874  21.257  0.00  0.00    +0.000 OA
ATOM     31  H   UNL     1       2.840  12.123  20.851  0.00  0.00    +0.000 HD
ENDBRANCH  20  30
ENDBRANCH  17  21
ENDBRANCH   1  17
BRANCH   4  32
ATOM     32  C   UNL     1       1.793   5.378  21.063  0.00  0.00    +0.000 C 
BRANCH  32  33
ATOM     33  C   UNL     1       1.000   4.209  20.436  0.00  0.00    +0.000 C 
BRANCH  33  34
ATOM     34  N   UNL     1       1.808   3.290  19.649  0.00  0.00    +0.000 N 
ATOM     35  C   UNL     1       1.797   3.307  18.272  0.00  0.00    +0.000 C 
ATOM     36  C   UNL     1       2.607   2.204  17.643  0.00  0.00    +0.000 C 
ATOM     37  O   UNL     1       1.210   4.136  17.604  0.00  0.00    +0.000 OA
ATOM     38  H   UNL     1       2.144   2.454  20.113  0.00  0.00    +0.000 HD
ENDBRANCH  33  34
ENDBRANCH  32  33
ENDBRANCH   4  32
TORSDOF 10
ENDMDL
MODEL 9
REMARK VINA RESULT:      -7.8      1.156      2.550
REMARK  Name = 
REMARK  14 active torsions:
REMARK  status: ('A' for Active; 'I' for Inactive)
REMARK    1  A    between atoms: C_1  and  O_2
REMARK    2  A    between atoms: O_2  and  C_3
REMARK    3  A    between atoms: C_4  and  O_5
REMARK    4  A    between atoms: C_6  and  O_7
REMARK    5  A    between atoms: C_8  and  O_9
REMARK    6  A    between atoms: O_9  and  C_10
REMARK    7  A    between atoms: C_13  and  C_14
REMARK    8  A    between atoms: C_14  and  C_15
REMARK    9  A    between atoms: C_15  and  N_16
REMARK   10  A    between atoms: C_17  and  C_18
REMARK   11  A    between atoms: C_20  and  C_21
REMARK   12  A    between atoms: C_24  and  C_25
REMARK   13  A    between atoms: C_33  and  C_34
REMARK   14  A    between atoms: C_33  and  C_35
REMARK                            x       y       z     vdW  Elec       q    Type
REMARK                         _______ _______ _______ _____ _____    ______ ____
ROOT
ATOM      1  C   UNL     1       1.667   9.688  18.740  0.00  0.00    +0.000 A 
ATOM      2  C   UNL     1       1.095   9.306  19.939  0.00  0.00    +0.000 A 
ATOM      3  C   UNL     1       1.354   8.039  20.456  0.00  0.00    +0.000 A 
ATOM      4  C   UNL     1       2.183   7.102  19.799  0.00  0.00    +0.000 A 
ATOM      5  C   UNL     1       2.730   7.455  18.529  0.00  0.00    +0.000 A 
ATOM      6  C   UNL     1       2.434   8.757  18.039  0.00  0.00    +0.000 A 
ENDROOT
BRANCH   5   7
ATOM      7  C   UNL     1       3.642   6.608  17.698  0.00  0.00    +0.000 A 
ATOM      8  C   UNL     1       4.787   7.104  17.057  0.00  0.00    +0.000 A 
ATOM      9  C   UNL     1       5.540   6.315  16.172  0.00  0.00    +0.000 A 
ATOM     10  C   UNL     1       5.228   4.966  15.974  0.00  0.00    +0.000 A 
ATOM     11  C   UNL     1       4.188   4.412  16.722  0.00  0.00    +0.000 A 
ATOM     12  C   UNL     1       3.398   5.225  17.543  0.00  0.00    +0.000 A 
BRANCH  10  13
ATOM     13  C   UNL     1       5.975   4.115  14.980  0.00  0.00    +0.000 C 
ATOM     14  F   UNL     1       7.257   4.521  14.767  0.00  0.00    +0.000 F 
ATOM     15  F   UNL     1       6.050   2.811  15.360  0.00  0.00    +0.000 F 
ATOM     16  F   UNL     1       5.382   4.114  13.750  0.00  0.00    +0.000 F 
ENDBRANCH  10  13
ENDBRANCH   5   7
BRANCH   1  17
ATOM     17  O   UNL     1       1.617  10.942  18.190  0.00  0.00    +0.000 OA
BRANCH  17  21
ATOM     18  C   UNL     1      -1.325  12.374  20.775  0.00  0.00    +0.000 C 
ATOM     19  C   UNL     1      -1.852  11.682  19.504  0.00  0.00    +0.000 C 
ATOM     20  C   UNL     1      -0.728  10.882  18.820  0.00  0.00    +0.000 C 
ATOM     21  C   UNL     1       0.522  11.761  18.617  0.00  0.00    +0.000 C 
ATOM     22  O   UNL     1       0.918  12.456  19.794  0.00  0.00    +0.000 OA
ATOM     23  C   UNL     1      -0.082  13.256  20.430  0.00  0.00    +0.000 C 
ATOM     24  C   UNL     1      -0.404  14.482  19.551  0.00  0.00    +0.000 C 
ATOM     25  C   UNL     1       0.610  13.799  21.688  0.00  0.00    +0.000 C 
BRANCH  18  27
ATOM     26  C   UNL     1      -1.552  11.307  22.947  0.00  0.00    +0.000 C 
ATOM     27  O   UNL     1      -0.991  11.275  21.647  0.00  0.00    +0.000 OA
ENDBRANCH  18  27
BRANCH  19  28
ATOM     28  O   UNL     1      -2.462  12.611  18.597  0.00  0.00    +0.000 OA
ATOM     29  H   UNL     1      -1.779  12.928  17.975  0.00  0.00    +0.000 HD
ENDBRANCH  19  28
BRANCH  20  30
ATOM     30  O   UNL     1      -1.214  10.421  17.538  0.00  0.00    +0.000 OA
ATOM     31  H   UNL     1      -1.553   9.515  17.652  0.00  0.00    +0.000 HD
ENDBRANCH  20  30
ENDBRANCH  17  21
ENDBRANCH   1  17
BRANCH   4  32
ATOM     32  C   UNL     1       2.559   5.849  20.596  0.00  0.00    +0.000 C 
BRANCH  32  33
ATOM     33  C   UNL     1       1.417   4.833  20.823  0.00  0.00    +0.000 C 
BRANCH  33  34
ATOM     34  N   UNL     1       1.357   3.766  19.837  0.00  0.00    +0.000 N 
ATOM     35  C   UNL     1       2.249   2.717  19.843  0.00  0.00    +0.000 C 
ATOM     36  C   UNL     1       2.094   1.779  18.675  0.00  0.00    +0.000 C 
ATOM     37  O   UNL     1       3.081   2.533  20.711  0.00  0.00    +0.000 OA
ATOM     38  H   UNL     1       0.847   3.954  18.982  0.00  0.00    +0.000 HD
ENDBRANCH  33  34
ENDBRANCH  32  33
ENDBRANCH   4  32
TORSDOF 10
ENDMDL
