MODEL 1
REMARK VINA RESULT:      -7.9      0.000      0.000
REMARK  Name = 
REMARK  12 active torsions:
REMARK  status: ('A' for Active; 'I' for Inactive)
REMARK    1  A    between atoms: C_1  and  O_2
REMARK    2  A    between atoms: O_2  and  C_3
REMARK    3  A    between atoms: C_6  and  C_7
REMARK    4  A    between atoms: C_8  and  C_9
REMARK    5  A    between atoms: C_13  and  C_14
REMARK    6  A    between atoms: C_16  and  C_17
REMARK    7  A    between atoms: C_17  and  O_18
REMARK    8  A    between atoms: O_18  and  C_19
REMARK    9  A    between atoms: C_22  and  C_23
REMARK   10  A    between atoms: C_23  and  C_24
REMARK   11  A    between atoms: C_24  and  C_25
REMARK   12  A    between atoms: C_25  and  O_27
REMARK                            x       y       z     vdW  Elec       q    Type
REMARK                         _______ _______ _______ _____ _____    ______ ____
ROOT
ATOM      1  C   UNL     1       6.543   5.358  16.337  0.00  0.00    +0.000 A 
ATOM      2  C   UNL     1       5.397   4.627  16.015  0.00  0.00    +0.000 A 
ATOM      3  C   UNL     1       4.373   4.450  16.948  0.00  0.00    +0.000 A 
ATOM      4  C   UNL     1       4.512   4.859  18.280  0.00  0.00    +0.000 A 
ATOM      5  C   UNL     1       5.664   5.608  18.567  0.00  0.00    +0.000 A 
ATOM      6  C   UNL     1       6.628   5.962  17.597  0.00  0.00    +0.000 A 
ENDROOT
BRANCH   4   7
ATOM      7  C   UNL     1       3.497   4.489  19.317  0.00  0.00    +0.000 A 
ATOM      8  C   UNL     1       3.492   3.183  19.905  0.00  0.00    +0.000 A 
ATOM      9  C   UNL     1       4.534   2.112  19.661  0.00  0.00    +0.000 C 
ATOM     10  C   UNL     1       2.470   2.802  20.798  0.00  0.00    +0.000 A 
ATOM     11  C   UNL     1       1.496   3.701  21.198  0.00  0.00    +0.000 A 
ATOM     12  C   UNL     1       1.523   4.995  20.705  0.00  0.00    +0.000 A 
ATOM     13  C   UNL     1       2.489   5.403  19.762  0.00  0.00    +0.000 A 
ATOM     14  C   UNL     1       2.378   6.841  19.306  0.00  0.00    +0.000 C 
ENDBRANCH   4   7
BRANCH   1  16
ATOM     15  C   UNL     1       7.333   5.082  14.130  0.00  0.00    +0.000 C 
ATOM     16  O   UNL     1       7.587   5.529  15.464  0.00  0.00    +0.000 OA
ENDBRANCH   1  16
BRANCH   6  17
ATOM     17  C   UNL     1       7.744   6.915  17.999  0.00  0.00    +0.000 C 
BRANCH  17  18
ATOM     18  O   UNL     1       7.561   8.157  17.292  0.00  0.00    +0.000 OA
BRANCH  18  19
ATOM     19  C   UNL     1       8.096   9.301  17.814  0.00  0.00    +0.000 A 
ATOM     20  C   UNL     1       8.894   9.118  18.948  0.00  0.00    +0.000 A 
ATOM     21  C   UNL     1       9.539  10.197  19.559  0.00  0.00    +0.000 A 
ATOM     22  C   UNL     1       9.430  11.484  19.022  0.00  0.00    +0.000 A 
ATOM     23  C   UNL     1       8.617  11.668  17.896  0.00  0.00    +0.000 A 
ATOM     24  C   UNL     1       7.953  10.585  17.296  0.00  0.00    +0.000 A 
BRANCH  22  25
ATOM     25  C   UNL     1      10.190  12.643  19.632  0.00  0.00    +0.000 C 
BRANCH  25  26
ATOM     26  C   UNL     1       9.522  13.980  19.311  0.00  0.00    +0.000 C 
BRANCH  26  27
ATOM     27  C   UNL     1      10.435  14.886  18.513  0.00  0.00    +0.000 C 
ATOM     28  O   UNL     1      11.185  15.721  18.976  0.00  0.00    +0.000 OA
BRANCH  27  29
ATOM     29  O   UNL     1      10.318  14.676  17.174  0.00  0.00    +0.000 OA
ATOM     30  H   UNL     1      11.171  14.533  16.719  0.00  0.00    +0.000 HD
ENDBRANCH  27  29
ENDBRANCH  26  27
ENDBRANCH  25  26
ENDBRANCH  22  25
ENDBRANCH  18  19
ENDBRANCH  17  18
ENDBRANCH   6  17
TORSDOF 9
ENDMDL
MODEL 2
REMARK VINA RESULT:      -7.8      0.552      2.026
REMARK  Name = 
REMARK  12 active torsions:
REMARK  status: ('A' for Active; 'I' for Inactive)
REMARK    1  A    between atoms: C_1  and  O_2
REMARK    2  A    between atoms: O_2  and  C_3
REMARK    3  A    between atoms: C_6  and  C_7
REMARK    4  A    between atoms: C_8  and  C_9
REMARK    5  A    between atoms: C_13  and  C_14
REMARK    6  A    between atoms: C_16  and  C_17
REMARK    7  A    between atoms: C_17  and  O_18
REMARK    8  A    between atoms: O_18  and  C_19
REMARK    9  A    between atoms: C_22  and  C_23
REMARK   10  A    between atoms: C_23  and  C_24
REMARK   11  A    between atoms: C_24  and  C_25
REMARK   12  A    between atoms: C_25  and  O_27
REMARK                            x       y       z     vdW  Elec       q    Type
REMARK                         _______ _______ _______ _____ _____    ______ ____
ROOT
ATOM      1  C   UNL     1       6.553   5.304  16.162  0.00  0.00    +0.000 A 
ATOM      2  C   UNL     1       5.387   4.597  15.858  0.00  0.00    +0.000 A 
ATOM      3  C   UNL     1       4.352   4.486  16.789  0.00  0.00    +0.000 A 
ATOM      4  C   UNL     1       4.495   4.939  18.106  0.00  0.00    +0.000 A 
ATOM      5  C   UNL     1       5.667   5.663  18.375  0.00  0.00    +0.000 A 
ATOM      6  C   UNL     1       6.649   5.951  17.400  0.00  0.00    +0.000 A 
ENDROOT
BRANCH   4   7
ATOM      7  C   UNL     1       3.463   4.640  19.149  0.00  0.00    +0.000 A 
ATOM      8  C   UNL     1       2.544   5.650  19.583  0.00  0.00    +0.000 A 
ATOM      9  C   UNL     1       2.422   7.034  18.982  0.00  0.00    +0.000 C 
ATOM     10  C   UNL     1       1.648   5.398  20.641  0.00  0.00    +0.000 A 
ATOM     11  C   UNL     1       1.569   4.148  21.231  0.00  0.00    +0.000 A 
ATOM     12  C   UNL     1       2.392   3.130  20.779  0.00  0.00    +0.000 A 
ATOM     13  C   UNL     1       3.347   3.353  19.765  0.00  0.00    +0.000 A 
ATOM     14  C   UNL     1       4.183   2.149  19.391  0.00  0.00    +0.000 C 
ENDBRANCH   4   7
BRANCH   1  16
ATOM     15  C   UNL     1       7.319   5.014  13.948  0.00  0.00    +0.000 C 
ATOM     16  O   UNL     1       7.607   5.410  15.291  0.00  0.00    +0.000 OA
ENDBRANCH   1  16
BRANCH   6  17
ATOM     17  C   UNL     1       7.790   6.884  17.775  0.00  0.00    +0.000 C 
BRANCH  17  18
ATOM     18  O   UNL     1       7.422   8.228  17.409  0.00  0.00    +0.000 OA
BRANCH  18  19
ATOM     19  C   UNL     1       8.118   9.274  17.946  0.00  0.00    +0.000 A 
ATOM     20  C   UNL     1       7.915  10.506  17.315  0.00  0.00    +0.000 A 
ATOM     21  C   UNL     1       8.530  11.669  17.788  0.00  0.00    +0.000 A 
ATOM     22  C   UNL     1       9.333  11.631  18.933  0.00  0.00    +0.000 A 
ATOM     23  C   UNL     1       9.548  10.394  19.553  0.00  0.00    +0.000 A 
ATOM     24  C   UNL     1       8.946   9.223  19.063  0.00  0.00    +0.000 A 
BRANCH  22  25
ATOM     25  C   UNL     1       9.936  12.901  19.496  0.00  0.00    +0.000 C 
BRANCH  25  26
ATOM     26  C   UNL     1       9.876  14.045  18.482  0.00  0.00    +0.000 C 
BRANCH  26  27
ATOM     27  C   UNL     1      11.153  14.146  17.677  0.00  0.00    +0.000 C 
ATOM     28  O   UNL     1      11.390  13.547  16.647  0.00  0.00    +0.000 OA
BRANCH  27  29
ATOM     29  O   UNL     1      12.053  14.992  18.249  0.00  0.00    +0.000 OA
ATOM     30  H   UNL     1      12.621  15.459  17.606  0.00  0.00    +0.000 HD
ENDBRANCH  27  29
ENDBRANCH  26  27
ENDBRANCH  25  26
ENDBRANCH  22  25
ENDBRANCH  18  19
ENDBRANCH  17  18
ENDBRANCH   6  17
TORSDOF 9
ENDMDL
MODEL 3
REMARK VINA RESULT:      -7.7      6.463     10.206
REMARK  Name = 
REMARK  12 active torsions:
REMARK  status: ('A' for Active; 'I' for Inactive)
REMARK    1  A    between atoms: C_1  and  O_2
REMARK    2  A    between atoms: O_2  and  C_3
REMARK    3  A    between atoms: C_6  and  C_7
REMARK    4  A    between atoms: C_8  and  C_9
REMARK    5  A    between atoms: C_13  and  C_14
REMARK    6  A    between atoms: C_16  and  C_17
REMARK    7  A    between atoms: C_17  and  O_18
REMARK    8  A    between atoms: O_18  and  C_19
REMARK    9  A    between atoms: C_22  and  C_23
REMARK   10  A    between atoms: C_23  and  C_24
REMARK   11  A    between atoms: C_24  and  C_25
REMARK   12  A    between atoms: C_25  and  O_27
REMARK                            x       y       z     vdW  Elec       q    Type
REMARK                         _______ _______ _______ _____ _____    ______ ____
ROOT
ATOM      1  C   UNL     1       1.288   8.528  20.298  0.00  0.00    +0.000 A 
ATOM      2  C   UNL     1       1.915   7.413  20.860  0.00  0.00    +0.000 A 
ATOM      3  C   UNL     1       2.692   6.556  20.077  0.00  0.00    +0.000 A 
ATOM      4  C   UNL     1       2.752   6.684  18.684  0.00  0.00    +0.000 A 
ATOM      5  C   UNL     1       2.130   7.825  18.152  0.00  0.00    +0.000 A 
ATOM      6  C   UNL     1       1.494   8.808  18.942  0.00  0.00    +0.000 A 
ENDROOT
BRANCH   4   7
ATOM      7  C   UNL     1       3.422   5.648  17.835  0.00  0.00    +0.000 A 
ATOM      8  C   UNL     1       2.799   4.380  17.598  0.00  0.00    +0.000 A 
ATOM      9  C   UNL     1       1.403   3.996  18.043  0.00  0.00    +0.000 C 
ATOM     10  C   UNL     1       3.480   3.366  16.893  0.00  0.00    +0.000 A 
ATOM     11  C   UNL     1       4.726   3.594  16.336  0.00  0.00    +0.000 A 
ATOM     12  C   UNL     1       5.318   4.837  16.483  0.00  0.00    +0.000 A 
ATOM     13  C   UNL     1       4.703   5.861  17.234  0.00  0.00    +0.000 A 
ATOM     14  C   UNL     1       5.481   7.156  17.317  0.00  0.00    +0.000 C 
ENDBRANCH   4   7
BRANCH   1  16
ATOM     15  C   UNL     1      -0.523   8.731  21.797  0.00  0.00    +0.000 C 
ATOM     16  O   UNL     1       0.491   9.376  21.022  0.00  0.00    +0.000 OA
ENDBRANCH   1  16
BRANCH   6  17
ATOM     17  C   UNL     1       1.004  10.077  18.262  0.00  0.00    +0.000 C 
BRANCH  17  18
ATOM     18  O   UNL     1      -0.191   9.767  17.519  0.00  0.00    +0.000 OA
BRANCH  18  19
ATOM     19  C   UNL     1      -1.358  10.395  17.851  0.00  0.00    +0.000 A 
ATOM     20  C   UNL     1      -2.497   9.909  17.200  0.00  0.00    +0.000 A 
ATOM     21  C   UNL     1      -3.765  10.431  17.477  0.00  0.00    +0.000 A 
ATOM     22  C   UNL     1      -3.925  11.427  18.446  0.00  0.00    +0.000 A 
ATOM     23  C   UNL     1      -2.781  11.923  19.084  0.00  0.00    +0.000 A 
ATOM     24  C   UNL     1      -1.506  11.412  18.789  0.00  0.00    +0.000 A 
BRANCH  22  25
ATOM     25  C   UNL     1      -5.303  11.938  18.807  0.00  0.00    +0.000 C 
BRANCH  25  26
ATOM     26  C   UNL     1      -6.401  11.046  18.224  0.00  0.00    +0.000 C 
BRANCH  26  27
ATOM     27  C   UNL     1      -7.014  10.151  19.279  0.00  0.00    +0.000 C 
ATOM     28  O   UNL     1      -6.796   8.965  19.415  0.00  0.00    +0.000 OA
BRANCH  27  29
ATOM     29  O   UNL     1      -7.881  10.828  20.081  0.00  0.00    +0.000 OA
ATOM     30  H   UNL     1      -8.818  10.596  19.936  0.00  0.00    +0.000 HD
ENDBRANCH  27  29
ENDBRANCH  26  27
ENDBRANCH  25  26
ENDBRANCH  22  25
ENDBRANCH  18  19
ENDBRANCH  17  18
ENDBRANCH   6  17
TORSDOF 9
ENDMDL
MODEL 4
REMARK VINA RESULT:      -7.7      0.311      1.655
REMARK  Name = 
REMARK  12 active torsions:
REMARK  status: ('A' for Active; 'I' for Inactive)
REMARK    1  A    between atoms: C_1  and  O_2
REMARK    2  A    between atoms: O_2  and  C_3
REMARK    3  A    between atoms: C_6  and  C_7
REMARK    4  A    between atoms: C_8  and  C_9
REMARK    5  A    between atoms: C_13  and  C_14
REMARK    6  A    between atoms: C_16  and  C_17
REMARK    7  A    between atoms: C_17  and  O_18
REMARK    8  A    between atoms: O_18  and  C_19
REMARK    9  A    between atoms: C_22  and  C_23
REMARK   10  A    between atoms: C_23  and  C_24
REMARK   11  A    between atoms: C_24  and  C_25
REMARK   12  A    between atoms: C_25  and  O_27
REMARK                            x       y       z     vdW  Elec       q    Type
REMARK                         _______ _______ _______ _____ _____    ______ ____
ROOT
ATOM      1  C   UNL     1       6.558   5.440  16.351  0.00  0.00    +0.000 A 
ATOM      2  C   UNL     1       5.426   4.721  15.957  0.00  0.00    +0.000 A 
ATOM      3  C   UNL     1       4.371   4.502  16.846  0.00  0.00    +0.000 A 
ATOM      4  C   UNL     1       4.464   4.851  18.199  0.00  0.00    +0.000 A 
ATOM      5  C   UNL     1       5.603   5.589  18.558  0.00  0.00    +0.000 A 
ATOM      6  C   UNL     1       6.599   5.986  17.639  0.00  0.00    +0.000 A 
ENDROOT
BRANCH   4   7
ATOM      7  C   UNL     1       3.416   4.434  19.184  0.00  0.00    +0.000 A 
ATOM      8  C   UNL     1       2.518   5.396  19.751  0.00  0.00    +0.000 A 
ATOM      9  C   UNL     1       2.434   6.853  19.350  0.00  0.00    +0.000 C 
ATOM     10  C   UNL     1       1.607   5.020  20.759  0.00  0.00    +0.000 A 
ATOM     11  C   UNL     1       1.492   3.702  21.167  0.00  0.00    +0.000 A 
ATOM     12  C   UNL     1       2.294   2.738  20.579  0.00  0.00    +0.000 A 
ATOM     13  C   UNL     1       3.264   3.076  19.612  0.00  0.00    +0.000 A 
ATOM     14  C   UNL     1       4.073   1.916  19.077  0.00  0.00    +0.000 C 
ENDBRANCH   4   7
BRANCH   1  16
ATOM     15  C   UNL     1       7.492   5.102  14.209  0.00  0.00    +0.000 C 
ATOM     16  O   UNL     1       7.630   5.651  15.522  0.00  0.00    +0.000 OA
ENDBRANCH   1  16
BRANCH   6  17
ATOM     17  C   UNL     1       7.696   6.923  18.120  0.00  0.00    +0.000 C 
BRANCH  17  18
ATOM     18  O   UNL     1       7.668   8.115  17.312  0.00  0.00    +0.000 OA
BRANCH  18  19
ATOM     19  C   UNL     1       8.156   9.280  17.834  0.00  0.00    +0.000 A 
ATOM     20  C   UNL     1       8.943   9.132  18.981  0.00  0.00    +0.000 A 
ATOM     21  C   UNL     1       9.541  10.237  19.594  0.00  0.00    +0.000 A 
ATOM     22  C   UNL     1       9.398  11.515  19.046  0.00  0.00    +0.000 A 
ATOM     23  C   UNL     1       8.597  11.664  17.906  0.00  0.00    +0.000 A 
ATOM     24  C   UNL     1       7.979  10.555  17.305  0.00  0.00    +0.000 A 
BRANCH  22  25
ATOM     25  C   UNL     1      10.110  12.703  19.658  0.00  0.00    +0.000 C 
BRANCH  25  26
ATOM     26  C   UNL     1       9.351  14.005  19.397  0.00  0.00    +0.000 C 
BRANCH  26  27
ATOM     27  C   UNL     1      10.094  14.901  18.430  0.00  0.00    +0.000 C 
ATOM     28  O   UNL     1      11.225  15.318  18.578  0.00  0.00    +0.000 OA
BRANCH  27  29
ATOM     29  O   UNL     1       9.338  15.220  17.345  0.00  0.00    +0.000 OA
ATOM     30  H   UNL     1       8.511  15.693  17.564  0.00  0.00    +0.000 HD
ENDBRANCH  27  29
ENDBRANCH  26  27
ENDBRANCH  25  26
ENDBRANCH  22  25
ENDBRANCH  18  19
ENDBRANCH  17  18
ENDBRANCH   6  17
TORSDOF 9
ENDMDL
MODEL 5
REMARK VINA RESULT:      -7.6      6.553     10.272
REMARK  Name = 
REMARK  12 active torsions:
REMARK  status: ('A' for Active; 'I' for Inactive)
REMARK    1  A    between atoms: C_1  and  O_2
REMARK    2  A    between atoms: O_2  and  C_3
REMARK    3  A    between atoms: C_6  and  C_7
REMARK    4  A    between atoms: C_8  and  C_9
REMARK    5  A    between atoms: C_13  and  C_14
REMARK    6  A    between atoms: C_16  and  C_17
REMARK    7  A    between atoms: C_17  and  O_18
REMARK    8  A    between atoms: O_18  and  C_19
REMARK    9  A    between atoms: C_22  and  C_23
REMARK   10  A    between atoms: C_23  and  C_24
REMARK   11  A    between atoms: C_24  and  C_25
REMARK   12  A    between atoms: C_25  and  O_27
REMARK                            x       y       z     vdW  Elec       q    Type
REMARK                         _______ _______ _______ _____ _____    ______ ____
ROOT
ATOM      1  C   UNL     1       1.079   8.690  20.333  0.00  0.00    +0.000 A 
ATOM      2  C   UNL     1       1.690   7.589  20.940  0.00  0.00    +0.000 A 
ATOM      3  C   UNL     1       2.479   6.707  20.198  0.00  0.00    +0.000 A 
ATOM      4  C   UNL     1       2.567   6.794  18.803  0.00  0.00    +0.000 A 
ATOM      5  C   UNL     1       1.960   7.920  18.226  0.00  0.00    +0.000 A 
ATOM      6  C   UNL     1       1.313   8.929  18.974  0.00  0.00    +0.000 A 
ENDROOT
BRANCH   4   7
ATOM      7  C   UNL     1       3.249   5.730  17.999  0.00  0.00    +0.000 A 
ATOM      8  C   UNL     1       4.514   5.980  17.375  0.00  0.00    +0.000 A 
ATOM      9  C   UNL     1       5.338   7.239  17.547  0.00  0.00    +0.000 C 
ATOM     10  C   UNL     1       5.099   5.017  16.529  0.00  0.00    +0.000 A 
ATOM     11  C   UNL     1       4.517   3.775  16.346  0.00  0.00    +0.000 A 
ATOM     12  C   UNL     1       3.333   3.477  17.000  0.00  0.00    +0.000 A 
ATOM     13  C   UNL     1       2.678   4.431  17.807  0.00  0.00    +0.000 A 
ATOM     14  C   UNL     1       1.387   3.963  18.440  0.00  0.00    +0.000 C 
ENDBRANCH   4   7
BRANCH   1  16
ATOM     15  C   UNL     1      -0.052   9.163  22.350  0.00  0.00    +0.000 C 
ATOM     16  O   UNL     1       0.270   9.562  21.015  0.00  0.00    +0.000 OA
ENDBRANCH   1  16
BRANCH   6  17
ATOM     17  C   UNL     1       0.842  10.179  18.247  0.00  0.00    +0.000 C 
BRANCH  17  18
ATOM     18  O   UNL     1      -0.277   9.829  17.410  0.00  0.00    +0.000 OA
BRANCH  18  19
ATOM     19  C   UNL     1      -1.488  10.416  17.643  0.00  0.00    +0.000 A 
ATOM     20  C   UNL     1      -2.516  10.015  16.784  0.00  0.00    +0.000 A 
ATOM     21  C   UNL     1      -3.817  10.504  16.937  0.00  0.00    +0.000 A 
ATOM     22  C   UNL     1      -4.128  11.378  17.984  0.00  0.00    +0.000 A 
ATOM     23  C   UNL     1      -3.093  11.792  18.833  0.00  0.00    +0.000 A 
ATOM     24  C   UNL     1      -1.782  11.315  18.664  0.00  0.00    +0.000 A 
BRANCH  22  25
ATOM     25  C   UNL     1      -5.550  11.847  18.203  0.00  0.00    +0.000 C 
BRANCH  25  26
ATOM     26  C   UNL     1      -5.938  11.784  19.681  0.00  0.00    +0.000 C 
BRANCH  26  27
ATOM     27  C   UNL     1      -6.935  10.678  19.951  0.00  0.00    +0.000 C 
ATOM     28  O   UNL     1      -7.368  10.366  21.042  0.00  0.00    +0.000 OA
BRANCH  27  29
ATOM     29  O   UNL     1      -7.301  10.031  18.811  0.00  0.00    +0.000 OA
ATOM     30  H   UNL     1      -7.913  10.541  18.246  0.00  0.00    +0.000 HD
ENDBRANCH  27  29
ENDBRANCH  26  27
ENDBRANCH  25  26
ENDBRANCH  22  25
ENDBRANCH  18  19
ENDBRANCH  17  18
ENDBRANCH   6  17
TORSDOF 9
ENDMDL
MODEL 6
REMARK VINA RESULT:      -7.6      1.030      1.271
REMARK  Name = 
REMARK  12 active torsions:
REMARK  status: ('A' for Active; 'I' for Inactive)
REMARK    1  A    between atoms: C_1  and  O_2
REMARK    2  A    between atoms: O_2  and  C_3
REMARK    3  A    between atoms: C_6  and  C_7
REMARK    4  A    between atoms: C_8  and  C_9
REMARK    5  A    between atoms: C_13  and  C_14
REMARK    6  A    between atoms: C_16  and  C_17
REMARK    7  A    between atoms: C_17  and  O_18
REMARK    8  A    between atoms: O_18  and  C_19
REMARK    9  A    between atoms: C_22  and  C_23
REMARK   10  A    between atoms: C_23  and  C_24
REMARK   11  A    between atoms: C_24  and  C_25
REMARK   12  A    between atoms: C_25  and  O_27
REMARK                            x       y       z     vdW  Elec       q    Type
REMARK                         _______ _______ _______ _____ _____    ______ ____
ROOT
ATOM      1  C   UNL     1       6.512   5.497  16.373  0.00  0.00    +0.000 A 
ATOM      2  C   UNL     1       5.340   4.815  16.035  0.00  0.00    +0.000 A 
ATOM      3  C   UNL     1       4.330   4.614  16.979  0.00  0.00    +0.000 A 
ATOM      4  C   UNL     1       4.508   4.944  18.328  0.00  0.00    +0.000 A 
ATOM      5  C   UNL     1       5.685   5.646  18.631  0.00  0.00    +0.000 A 
ATOM      6  C   UNL     1       6.639   6.027  17.662  0.00  0.00    +0.000 A 
ENDROOT
BRANCH   4   7
ATOM      7  C   UNL     1       3.504   4.544  19.365  0.00  0.00    +0.000 A 
ATOM      8  C   UNL     1       3.500   3.219  19.910  0.00  0.00    +0.000 A 
ATOM      9  C   UNL     1       4.534   2.153  19.618  0.00  0.00    +0.000 C 
ATOM     10  C   UNL     1       2.487   2.813  20.802  0.00  0.00    +0.000 A 
ATOM     11  C   UNL     1       1.523   3.702  21.244  0.00  0.00    +0.000 A 
ATOM     12  C   UNL     1       1.549   5.011  20.794  0.00  0.00    +0.000 A 
ATOM     13  C   UNL     1       2.505   5.447  19.852  0.00  0.00    +0.000 A 
ATOM     14  C   UNL     1       2.394   6.899  19.445  0.00  0.00    +0.000 C 
ENDBRANCH   4   7
BRANCH   1  16
ATOM     15  C   UNL     1       7.324   5.143  14.184  0.00  0.00    +0.000 C 
ATOM     16  O   UNL     1       7.542   5.688  15.488  0.00  0.00    +0.000 OA
ENDBRANCH   1  16
BRANCH   6  17
ATOM     17  C   UNL     1       7.788   6.926  18.091  0.00  0.00    +0.000 C 
BRANCH  17  18
ATOM     18  O   UNL     1       7.723   8.147  17.330  0.00  0.00    +0.000 OA
BRANCH  18  19
ATOM     19  C   UNL     1       8.219   9.297  17.877  0.00  0.00    +0.000 A 
ATOM     20  C   UNL     1       8.938   9.125  19.064  0.00  0.00    +0.000 A 
ATOM     21  C   UNL     1       9.538  10.211  19.709  0.00  0.00    +0.000 A 
ATOM     22  C   UNL     1       9.465  11.493  19.155  0.00  0.00    +0.000 A 
ATOM     23  C   UNL     1       8.730  11.666  17.974  0.00  0.00    +0.000 A 
ATOM     24  C   UNL     1       8.111  10.576  17.340  0.00  0.00    +0.000 A 
BRANCH  22  25
ATOM     25  C   UNL     1      10.180  12.658  19.805  0.00  0.00    +0.000 C 
BRANCH  25  26
ATOM     26  C   UNL     1       9.666  12.907  21.224  0.00  0.00    +0.000 C 
BRANCH  26  27
ATOM     27  C   UNL     1       9.980  14.311  21.693  0.00  0.00    +0.000 C 
ATOM     28  O   UNL     1       9.572  14.824  22.716  0.00  0.00    +0.000 OA
BRANCH  27  29
ATOM     29  O   UNL     1      10.781  14.976  20.817  0.00  0.00    +0.000 OA
ATOM     30  H   UNL     1      10.757  15.948  20.917  0.00  0.00    +0.000 HD
ENDBRANCH  27  29
ENDBRANCH  26  27
ENDBRANCH  25  26
ENDBRANCH  22  25
ENDBRANCH  18  19
ENDBRANCH  17  18
ENDBRANCH   6  17
TORSDOF 9
ENDMDL
MODEL 7
REMARK VINA RESULT:      -7.6      1.395      1.847
REMARK  Name = 
REMARK  12 active torsions:
REMARK  status: ('A' for Active; 'I' for Inactive)
REMARK    1  A    between atoms: C_1  and  O_2
REMARK    2  A    between atoms: O_2  and  C_3
REMARK    3  A    between atoms: C_6  and  C_7
REMARK    4  A    between atoms: C_8  and  C_9
REMARK    5  A    between atoms: C_13  and  C_14
REMARK    6  A    between atoms: C_16  and  C_17
REMARK    7  A    between atoms: C_17  and  O_18
REMARK    8  A    between atoms: O_18  and  C_19
REMARK    9  A    between atoms: C_22  and  C_23
REMARK   10  A    between atoms: C_23  and  C_24
REMARK   11  A    between atoms: C_24  and  C_25
REMARK   12  A    between atoms: C_25  and  O_27
REMARK                            x       y       z     vdW  Elec       q    Type
REMARK                         _______ _______ _______ _____ _____    ______ ____
ROOT
ATOM      1  C   UNL     1       6.519   5.591  16.116  0.00  0.00    +0.000 A 
ATOM      2  C   UNL     1       5.335   4.914  15.813  0.00  0.00    +0.000 A 
ATOM      3  C   UNL     1       4.321   4.779  16.765  0.00  0.00    +0.000 A 
ATOM      4  C   UNL     1       4.504   5.176  18.095  0.00  0.00    +0.000 A 
ATOM      5  C   UNL     1       5.694   5.871  18.363  0.00  0.00    +0.000 A 
ATOM      6  C   UNL     1       6.655   6.184  17.377  0.00  0.00    +0.000 A 
ENDROOT
BRANCH   4   7
ATOM      7  C   UNL     1       3.493   4.848  19.151  0.00  0.00    +0.000 A 
ATOM      8  C   UNL     1       3.478   3.559  19.777  0.00  0.00    +0.000 A 
ATOM      9  C   UNL     1       4.507   2.470  19.556  0.00  0.00    +0.000 C 
ATOM     10  C   UNL     1       2.459   3.216  20.687  0.00  0.00    +0.000 A 
ATOM     11  C   UNL     1       1.498   4.136  21.069  0.00  0.00    +0.000 A 
ATOM     12  C   UNL     1       1.535   5.415  20.538  0.00  0.00    +0.000 A 
ATOM     13  C   UNL     1       2.499   5.785  19.576  0.00  0.00    +0.000 A 
ATOM     14  C   UNL     1       2.399   7.210  19.079  0.00  0.00    +0.000 C 
ENDBRANCH   4   7
BRANCH   1  16
ATOM     15  C   UNL     1       7.371   5.019  13.991  0.00  0.00    +0.000 C 
ATOM     16  O   UNL     1       7.552   5.718  15.224  0.00  0.00    +0.000 OA
ENDBRANCH   1  16
BRANCH   6  17
ATOM     17  C   UNL     1       7.820   7.084  17.761  0.00  0.00    +0.000 C 
BRANCH  17  18
ATOM     18  O   UNL     1       7.432   8.454  17.540  0.00  0.00    +0.000 OA
BRANCH  18  19
ATOM     19  C   UNL     1       8.204   9.453  18.063  0.00  0.00    +0.000 A 
ATOM     20  C   UNL     1       8.106  10.684  17.405  0.00  0.00    +0.000 A 
ATOM     21  C   UNL     1       8.808  11.804  17.860  0.00  0.00    +0.000 A 
ATOM     22  C   UNL     1       9.595  11.727  19.013  0.00  0.00    +0.000 A 
ATOM     23  C   UNL     1       9.705  10.489  19.662  0.00  0.00    +0.000 A 
ATOM     24  C   UNL     1       9.015   9.360  19.190  0.00  0.00    +0.000 A 
BRANCH  22  25
ATOM     25  C   UNL     1      10.292  12.956  19.556  0.00  0.00    +0.000 C 
BRANCH  25  26
ATOM     26  C   UNL     1      10.462  12.877  21.074  0.00  0.00    +0.000 C 
BRANCH  26  27
ATOM     27  C   UNL     1       9.237  13.389  21.801  0.00  0.00    +0.000 C 
ATOM     28  O   UNL     1       8.653  14.426  21.562  0.00  0.00    +0.000 OA
BRANCH  27  29
ATOM     29  O   UNL     1       8.847  12.549  22.799  0.00  0.00    +0.000 OA
ATOM     30  H   UNL     1       8.238  11.843  22.507  0.00  0.00    +0.000 HD
ENDBRANCH  27  29
ENDBRANCH  26  27
ENDBRANCH  25  26
ENDBRANCH  22  25
ENDBRANCH  18  19
ENDBRANCH  17  18
ENDBRANCH   6  17
TORSDOF 9
ENDMDL
MODEL 8
REMARK VINA RESULT:      -7.5      0.988      1.992
REMARK  Name = 
REMARK  12 active torsions:
REMARK  status: ('A' for Active; 'I' for Inactive)
REMARK    1  A    between atoms: C_1  and  O_2
REMARK    2  A    between atoms: O_2  and  C_3
REMARK    3  A    between atoms: C_6  and  C_7
REMARK    4  A    between atoms: C_8  and  C_9
REMARK    5  A    between atoms: C_13  and  C_14
REMARK    6  A    between atoms: C_16  and  C_17
REMARK    7  A    between atoms: C_17  and  O_18
REMARK    8  A    between atoms: O_18  and  C_19
REMARK    9  A    between atoms: C_22  and  C_23
REMARK   10  A    between atoms: C_23  and  C_24
REMARK   11  A    between atoms: C_24  and  C_25
REMARK   12  A    between atoms: C_25  and  O_27
REMARK                            x       y       z     vdW  Elec       q    Type
REMARK                         _______ _______ _______ _____ _____    ______ ____
ROOT
ATOM      1  C   UNL     1       6.652   5.497  15.764  0.00  0.00    +0.000 A 
ATOM      2  C   UNL     1       5.510   4.708  15.606  0.00  0.00    +0.000 A 
ATOM      3  C   UNL     1       4.489   4.725  16.558  0.00  0.00    +0.000 A 
ATOM      4  C   UNL     1       4.628   5.404  17.775  0.00  0.00    +0.000 A 
ATOM      5  C   UNL     1       5.776   6.203  17.895  0.00  0.00    +0.000 A 
ATOM      6  C   UNL     1       6.736   6.351  16.870  0.00  0.00    +0.000 A 
ENDROOT
BRANCH   4   7
ATOM      7  C   UNL     1       3.617   5.255  18.870  0.00  0.00    +0.000 A 
ATOM      8  C   UNL     1       2.657   6.286  19.128  0.00  0.00    +0.000 A 
ATOM      9  C   UNL     1       2.469   7.532  18.289  0.00  0.00    +0.000 C 
ATOM     10  C   UNL     1       1.781   6.192  20.228  0.00  0.00    +0.000 A 
ATOM     11  C   UNL     1       1.762   5.067  21.035  0.00  0.00    +0.000 A 
ATOM     12  C   UNL     1       2.626   4.021  20.761  0.00  0.00    +0.000 A 
ATOM     13  C   UNL     1       3.564   4.097  19.710  0.00  0.00    +0.000 A 
ATOM     14  C   UNL     1       4.450   2.882  19.547  0.00  0.00    +0.000 C 
ENDBRANCH   4   7
BRANCH   1  16
ATOM     15  C   UNL     1       7.397   4.884  13.610  0.00  0.00    +0.000 C 
ATOM     16  O   UNL     1       7.693   5.487  14.872  0.00  0.00    +0.000 OA
ENDBRANCH   1  16
BRANCH   6  17
ATOM     17  C   UNL     1       7.847   7.374  17.060  0.00  0.00    +0.000 C 
BRANCH  17  18
ATOM     18  O   UNL     1       7.464   8.275  18.117  0.00  0.00    +0.000 OA
BRANCH  18  19
ATOM     19  C   UNL     1       8.147   9.449  18.266  0.00  0.00    +0.000 A 
ATOM     20  C   UNL     1       9.105   9.452  19.285  0.00  0.00    +0.000 A 
ATOM     21  C   UNL     1       9.907  10.573  19.520  0.00  0.00    +0.000 A 
ATOM     22  C   UNL     1       9.794  11.707  18.708  0.00  0.00    +0.000 A 
ATOM     23  C   UNL     1       8.823  11.708  17.699  0.00  0.00    +0.000 A 
ATOM     24  C   UNL     1       8.004  10.588  17.479  0.00  0.00    +0.000 A 
BRANCH  22  25
ATOM     25  C   UNL     1      10.715  12.892  18.906  0.00  0.00    +0.000 C 
BRANCH  25  26
ATOM     26  C   UNL     1      10.353  14.043  17.966  0.00  0.00    +0.000 C 
BRANCH  26  27
ATOM     27  C   UNL     1      11.350  14.175  16.834  0.00  0.00    +0.000 C 
ATOM     28  O   UNL     1      12.254  13.401  16.594  0.00  0.00    +0.000 OA
BRANCH  27  29
ATOM     29  O   UNL     1      11.136  15.296  16.093  0.00  0.00    +0.000 OA
ATOM     30  H   UNL     1      10.928  16.088  16.625  0.00  0.00    +0.000 HD
ENDBRANCH  27  29
ENDBRANCH  26  27
ENDBRANCH  25  26
ENDBRANCH  22  25
ENDBRANCH  18  19
ENDBRANCH  17  18
ENDBRANCH   6  17
TORSDOF 9
ENDMDL
MODEL 9
REMARK VINA RESULT:      -7.5      1.325      2.408
REMARK  Name = 
REMARK  12 active torsions:
REMARK  status: ('A' for Active; 'I' for Inactive)
REMARK    1  A    between atoms: C_1  and  O_2
REMARK    2  A    between atoms: O_2  and  C_3
REMARK    3  A    between atoms: C_6  and  C_7
REMARK    4  A    between atoms: C_8  and  C_9
REMARK    5  A    between atoms: C_13  and  C_14
REMARK    6  A    between atoms: C_16  and  C_17
REMARK    7  A    between atoms: C_17  and  O_18
REMARK    8  A    between atoms: O_18  and  C_19
REMARK    9  A    between atoms: C_22  and  C_23
REMARK   10  A    between atoms: C_23  and  C_24
REMARK   11  A    between atoms: C_24  and  C_25
REMARK   12  A    between atoms: C_25  and  O_27
REMARK                            x       y       z     vdW  Elec       q    Type
REMARK                         _______ _______ _______ _____ _____    ______ ____
ROOT
ATOM      1  C   UNL     1       6.445   5.466  16.226  0.00  0.00    +0.000 A 
ATOM      2  C   UNL     1       5.287   4.807  15.807  0.00  0.00    +0.000 A 
ATOM      3  C   UNL     1       4.228   4.584  16.690  0.00  0.00    +0.000 A 
ATOM      4  C   UNL     1       4.338   4.868  18.057  0.00  0.00    +0.000 A 
ATOM      5  C   UNL     1       5.503   5.548  18.443  0.00  0.00    +0.000 A 
ATOM      6  C   UNL     1       6.510   5.951  17.538  0.00  0.00    +0.000 A 
ENDROOT
BRANCH   4   7
ATOM      7  C   UNL     1       3.279   4.444  19.027  0.00  0.00    +0.000 A 
ATOM      8  C   UNL     1       2.460   5.415  19.690  0.00  0.00    +0.000 A 
ATOM      9  C   UNL     1       2.473   6.903  19.412  0.00  0.00    +0.000 C 
ATOM     10  C   UNL     1       1.542   5.021  20.684  0.00  0.00    +0.000 A 
ATOM     11  C   UNL     1       1.341   3.685  20.986  0.00  0.00    +0.000 A 
ATOM     12  C   UNL     1       2.064   2.720  20.304  0.00  0.00    +0.000 A 
ATOM     13  C   UNL     1       3.039   3.070  19.347  0.00  0.00    +0.000 A 
ATOM     14  C   UNL     1       3.756   1.905  18.701  0.00  0.00    +0.000 C 
ENDBRANCH   4   7
BRANCH   1  16
ATOM     15  C   UNL     1       7.419   5.066  14.113  0.00  0.00    +0.000 C 
ATOM     16  O   UNL     1       7.521   5.676  15.403  0.00  0.00    +0.000 OA
ENDBRANCH   1  16
BRANCH   6  17
ATOM     17  C   UNL     1       7.642   6.825  18.055  0.00  0.00    +0.000 C 
BRANCH  17  18
ATOM     18  O   UNL     1       7.563   8.109  17.406  0.00  0.00    +0.000 OA
BRANCH  18  19
ATOM     19  C   UNL     1       8.202   9.177  17.971  0.00  0.00    +0.000 A 
ATOM     20  C   UNL     1       7.982  10.403  17.335  0.00  0.00    +0.000 A 
ATOM     21  C   UNL     1       8.540  11.585  17.831  0.00  0.00    +0.000 A 
ATOM     22  C   UNL     1       9.300  11.571  19.005  0.00  0.00    +0.000 A 
ATOM     23  C   UNL     1       9.533  10.339  19.632  0.00  0.00    +0.000 A 
ATOM     24  C   UNL     1       8.989   9.150  19.118  0.00  0.00    +0.000 A 
BRANCH  22  25
ATOM     25  C   UNL     1       9.839  12.858  19.592  0.00  0.00    +0.000 C 
BRANCH  25  26
ATOM     26  C   UNL     1       8.810  13.530  20.504  0.00  0.00    +0.000 C 
BRANCH  26  27
ATOM     27  C   UNL     1       9.335  13.692  21.914  0.00  0.00    +0.000 C 
ATOM     28  O   UNL     1       8.999  13.030  22.875  0.00  0.00    +0.000 OA
BRANCH  27  29
ATOM     29  O   UNL     1      10.242  14.702  22.009  0.00  0.00    +0.000 OA
ATOM     30  H   UNL     1      10.940  14.547  22.674  0.00  0.00    +0.000 HD
ENDBRANCH  27  29
ENDBRANCH  26  27
ENDBRANCH  25  26
ENDBRANCH  22  25
ENDBRANCH  18  19
ENDBRANCH  17  18
ENDBRANCH   6  17
TORSDOF 9
ENDMDL
