MODEL 1
REMARK VINA RESULT:      -7.3      0.000      0.000
REMARK  Name = 
REMARK  11 active torsions:
REMARK  status: ('A' for Active; 'I' for Inactive)
REMARK    1  A    between atoms: C_1  and  O_2
REMARK    2  A    between atoms: O_2  and  C_3
REMARK    3  A    between atoms: C_7  and  C_8
REMARK    4  A    between atoms: C_8  and  C_9
REMARK    5  A    between atoms: C_11  and  O_12
REMARK    6  A    between atoms: C_13  and  C_14
REMARK    7  A    between atoms: C_16  and  O_17
REMARK    8  A    between atoms: C_18  and  C_19
REMARK    9  A    between atoms: C_20  and  O_21
REMARK   10  A    between atoms: C_22  and  C_23
REMARK   11  A    between atoms: C_23  and  C_24
REMARK                            x       y       z     vdW  Elec       q    Type
REMARK                         _______ _______ _______ _____ _____    ______ ____
ROOT
ATOM      1  C   UNL     1       5.485   5.521  18.041  0.00  0.00    +0.000 C 
ATOM      2  C   UNL     1       6.334   6.514  17.268  0.00  0.00    +0.000 C 
ATOM      3  C   UNL     1       5.958   6.272  15.863  0.00  0.00    +0.000 C 
ATOM      4  O   UNL     1       5.369   7.093  15.184  0.00  0.00    +0.000 OA
ATOM      5  C   UNL     1       6.332   4.896  15.375  0.00  0.00    +0.000 C 
ATOM      6  C   UNL     1       6.063   3.894  16.293  0.00  0.00    +0.000 C 
ATOM      7  C   UNL     1       4.908   4.264  17.227  0.00  0.00    +0.000 C 
ATOM      8  C   UNL     1       3.746   4.218  16.146  0.00  0.00    +0.000 C 
ATOM      9  C   UNL     1       4.014   3.856  18.408  0.00  0.00    +0.000 A 
ATOM     10  C   UNL     1       3.224   2.747  18.694  0.00  0.00    +0.000 A 
ATOM     11  C   UNL     1       1.982   2.899  19.395  0.00  0.00    +0.000 A 
ATOM     12  C   UNL     1       1.040   1.729  19.561  0.00  0.00    +0.000 C 
ATOM     13  C   UNL     1       1.583   4.183  19.853  0.00  0.00    +0.000 A 
ATOM     14  C   UNL     1       2.373   5.302  19.637  0.00  0.00    +0.000 A 
ATOM     15  C   UNL     1       3.568   5.104  18.955  0.00  0.00    +0.000 A 
ATOM     16  O   UNL     1       4.337   6.170  18.559  0.00  0.00    +0.000 OA
ENDROOT
BRANCH   5  17
ATOM     17  C   UNL     1       6.638   4.805  13.907  0.00  0.00    +0.000 C 
ATOM     18  C   UNL     1       5.843   3.808  13.062  0.00  0.00    +0.000 C 
ATOM     19  O   UNL     1       7.585   5.412  13.420  0.00  0.00    +0.000 OA
ENDBRANCH   5  17
BRANCH  14  20
ATOM     20  C   UNL     1       2.021   6.702  20.027  0.00  0.00    +0.000 C 
ATOM     21  C   UNL     1       2.132   7.832  19.032  0.00  0.00    +0.000 C 
ATOM     22  O   UNL     1       1.665   6.947  21.179  0.00  0.00    +0.000 OA
ENDBRANCH  14  20
BRANCH   1  24
ATOM     23  C   UNL     1       7.595   5.722  19.238  0.00  0.00    +0.000 C 
ATOM     24  O   UNL     1       6.354   5.018  19.119  0.00  0.00    +0.000 OA
ENDBRANCH   1  24
BRANCH   6  25
ATOM     25  O   UNL     1       6.299   2.558  16.088  0.00  0.00    +0.000 OA
ATOM     26  H   UNL     1       6.300   2.405  15.124  0.00  0.00    +0.000 HD
ENDBRANCH   6  25
BRANCH  10  27
ATOM     27  O   UNL     1       3.538   1.504  18.226  0.00  0.00    +0.000 OA
ATOM     28  H   UNL     1       3.362   0.851  18.921  0.00  0.00    +0.000 HD
ENDBRANCH  10  27
BRANCH  13  29
ATOM     29  O   UNL     1       0.375   4.370  20.481  0.00  0.00    +0.000 OA
ATOM     30  H   UNL     1       0.494   4.671  21.394  0.00  0.00    +0.000 HD
ENDBRANCH  13  29
TORSDOF 6
ENDMDL
MODEL 2
REMARK VINA RESULT:      -6.5      7.430     10.854
REMARK  Name = 
REMARK  11 active torsions:
REMARK  status: ('A' for Active; 'I' for Inactive)
REMARK    1  A    between atoms: C_1  and  O_2
REMARK    2  A    between atoms: O_2  and  C_3
REMARK    3  A    between atoms: C_7  and  C_8
REMARK    4  A    between atoms: C_8  and  C_9
REMARK    5  A    between atoms: C_11  and  O_12
REMARK    6  A    between atoms: C_13  and  C_14
REMARK    7  A    between atoms: C_16  and  O_17
REMARK    8  A    between atoms: C_18  and  C_19
REMARK    9  A    between atoms: C_20  and  O_21
REMARK   10  A    between atoms: C_22  and  C_23
REMARK   11  A    between atoms: C_23  and  C_24
REMARK                            x       y       z     vdW  Elec       q    Type
REMARK                         _______ _______ _______ _____ _____    ______ ____
ROOT
ATOM      1  C   UNL     1      -0.904  12.714  19.199  0.00  0.00    +0.000 C 
ATOM      2  C   UNL     1      -1.994  12.032  20.007  0.00  0.00    +0.000 C 
ATOM      3  C   UNL     1      -1.258  11.400  21.118  0.00  0.00    +0.000 C 
ATOM      4  O   UNL     1      -1.386  11.745  22.278  0.00  0.00    +0.000 OA
ATOM      5  C   UNL     1      -0.303  10.326  20.665  0.00  0.00    +0.000 C 
ATOM      6  C   UNL     1       0.417  10.670  19.532  0.00  0.00    +0.000 C 
ATOM      7  C   UNL     1       0.597  12.184  19.402  0.00  0.00    +0.000 C 
ATOM      8  C   UNL     1       1.571  12.382  20.641  0.00  0.00    +0.000 C 
ATOM      9  C   UNL     1       1.166  13.357  18.590  0.00  0.00    +0.000 A 
ATOM     10  C   UNL     1       2.424  13.673  18.084  0.00  0.00    +0.000 A 
ATOM     11  C   UNL     1       2.877  15.033  18.057  0.00  0.00    +0.000 A 
ATOM     12  C   UNL     1       4.299  15.366  17.668  0.00  0.00    +0.000 C 
ATOM     13  C   UNL     1       2.014  16.073  18.495  0.00  0.00    +0.000 A 
ATOM     14  C   UNL     1       0.734  15.802  18.952  0.00  0.00    +0.000 A 
ATOM     15  C   UNL     1       0.338  14.469  18.958  0.00  0.00    +0.000 A 
ATOM     16  O   UNL     1      -0.847  14.089  19.535  0.00  0.00    +0.000 OA
ENDROOT
BRANCH   5  17
ATOM     17  C   UNL     1      -0.072   9.222  21.658  0.00  0.00    +0.000 C 
ATOM     18  C   UNL     1       1.217   9.246  22.481  0.00  0.00    +0.000 C 
ATOM     19  O   UNL     1      -0.826   8.257  21.717  0.00  0.00    +0.000 OA
ENDBRANCH   5  17
BRANCH  14  20
ATOM     20  C   UNL     1      -0.230  16.813  19.486  0.00  0.00    +0.000 C 
ATOM     21  C   UNL     1      -1.293  17.410  18.597  0.00  0.00    +0.000 C 
ATOM     22  O   UNL     1      -0.141  17.189  20.654  0.00  0.00    +0.000 OA
ENDBRANCH  14  20
BRANCH   1  24
ATOM     23  C   UNL     1      -2.383  11.624  17.603  0.00  0.00    +0.000 C 
ATOM     24  O   UNL     1      -1.280  12.518  17.788  0.00  0.00    +0.000 OA
ENDBRANCH   1  24
BRANCH   6  25
ATOM     25  O   UNL     1       1.357   9.874  18.927  0.00  0.00    +0.000 OA
ATOM     26  H   UNL     1       1.008   8.962  18.919  0.00  0.00    +0.000 HD
ENDBRANCH   6  25
BRANCH  10  27
ATOM     27  O   UNL     1       3.306  12.703  17.704  0.00  0.00    +0.000 OA
ATOM     28  H   UNL     1       4.027  13.112  17.200  0.00  0.00    +0.000 HD
ENDBRANCH  10  27
BRANCH  13  29
ATOM     29  O   UNL     1       2.439  17.380  18.531  0.00  0.00    +0.000 OA
ATOM     30  H   UNL     1       3.032  17.579  17.792  0.00  0.00    +0.000 HD
ENDBRANCH  13  29
TORSDOF 6
ENDMDL
MODEL 3
REMARK VINA RESULT:      -6.5      6.917     10.277
REMARK  Name = 
REMARK  11 active torsions:
REMARK  status: ('A' for Active; 'I' for Inactive)
REMARK    1  A    between atoms: C_1  and  O_2
REMARK    2  A    between atoms: O_2  and  C_3
REMARK    3  A    between atoms: C_7  and  C_8
REMARK    4  A    between atoms: C_8  and  C_9
REMARK    5  A    between atoms: C_11  and  O_12
REMARK    6  A    between atoms: C_13  and  C_14
REMARK    7  A    between atoms: C_16  and  O_17
REMARK    8  A    between atoms: C_18  and  C_19
REMARK    9  A    between atoms: C_20  and  O_21
REMARK   10  A    between atoms: C_22  and  C_23
REMARK   11  A    between atoms: C_23  and  C_24
REMARK                            x       y       z     vdW  Elec       q    Type
REMARK                         _______ _______ _______ _____ _____    ______ ____
ROOT
ATOM      1  C   UNL     1       1.758  14.179  21.139  0.00  0.00    +0.000 C 
ATOM      2  C   UNL     1       1.503  15.555  21.727  0.00  0.00    +0.000 C 
ATOM      3  C   UNL     1       0.644  16.208  20.721  0.00  0.00    +0.000 C 
ATOM      4  O   UNL     1      -0.515  16.512  20.936  0.00  0.00    +0.000 OA
ATOM      5  C   UNL     1       1.329  16.413  19.395  0.00  0.00    +0.000 C 
ATOM      6  C   UNL     1       2.079  15.321  18.987  0.00  0.00    +0.000 C 
ATOM      7  C   UNL     1       1.539  14.007  19.558  0.00  0.00    +0.000 C 
ATOM      8  C   UNL     1       0.183  13.966  18.732  0.00  0.00    +0.000 C 
ATOM      9  C   UNL     1       1.685  12.482  19.661  0.00  0.00    +0.000 A 
ATOM     10  C   UNL     1       1.794  11.448  18.734  0.00  0.00    +0.000 A 
ATOM     11  C   UNL     1       1.179  10.178  18.986  0.00  0.00    +0.000 A 
ATOM     12  C   UNL     1       1.148   9.109  17.918  0.00  0.00    +0.000 C 
ATOM     13  C   UNL     1       0.505   9.951  20.216  0.00  0.00    +0.000 A 
ATOM     14  C   UNL     1       0.426  10.938  21.186  0.00  0.00    +0.000 A 
ATOM     15  C   UNL     1       1.038  12.152  20.898  0.00  0.00    +0.000 A 
ATOM     16  O   UNL     1       0.880  13.235  21.726  0.00  0.00    +0.000 OA
ENDROOT
BRANCH   5  17
ATOM     17  C   UNL     1       0.858  17.606  18.614  0.00  0.00    +0.000 C 
ATOM     18  C   UNL     1      -0.400  17.459  17.756  0.00  0.00    +0.000 C 
ATOM     19  O   UNL     1       1.529  18.630  18.557  0.00  0.00    +0.000 OA
ENDBRANCH   5  17
BRANCH  14  20
ATOM     20  C   UNL     1      -0.305  10.822  22.485  0.00  0.00    +0.000 C 
ATOM     21  C   UNL     1      -1.573  11.604  22.731  0.00  0.00    +0.000 C 
ATOM     22  O   UNL     1       0.143  10.106  23.380  0.00  0.00    +0.000 OA
ENDBRANCH  14  20
BRANCH   1  24
ATOM     23  C   UNL     1       3.811  14.874  22.246  0.00  0.00    +0.000 C 
ATOM     24  O   UNL     1       3.165  13.874  21.450  0.00  0.00    +0.000 OA
ENDBRANCH   1  24
BRANCH   6  25
ATOM     25  O   UNL     1       2.788  15.249  17.815  0.00  0.00    +0.000 OA
ATOM     26  H   UNL     1       2.424  15.922  17.210  0.00  0.00    +0.000 HD
ENDBRANCH   6  25
BRANCH  10  27
ATOM     27  O   UNL     1       2.383  11.637  17.518  0.00  0.00    +0.000 OA
ATOM     28  H   UNL     1       2.032  12.448  17.119  0.00  0.00    +0.000 HD
ENDBRANCH  10  27
BRANCH  13  29
ATOM     29  O   UNL     1      -0.140   8.762  20.465  0.00  0.00    +0.000 OA
ATOM     30  H   UNL     1      -0.314   8.278  19.645  0.00  0.00    +0.000 HD
ENDBRANCH  13  29
TORSDOF 6
ENDMDL
MODEL 4
REMARK VINA RESULT:      -6.2      8.425     10.228
REMARK  Name = 
REMARK  11 active torsions:
REMARK  status: ('A' for Active; 'I' for Inactive)
REMARK    1  A    between atoms: C_1  and  O_2
REMARK    2  A    between atoms: O_2  and  C_3
REMARK    3  A    between atoms: C_7  and  C_8
REMARK    4  A    between atoms: C_8  and  C_9
REMARK    5  A    between atoms: C_11  and  O_12
REMARK    6  A    between atoms: C_13  and  C_14
REMARK    7  A    between atoms: C_16  and  O_17
REMARK    8  A    between atoms: C_18  and  C_19
REMARK    9  A    between atoms: C_20  and  O_21
REMARK   10  A    between atoms: C_22  and  C_23
REMARK   11  A    between atoms: C_23  and  C_24
REMARK                            x       y       z     vdW  Elec       q    Type
REMARK                         _______ _______ _______ _____ _____    ______ ____
ROOT
ATOM      1  C   UNL     1      -0.839  12.098  20.847  0.00  0.00    +0.000 C 
ATOM      2  C   UNL     1       0.058  12.820  21.836  0.00  0.00    +0.000 C 
ATOM      3  C   UNL     1       0.749  13.826  21.007  0.00  0.00    +0.000 C 
ATOM      4  O   UNL     1       0.577  15.024  21.139  0.00  0.00    +0.000 OA
ATOM      5  C   UNL     1       1.644  13.219  19.958  0.00  0.00    +0.000 C 
ATOM      6  C   UNL     1       1.077  12.133  19.310  0.00  0.00    +0.000 C 
ATOM      7  C   UNL     1      -0.452  12.207  19.294  0.00  0.00    +0.000 C 
ATOM      8  C   UNL     1      -0.587  13.448  18.312  0.00  0.00    +0.000 C 
ATOM      9  C   UNL     1      -1.777  11.554  18.874  0.00  0.00    +0.000 A 
ATOM     10  C   UNL     1      -2.291  11.078  17.671  0.00  0.00    +0.000 A 
ATOM     11  C   UNL     1      -3.683  11.230  17.364  0.00  0.00    +0.000 A 
ATOM     12  C   UNL     1      -4.216  10.871  15.996  0.00  0.00    +0.000 C 
ATOM     13  C   UNL     1      -4.557  11.816  18.318  0.00  0.00    +0.000 A 
ATOM     14  C   UNL     1      -4.091  12.249  19.550  0.00  0.00    +0.000 A 
ATOM     15  C   UNL     1      -2.735  12.080  19.803  0.00  0.00    +0.000 A 
ATOM     16  O   UNL     1      -2.155  12.616  20.926  0.00  0.00    +0.000 OA
ENDROOT
BRANCH   5  17
ATOM     17  C   UNL     1       2.839  14.050  19.585  0.00  0.00    +0.000 C 
ATOM     18  C   UNL     1       2.934  14.581  18.154  0.00  0.00    +0.000 C 
ATOM     19  O   UNL     1       3.778  14.191  20.361  0.00  0.00    +0.000 OA
ENDBRANCH   5  17
BRANCH  14  20
ATOM     20  C   UNL     1      -4.912  12.928  20.599  0.00  0.00    +0.000 C 
ATOM     21  C   UNL     1      -5.149  14.418  20.551  0.00  0.00    +0.000 C 
ATOM     22  O   UNL     1      -5.378  12.275  21.532  0.00  0.00    +0.000 OA
ENDBRANCH  14  20
BRANCH   1  24
ATOM     23  C   UNL     1      -0.539  10.472  22.633  0.00  0.00    +0.000 C 
ATOM     24  O   UNL     1      -0.793  10.679  21.240  0.00  0.00    +0.000 OA
ENDBRANCH   1  24
BRANCH   6  25
ATOM     25  O   UNL     1       1.679  11.414  18.309  0.00  0.00    +0.000 OA
ATOM     26  H   UNL     1       2.644  11.496  18.428  0.00  0.00    +0.000 HD
ENDBRANCH   6  25
BRANCH  10  27
ATOM     27  O   UNL     1      -1.482  10.559  16.702  0.00  0.00    +0.000 OA
ATOM     28  H   UNL     1      -1.443   9.596  16.806  0.00  0.00    +0.000 HD
ENDBRANCH  10  27
BRANCH  13  29
ATOM     29  O   UNL     1      -5.886  12.024  18.033  0.00  0.00    +0.000 OA
ATOM     30  H   UNL     1      -6.458  11.548  18.653  0.00  0.00    +0.000 HD
ENDBRANCH  13  29
TORSDOF 6
ENDMDL
MODEL 5
REMARK VINA RESULT:      -6.2      8.692     10.437
REMARK  Name = 
REMARK  11 active torsions:
REMARK  status: ('A' for Active; 'I' for Inactive)
REMARK    1  A    between atoms: C_1  and  O_2
REMARK    2  A    between atoms: O_2  and  C_3
REMARK    3  A    between atoms: C_7  and  C_8
REMARK    4  A    between atoms: C_8  and  C_9
REMARK    5  A    between atoms: C_11  and  O_12
REMARK    6  A    between atoms: C_13  and  C_14
REMARK    7  A    between atoms: C_16  and  O_17
REMARK    8  A    between atoms: C_18  and  C_19
REMARK    9  A    between atoms: C_20  and  O_21
REMARK   10  A    between atoms: C_22  and  C_23
REMARK   11  A    between atoms: C_23  and  C_24
REMARK                            x       y       z     vdW  Elec       q    Type
REMARK                         _______ _______ _______ _____ _____    ______ ____
ROOT
ATOM      1  C   UNL     1      -1.291  12.394  20.941  0.00  0.00    +0.000 C 
ATOM      2  C   UNL     1      -0.682  13.358  21.943  0.00  0.00    +0.000 C 
ATOM      3  C   UNL     1       0.124  14.266  21.105  0.00  0.00    +0.000 C 
ATOM      4  O   UNL     1      -0.138  15.447  20.967  0.00  0.00    +0.000 OA
ATOM      5  C   UNL     1       1.265  13.574  20.405  0.00  0.00    +0.000 C 
ATOM      6  C   UNL     1       0.919  12.344  19.870  0.00  0.00    +0.000 C 
ATOM      7  C   UNL     1      -0.568  12.269  19.514  0.00  0.00    +0.000 C 
ATOM      8  C   UNL     1      -0.543  13.302  18.308  0.00  0.00    +0.000 C 
ATOM      9  C   UNL     1      -1.725  11.430  18.953  0.00  0.00    +0.000 A 
ATOM     10  C   UNL     1      -1.926  10.706  17.781  0.00  0.00    +0.000 A 
ATOM     11  C   UNL     1      -3.218  10.669  17.160  0.00  0.00    +0.000 A 
ATOM     12  C   UNL     1      -3.406  10.030  15.804  0.00  0.00    +0.000 C 
ATOM     13  C   UNL     1      -4.316  11.327  17.777  0.00  0.00    +0.000 A 
ATOM     14  C   UNL     1      -4.166  12.009  18.975  0.00  0.00    +0.000 A 
ATOM     15  C   UNL     1      -2.896  12.015  19.539  0.00  0.00    +0.000 A 
ATOM     16  O   UNL     1      -2.617  12.790  20.637  0.00  0.00    +0.000 OA
ENDROOT
BRANCH   5  17
ATOM     17  C   UNL     1       2.467  14.438  20.145  0.00  0.00    +0.000 C 
ATOM     18  C   UNL     1       2.672  14.986  18.732  0.00  0.00    +0.000 C 
ATOM     19  O   UNL     1       3.330  14.594  21.001  0.00  0.00    +0.000 OA
ENDBRANCH   5  17
BRANCH  14  20
ATOM     20  C   UNL     1      -5.240  12.778  19.677  0.00  0.00    +0.000 C 
ATOM     21  C   UNL     1      -5.804  12.294  20.990  0.00  0.00    +0.000 C 
ATOM     22  O   UNL     1      -5.694  13.801  19.167  0.00  0.00    +0.000 OA
ENDBRANCH  14  20
BRANCH   1  24
ATOM     23  C   UNL     1      -1.214  11.140  23.025  0.00  0.00    +0.000 C 
ATOM     24  O   UNL     1      -1.259  11.074  21.596  0.00  0.00    +0.000 OA
ENDBRANCH   1  24
BRANCH   6  25
ATOM     25  O   UNL     1       1.771  11.523  19.175  0.00  0.00    +0.000 OA
ATOM     26  H   UNL     1       1.656  11.716  18.226  0.00  0.00    +0.000 HD
ENDBRANCH   6  25
BRANCH  10  27
ATOM     27  O   UNL     1      -0.891  10.106  17.124  0.00  0.00    +0.000 OA
ATOM     28  H   UNL     1      -1.155   9.936  16.206  0.00  0.00    +0.000 HD
ENDBRANCH  10  27
BRANCH  13  29
ATOM     29  O   UNL     1      -5.554  11.354  17.181  0.00  0.00    +0.000 OA
ATOM     30  H   UNL     1      -6.228  10.950  17.748  0.00  0.00    +0.000 HD
ENDBRANCH  13  29
TORSDOF 6
ENDMDL
MODEL 6
REMARK VINA RESULT:      -6.0      7.455     11.775
REMARK  Name = 
REMARK  11 active torsions:
REMARK  status: ('A' for Active; 'I' for Inactive)
REMARK    1  A    between atoms: C_1  and  O_2
REMARK    2  A    between atoms: O_2  and  C_3
REMARK    3  A    between atoms: C_7  and  C_8
REMARK    4  A    between atoms: C_8  and  C_9
REMARK    5  A    between atoms: C_11  and  O_12
REMARK    6  A    between atoms: C_13  and  C_14
REMARK    7  A    between atoms: C_16  and  O_17
REMARK    8  A    between atoms: C_18  and  C_19
REMARK    9  A    between atoms: C_20  and  O_21
REMARK   10  A    between atoms: C_22  and  C_23
REMARK   11  A    between atoms: C_23  and  C_24
REMARK                            x       y       z     vdW  Elec       q    Type
REMARK                         _______ _______ _______ _____ _____    ______ ____
ROOT
ATOM      1  C   UNL     1      -0.989  11.794  22.125  0.00  0.00    +0.000 C 
ATOM      2  C   UNL     1      -2.368  11.506  22.690  0.00  0.00    +0.000 C 
ATOM      3  C   UNL     1      -3.108  12.760  22.455  0.00  0.00    +0.000 C 
ATOM      4  O   UNL     1      -4.049  12.840  21.688  0.00  0.00    +0.000 OA
ATOM      5  C   UNL     1      -2.551  13.932  23.221  0.00  0.00    +0.000 C 
ATOM      6  C   UNL     1      -1.166  13.992  23.208  0.00  0.00    +0.000 C 
ATOM      7  C   UNL     1      -0.574  13.335  21.959  0.00  0.00    +0.000 C 
ATOM      8  C   UNL     1      -1.088  14.404  20.902  0.00  0.00    +0.000 C 
ATOM      9  C   UNL     1       0.687  12.955  21.169  0.00  0.00    +0.000 A 
ATOM     10  C   UNL     1       1.799  13.656  20.711  0.00  0.00    +0.000 A 
ATOM     11  C   UNL     1       2.397  13.330  19.450  0.00  0.00    +0.000 A 
ATOM     12  C   UNL     1       3.495  14.191  18.869  0.00  0.00    +0.000 C 
ATOM     13  C   UNL     1       1.888  12.245  18.687  0.00  0.00    +0.000 A 
ATOM     14  C   UNL     1       0.818  11.488  19.138  0.00  0.00    +0.000 A 
ATOM     15  C   UNL     1       0.273  11.840  20.367  0.00  0.00    +0.000 A 
ATOM     16  O   UNL     1      -0.881  11.252  20.820  0.00  0.00    +0.000 OA
ENDROOT
BRANCH   5  17
ATOM     17  C   UNL     1      -3.559  14.979  23.601  0.00  0.00    +0.000 C 
ATOM     18  C   UNL     1      -3.543  16.308  22.844  0.00  0.00    +0.000 C 
ATOM     19  O   UNL     1      -4.289  14.831  24.575  0.00  0.00    +0.000 OA
ENDBRANCH   5  17
BRANCH  14  20
ATOM     20  C   UNL     1       0.172  10.365  18.390  0.00  0.00    +0.000 C 
ATOM     21  C   UNL     1      -1.255  10.476  17.910  0.00  0.00    +0.000 C 
ATOM     22  O   UNL     1       0.796   9.324  18.187  0.00  0.00    +0.000 OA
ENDBRANCH  14  20
BRANCH   1  24
ATOM     23  C   UNL     1      -0.257   9.750  23.224  0.00  0.00    +0.000 C 
ATOM     24  O   UNL     1      -0.042  11.155  23.055  0.00  0.00    +0.000 OA
ENDBRANCH   1  24
BRANCH   6  25
ATOM     25  O   UNL     1      -0.417  14.965  23.819  0.00  0.00    +0.000 OA
ATOM     26  H   UNL     1      -0.796  15.115  24.705  0.00  0.00    +0.000 HD
ENDBRANCH   6  25
BRANCH  10  27
ATOM     27  O   UNL     1       2.288  14.740  21.382  0.00  0.00    +0.000 OA
ATOM     28  H   UNL     1       1.813  15.533  21.090  0.00  0.00    +0.000 HD
ENDBRANCH  10  27
BRANCH  13  29
ATOM     29  O   UNL     1       2.405  11.941  17.450  0.00  0.00    +0.000 OA
ATOM     30  H   UNL     1       2.335  10.993  17.262  0.00  0.00    +0.000 HD
ENDBRANCH  13  29
TORSDOF 6
ENDMDL
MODEL 7
REMARK VINA RESULT:      -5.9      1.263      1.382
REMARK  Name = 
REMARK  11 active torsions:
REMARK  status: ('A' for Active; 'I' for Inactive)
REMARK    1  A    between atoms: C_1  and  O_2
REMARK    2  A    between atoms: O_2  and  C_3
REMARK    3  A    between atoms: C_7  and  C_8
REMARK    4  A    between atoms: C_8  and  C_9
REMARK    5  A    between atoms: C_11  and  O_12
REMARK    6  A    between atoms: C_13  and  C_14
REMARK    7  A    between atoms: C_16  and  O_17
REMARK    8  A    between atoms: C_18  and  C_19
REMARK    9  A    between atoms: C_20  and  O_21
REMARK   10  A    between atoms: C_22  and  C_23
REMARK   11  A    between atoms: C_23  and  C_24
REMARK                            x       y       z     vdW  Elec       q    Type
REMARK                         _______ _______ _______ _____ _____    ______ ____
ROOT
ATOM      1  C   UNL     1       5.707   6.358  17.686  0.00  0.00    +0.000 C 
ATOM      2  C   UNL     1       6.241   7.222  16.557  0.00  0.00    +0.000 C 
ATOM      3  C   UNL     1       5.873   6.470  15.342  0.00  0.00    +0.000 C 
ATOM      4  O   UNL     1       5.065   6.880  14.529  0.00  0.00    +0.000 OA
ATOM      5  C   UNL     1       6.559   5.132  15.239  0.00  0.00    +0.000 C 
ATOM      6  C   UNL     1       6.595   4.438  16.438  0.00  0.00    +0.000 C 
ATOM      7  C   UNL     1       5.429   4.813  17.355  0.00  0.00    +0.000 C 
ATOM      8  C   UNL     1       4.267   4.167  16.486  0.00  0.00    +0.000 C 
ATOM      9  C   UNL     1       4.723   4.608  18.704  0.00  0.00    +0.000 A 
ATOM     10  C   UNL     1       4.252   3.497  19.398  0.00  0.00    +0.000 A 
ATOM     11  C   UNL     1       3.046   3.579  20.170  0.00  0.00    +0.000 A 
ATOM     12  C   UNL     1       2.439   2.341  20.787  0.00  0.00    +0.000 C 
ATOM     13  C   UNL     1       2.358   4.817  20.275  0.00  0.00    +0.000 A 
ATOM     14  C   UNL     1       2.829   5.958  19.643  0.00  0.00    +0.000 A 
ATOM     15  C   UNL     1       4.002   5.830  18.909  0.00  0.00    +0.000 A 
ATOM     16  O   UNL     1       4.458   6.861  18.126  0.00  0.00    +0.000 OA
ENDROOT
BRANCH   5  17
ATOM     17  C   UNL     1       6.811   4.654  13.837  0.00  0.00    +0.000 C 
ATOM     18  C   UNL     1       7.905   5.345  13.022  0.00  0.00    +0.000 C 
ATOM     19  O   UNL     1       6.077   3.825  13.311  0.00  0.00    +0.000 OA
ENDBRANCH   5  17
BRANCH  14  20
ATOM     20  C   UNL     1       2.153   7.292  19.644  0.00  0.00    +0.000 C 
ATOM     21  C   UNL     1       1.694   7.925  20.935  0.00  0.00    +0.000 C 
ATOM     22  O   UNL     1       1.938   7.872  18.580  0.00  0.00    +0.000 OA
ENDBRANCH  14  20
BRANCH   1  24
ATOM     23  C   UNL     1       7.926   7.101  18.355  0.00  0.00    +0.000 C 
ATOM     24  O   UNL     1       6.724   6.431  18.749  0.00  0.00    +0.000 OA
ENDBRANCH   1  24
BRANCH   6  25
ATOM     25  O   UNL     1       7.151   3.195  16.608  0.00  0.00    +0.000 OA
ATOM     26  H   UNL     1       8.080   3.245  16.312  0.00  0.00    +0.000 HD
ENDBRANCH   6  25
BRANCH  10  27
ATOM     27  O   UNL     1       4.849   2.275  19.283  0.00  0.00    +0.000 OA
ATOM     28  H   UNL     1       5.353   2.247  18.455  0.00  0.00    +0.000 HD
ENDBRANCH  10  27
BRANCH  13  29
ATOM     29  O   UNL     1       1.172   4.915  20.962  0.00  0.00    +0.000 OA
ATOM     30  H   UNL     1       0.456   5.227  20.389  0.00  0.00    +0.000 HD
ENDBRANCH  13  29
TORSDOF 6
ENDMDL
MODEL 8
REMARK VINA RESULT:      -5.8      1.703      5.960
REMARK  Name = 
REMARK  11 active torsions:
REMARK  status: ('A' for Active; 'I' for Inactive)
REMARK    1  A    between atoms: C_1  and  O_2
REMARK    2  A    between atoms: O_2  and  C_3
REMARK    3  A    between atoms: C_7  and  C_8
REMARK    4  A    between atoms: C_8  and  C_9
REMARK    5  A    between atoms: C_11  and  O_12
REMARK    6  A    between atoms: C_13  and  C_14
REMARK    7  A    between atoms: C_16  and  O_17
REMARK    8  A    between atoms: C_18  and  C_19
REMARK    9  A    between atoms: C_20  and  O_21
REMARK   10  A    between atoms: C_22  and  C_23
REMARK   11  A    between atoms: C_23  and  C_24
REMARK                            x       y       z     vdW  Elec       q    Type
REMARK                         _______ _______ _______ _____ _____    ______ ____
ROOT
ATOM      1  C   UNL     1       3.446   6.146  18.479  0.00  0.00    +0.000 C 
ATOM      2  C   UNL     1       2.789   6.273  19.841  0.00  0.00    +0.000 C 
ATOM      3  C   UNL     1       2.636   4.874  20.284  0.00  0.00    +0.000 C 
ATOM      4  O   UNL     1       3.238   4.410  21.234  0.00  0.00    +0.000 OA
ATOM      5  C   UNL     1       1.702   4.073  19.414  0.00  0.00    +0.000 C 
ATOM      6  C   UNL     1       1.878   4.302  18.058  0.00  0.00    +0.000 C 
ATOM      7  C   UNL     1       3.310   4.734  17.729  0.00  0.00    +0.000 C 
ATOM      8  C   UNL     1       4.022   3.352  18.057  0.00  0.00    +0.000 C 
ATOM      9  C   UNL     1       4.321   5.158  16.654  0.00  0.00    +0.000 A 
ATOM     10  C   UNL     1       4.746   4.613  15.446  0.00  0.00    +0.000 A 
ATOM     11  C   UNL     1       6.114   4.730  15.036  0.00  0.00    +0.000 A 
ATOM     12  C   UNL     1       6.620   4.000  13.814  0.00  0.00    +0.000 C 
ATOM     13  C   UNL     1       7.032   5.460  15.839  0.00  0.00    +0.000 A 
ATOM     14  C   UNL     1       6.631   6.065  17.020  0.00  0.00    +0.000 A 
ATOM     15  C   UNL     1       5.295   5.926  17.375  0.00  0.00    +0.000 A 
ATOM     16  O   UNL     1       4.843   6.355  18.597  0.00  0.00    +0.000 OA
ENDROOT
BRANCH   5  17
ATOM     17  C   UNL     1       0.968   2.968  20.119  0.00  0.00    +0.000 C 
ATOM     18  C   UNL     1       1.328   2.675  21.577  0.00  0.00    +0.000 C 
ATOM     19  O   UNL     1       0.198   2.233  19.512  0.00  0.00    +0.000 OA
ENDBRANCH   5  17
BRANCH  14  20
ATOM     20  C   UNL     1       7.525   6.805  17.963  0.00  0.00    +0.000 C 
ATOM     21  C   UNL     1       7.840   8.265  17.744  0.00  0.00    +0.000 C 
ATOM     22  O   UNL     1       8.038   6.215  18.913  0.00  0.00    +0.000 OA
ENDBRANCH  14  20
BRANCH   1  24
ATOM     23  C   UNL     1       2.180   8.222  18.390  0.00  0.00    +0.000 C 
ATOM     24  O   UNL     1       2.815   7.180  17.641  0.00  0.00    +0.000 OA
ENDBRANCH   1  24
BRANCH   6  25
ATOM     25  O   UNL     1       1.164   3.691  17.059  0.00  0.00    +0.000 OA
ATOM     26  H   UNL     1       1.797   3.428  16.364  0.00  0.00    +0.000 HD
ENDBRANCH   6  25
BRANCH  10  27
ATOM     27  O   UNL     1       3.914   3.858  14.670  0.00  0.00    +0.000 OA
ATOM     28  H   UNL     1       3.865   4.251  13.785  0.00  0.00    +0.000 HD
ENDBRANCH  10  27
BRANCH  13  29
ATOM     29  O   UNL     1       8.361   5.545  15.500  0.00  0.00    +0.000 OA
ATOM     30  H   UNL     1       8.787   4.675  15.521  0.00  0.00    +0.000 HD
ENDBRANCH  13  29
TORSDOF 6
ENDMDL
MODEL 9
REMARK VINA RESULT:      -5.8      7.937     11.042
REMARK  Name = 
REMARK  11 active torsions:
REMARK  status: ('A' for Active; 'I' for Inactive)
REMARK    1  A    between atoms: C_1  and  O_2
REMARK    2  A    between atoms: O_2  and  C_3
REMARK    3  A    between atoms: C_7  and  C_8
REMARK    4  A    between atoms: C_8  and  C_9
REMARK    5  A    between atoms: C_11  and  O_12
REMARK    6  A    between atoms: C_13  and  C_14
REMARK    7  A    between atoms: C_16  and  O_17
REMARK    8  A    between atoms: C_18  and  C_19
REMARK    9  A    between atoms: C_20  and  O_21
REMARK   10  A    between atoms: C_22  and  C_23
REMARK   11  A    between atoms: C_23  and  C_24
REMARK                            x       y       z     vdW  Elec       q    Type
REMARK                         _______ _______ _______ _____ _____    ______ ____
ROOT
ATOM      1  C   UNL     1       0.031  12.092  20.553  0.00  0.00    +0.000 C 
ATOM      2  C   UNL     1       0.068  10.588  20.353  0.00  0.00    +0.000 C 
ATOM      3  C   UNL     1      -0.394  10.411  18.964  0.00  0.00    +0.000 C 
ATOM      4  O   UNL     1       0.323   9.988  18.076  0.00  0.00    +0.000 OA
ATOM      5  C   UNL     1      -1.819  10.851  18.750  0.00  0.00    +0.000 C 
ATOM      6  C   UNL     1      -2.128  12.045  19.383  0.00  0.00    +0.000 C 
ATOM      7  C   UNL     1      -0.898  12.940  19.556  0.00  0.00    +0.000 C 
ATOM      8  C   UNL     1      -0.673  13.280  18.021  0.00  0.00    +0.000 C 
ATOM      9  C   UNL     1      -0.323  14.264  20.077  0.00  0.00    +0.000 A 
ATOM     10  C   UNL     1      -0.647  15.606  19.896  0.00  0.00    +0.000 A 
ATOM     11  C   UNL     1       0.384  16.601  19.827  0.00  0.00    +0.000 A 
ATOM     12  C   UNL     1       0.055  18.030  19.464  0.00  0.00    +0.000 C 
ATOM     13  C   UNL     1       1.742  16.223  20.002  0.00  0.00    +0.000 A 
ATOM     14  C   UNL     1       2.098  14.905  20.241  0.00  0.00    +0.000 A 
ATOM     15  C   UNL     1       1.064  13.977  20.302  0.00  0.00    +0.000 A 
ATOM     16  O   UNL     1       1.329  12.633  20.378  0.00  0.00    +0.000 OA
ENDROOT
BRANCH   5  17
ATOM     17  C   UNL     1      -2.558  10.110  17.672  0.00  0.00    +0.000 C 
ATOM     18  C   UNL     1      -2.448  10.621  16.235  0.00  0.00    +0.000 C 
ATOM     19  O   UNL     1      -3.333   9.201  17.948  0.00  0.00    +0.000 OA
ENDBRANCH   5  17
BRANCH  14  20
ATOM     20  C   UNL     1       3.496  14.395  20.383  0.00  0.00    +0.000 C 
ATOM     21  C   UNL     1       4.082  14.117  21.747  0.00  0.00    +0.000 C 
ATOM     22  O   UNL     1       4.193  14.226  19.384  0.00  0.00    +0.000 OA
ENDBRANCH  14  20
BRANCH   1  24
ATOM     23  C   UNL     1      -0.703  11.075  22.638  0.00  0.00    +0.000 C 
ATOM     24  O   UNL     1      -0.457  12.293  21.928  0.00  0.00    +0.000 OA
ENDBRANCH   1  24
BRANCH   6  25
ATOM     25  O   UNL     1      -3.351  12.665  19.334  0.00  0.00    +0.000 OA
ATOM     26  H   UNL     1      -3.361  13.349  20.031  0.00  0.00    +0.000 HD
ENDBRANCH   6  25
BRANCH  10  27
ATOM     27  O   UNL     1      -1.931  16.008  19.669  0.00  0.00    +0.000 OA
ATOM     28  H   UNL     1      -1.971  16.976  19.706  0.00  0.00    +0.000 HD
ENDBRANCH  10  27
BRANCH  13  29
ATOM     29  O   UNL     1       2.756  17.144  19.888  0.00  0.00    +0.000 OA
ATOM     30  H   UNL     1       3.475  16.810  19.331  0.00  0.00    +0.000 HD
ENDBRANCH  13  29
TORSDOF 6
ENDMDL
