MODEL 1
REMARK VINA RESULT:      -8.6      0.000      0.000
REMARK  Name = 
REMARK  12 active torsions:
REMARK  status: ('A' for Active; 'I' for Inactive)
REMARK    1  A    between atoms: C_1  and  O_2
REMARK    2  A    between atoms: O_2  and  C_3
REMARK    3  A    between atoms: C_6  and  C_7
REMARK    4  A    between atoms: C_7  and  C_8
REMARK    5  A    between atoms: C_8  and  N_9
REMARK    6  A    between atoms: C_10  and  C_12
REMARK    7  A    between atoms: C_12  and  C_13
REMARK    8  A    between atoms: N_16  and  C_17
REMARK    9  A    between atoms: C_19  and  C_20
REMARK   10  A    between atoms: C_22  and  C_23
REMARK   11  A    between atoms: C_29  and  O_30
REMARK   12  A    between atoms: O_30  and  C_31
REMARK                            x       y       z     vdW  Elec       q    Type
REMARK                         _______ _______ _______ _____ _____    ______ ____
ROOT
ATOM      1  C   UNL     1       6.309   4.777  17.725  0.00  0.00    +0.000 C 
ENDROOT
BRANCH   1   2
ATOM      2  C   UNL     1       4.878   5.204  17.388  0.00  0.00    +0.000 C 
ATOM      3  S   UNL     1       4.616   6.905  16.808  0.00  0.00    +0.000 S 
ATOM      4  C   UNL     1       3.295   7.105  17.956  0.00  0.00    +0.000 C 
ATOM      5  N   UNL     1       2.665   8.310  17.948  0.00  0.00    +0.000 N 
ATOM      6  N   UNL     1       3.063   6.116  18.744  0.00  0.00    +0.000 NA
ATOM      7  C   UNL     1       3.955   5.080  18.578  0.00  0.00    +0.000 C 
ATOM      8  O   UNL     1       4.037   4.153  19.363  0.00  0.00    +0.000 OA
ATOM      9  H   UNL     1       3.032   8.997  17.294  0.00  0.00    +0.000 HD
BRANCH   5  10
ATOM     10  C   UNL     1       1.559   8.707  18.735  0.00  0.00    +0.000 A 
ATOM     11  C   UNL     1       1.439   8.516  20.148  0.00  0.00    +0.000 A 
ATOM     12  C   UNL     1       0.691   9.348  20.969  0.00  0.00    +0.000 A 
ATOM     13  C   UNL     1       0.944   9.351  22.463  0.00  0.00    +0.000 C 
ATOM     14  C   UNL     1      -0.216  10.174  20.358  0.00  0.00    +0.000 A 
ATOM     15  C   UNL     1      -0.301  10.199  18.950  0.00  0.00    +0.000 A 
ATOM     16  C   UNL     1      -1.356  10.937  18.222  0.00  0.00    +0.000 C 
ATOM     17  C   UNL     1       0.617   9.509  18.156  0.00  0.00    +0.000 A 
ENDBRANCH   5  10
ENDBRANCH   1   2
BRANCH   1  19
ATOM     18  N   UNL     1       7.642   6.821  17.934  0.00  0.00    +0.000 N 
ATOM     19  C   UNL     1       7.122   5.729  18.585  0.00  0.00    +0.000 C 
ATOM     20  O   UNL     1       7.258   5.526  19.787  0.00  0.00    +0.000 OA
ATOM     21  H   UNL     1       7.202   7.092  17.055  0.00  0.00    +0.000 HD
BRANCH  18  22
ATOM     22  C   UNL     1       8.464   7.847  18.576  0.00  0.00    +0.000 C 
BRANCH  22  23
ATOM     23  C   UNL     1       8.292   9.331  18.116  0.00  0.00    +0.000 C 
BRANCH  23  27
ATOM     24  C   UNL     1      10.964  12.384  19.784  0.00  0.00    +0.000 A 
ATOM     25  C   UNL     1      10.140  11.560  20.509  0.00  0.00    +0.000 A 
ATOM     26  C   UNL     1       9.277  10.597  20.014  0.00  0.00    +0.000 A 
ATOM     27  C   UNL     1       9.254  10.360  18.665  0.00  0.00    +0.000 A 
ATOM     28  C   UNL     1      10.206  11.066  17.889  0.00  0.00    +0.000 A 
ATOM     29  C   UNL     1      11.066  12.051  18.433  0.00  0.00    +0.000 A 
BRANCH  24  31
ATOM     30  C   UNL     1      10.883  14.776  20.290  0.00  0.00    +0.000 C 
ATOM     31  O   UNL     1      11.545  13.527  20.244  0.00  0.00    +0.000 OA
ENDBRANCH  24  31
BRANCH  29  32
ATOM     32  O   UNL     1      11.975  12.624  17.571  0.00  0.00    +0.000 OA
ATOM     33  C   UNL     1      11.486  13.676  16.732  0.00  0.00    +0.000 C 
ENDBRANCH  29  32
ENDBRANCH  23  27
ENDBRANCH  22  23
ENDBRANCH  18  22
ENDBRANCH   1  19
TORSDOF 8
ENDMDL
MODEL 2
REMARK VINA RESULT:      -8.1      4.206      7.447
REMARK  Name = 
REMARK  12 active torsions:
REMARK  status: ('A' for Active; 'I' for Inactive)
REMARK    1  A    between atoms: C_1  and  O_2
REMARK    2  A    between atoms: O_2  and  C_3
REMARK    3  A    between atoms: C_6  and  C_7
REMARK    4  A    between atoms: C_7  and  C_8
REMARK    5  A    between atoms: C_8  and  N_9
REMARK    6  A    between atoms: C_10  and  C_12
REMARK    7  A    between atoms: C_12  and  C_13
REMARK    8  A    between atoms: N_16  and  C_17
REMARK    9  A    between atoms: C_19  and  C_20
REMARK   10  A    between atoms: C_22  and  C_23
REMARK   11  A    between atoms: C_29  and  O_30
REMARK   12  A    between atoms: O_30  and  C_31
REMARK                            x       y       z     vdW  Elec       q    Type
REMARK                         _______ _______ _______ _____ _____    ______ ____
ROOT
ATOM      1  C   UNL     1       1.852   9.222  19.340  0.00  0.00    +0.000 C 
ENDROOT
BRANCH   1   2
ATOM      2  C   UNL     1       0.481   9.408  19.996  0.00  0.00    +0.000 C 
ATOM      3  S   UNL     1      -0.493  10.867  19.525  0.00  0.00    +0.000 S 
ATOM      4  C   UNL     1      -0.791  11.231  21.223  0.00  0.00    +0.000 C 
ATOM      5  N   UNL     1      -1.554  12.327  21.481  0.00  0.00    +0.000 N 
ATOM      6  N   UNL     1      -0.223  10.462  22.084  0.00  0.00    +0.000 NA
ATOM      7  C   UNL     1       0.582   9.509  21.501  0.00  0.00    +0.000 C 
ATOM      8  O   UNL     1       1.364   8.830  22.140  0.00  0.00    +0.000 OA
ATOM      9  H   UNL     1      -1.863  12.852  20.668  0.00  0.00    +0.000 HD
BRANCH   5  10
ATOM     10  C   UNL     1      -1.968  12.807  22.746  0.00  0.00    +0.000 A 
ATOM     11  C   UNL     1      -1.349  13.875  23.467  0.00  0.00    +0.000 A 
ATOM     12  C   UNL     1      -2.032  14.687  24.362  0.00  0.00    +0.000 A 
ATOM     13  C   UNL     1      -1.446  16.029  24.755  0.00  0.00    +0.000 C 
ATOM     14  C   UNL     1      -3.249  14.238  24.806  0.00  0.00    +0.000 A 
ATOM     15  C   UNL     1      -3.779  13.036  24.294  0.00  0.00    +0.000 A 
ATOM     16  C   UNL     1      -5.001  12.402  24.835  0.00  0.00    +0.000 C 
ATOM     17  C   UNL     1      -3.162  12.363  23.238  0.00  0.00    +0.000 A 
ENDBRANCH   5  10
ENDBRANCH   1   2
BRANCH   1  19
ATOM     18  N   UNL     1       2.312   6.894  19.949  0.00  0.00    +0.000 N 
ATOM     19  C   UNL     1       2.225   7.809  18.927  0.00  0.00    +0.000 C 
ATOM     20  O   UNL     1       2.398   7.527  17.746  0.00  0.00    +0.000 OA
ATOM     21  H   UNL     1       1.824   7.117  20.816  0.00  0.00    +0.000 HD
BRANCH  18  22
ATOM     22  C   UNL     1       2.671   5.488  19.765  0.00  0.00    +0.000 C 
BRANCH  22  23
ATOM     23  C   UNL     1       4.185   5.114  19.681  0.00  0.00    +0.000 C 
BRANCH  23  27
ATOM     24  C   UNL     1       6.145   5.187  15.756  0.00  0.00    +0.000 A 
ATOM     25  C   UNL     1       4.951   4.573  16.043  0.00  0.00    +0.000 A 
ATOM     26  C   UNL     1       4.313   4.521  17.271  0.00  0.00    +0.000 A 
ATOM     27  C   UNL     1       4.862   5.193  18.331  0.00  0.00    +0.000 A 
ATOM     28  C   UNL     1       6.005   5.981  18.048  0.00  0.00    +0.000 A 
ATOM     29  C   UNL     1       6.634   6.001  16.779  0.00  0.00    +0.000 A 
BRANCH  24  31
ATOM     30  C   UNL     1       6.540   4.062  13.620  0.00  0.00    +0.000 C 
ATOM     31  O   UNL     1       6.910   4.955  14.653  0.00  0.00    +0.000 OA
ENDBRANCH  24  31
BRANCH  29  32
ATOM     32  O   UNL     1       7.708   6.849  16.634  0.00  0.00    +0.000 OA
ATOM     33  C   UNL     1       7.739   7.996  17.490  0.00  0.00    +0.000 C 
ENDBRANCH  29  32
ENDBRANCH  23  27
ENDBRANCH  22  23
ENDBRANCH  18  22
ENDBRANCH   1  19
TORSDOF 8
ENDMDL
MODEL 3
REMARK VINA RESULT:      -8.0      4.676      8.509
REMARK  Name = 
REMARK  12 active torsions:
REMARK  status: ('A' for Active; 'I' for Inactive)
REMARK    1  A    between atoms: C_1  and  O_2
REMARK    2  A    between atoms: O_2  and  C_3
REMARK    3  A    between atoms: C_6  and  C_7
REMARK    4  A    between atoms: C_7  and  C_8
REMARK    5  A    between atoms: C_8  and  N_9
REMARK    6  A    between atoms: C_10  and  C_12
REMARK    7  A    between atoms: C_12  and  C_13
REMARK    8  A    between atoms: N_16  and  C_17
REMARK    9  A    between atoms: C_19  and  C_20
REMARK   10  A    between atoms: C_22  and  C_23
REMARK   11  A    between atoms: C_29  and  O_30
REMARK   12  A    between atoms: O_30  and  C_31
REMARK                            x       y       z     vdW  Elec       q    Type
REMARK                         _______ _______ _______ _____ _____    ______ ____
ROOT
ATOM      1  C   UNL     1       0.995   2.616  19.738  0.00  0.00    +0.000 C 
ENDROOT
BRANCH   1   2
ATOM      2  C   UNL     1       2.192   2.355  18.820  0.00  0.00    +0.000 C 
ATOM      3  S   UNL     1       3.836   2.233  19.586  0.00  0.00    +0.000 S 
ATOM      4  C   UNL     1       4.488   3.350  18.388  0.00  0.00    +0.000 C 
ATOM      5  N   UNL     1       5.813   3.638  18.490  0.00  0.00    +0.000 N 
ATOM      6  N   UNL     1       3.651   3.842  17.545  0.00  0.00    +0.000 NA
ATOM      7  C   UNL     1       2.355   3.441  17.781  0.00  0.00    +0.000 C 
ATOM      8  O   UNL     1       1.398   3.957  17.233  0.00  0.00    +0.000 OA
ATOM      9  H   UNL     1       6.303   3.199  19.266  0.00  0.00    +0.000 HD
BRANCH   5  10
ATOM     10  C   UNL     1       6.581   4.465  17.637  0.00  0.00    +0.000 A 
ATOM     11  C   UNL     1       6.869   4.194  16.263  0.00  0.00    +0.000 A 
ATOM     12  C   UNL     1       7.104   5.188  15.323  0.00  0.00    +0.000 A 
ATOM     13  C   UNL     1       6.979   4.867  13.847  0.00  0.00    +0.000 C 
ATOM     14  C   UNL     1       7.389   6.441  15.799  0.00  0.00    +0.000 A 
ATOM     15  C   UNL     1       7.363   6.683  17.188  0.00  0.00    +0.000 A 
ATOM     16  C   UNL     1       7.813   7.956  17.791  0.00  0.00    +0.000 C 
ATOM     17  C   UNL     1       6.910   5.713  18.085  0.00  0.00    +0.000 A 
ENDBRANCH   5  10
ENDBRANCH   1   2
BRANCH   1  19
ATOM     18  N   UNL     1       1.060   5.002  20.282  0.00  0.00    +0.000 N 
ATOM     19  C   UNL     1       1.151   3.720  20.767  0.00  0.00    +0.000 C 
ATOM     20  O   UNL     1       1.312   3.452  21.954  0.00  0.00    +0.000 OA
ATOM     21  H   UNL     1       0.588   5.129  19.388  0.00  0.00    +0.000 HD
BRANCH  18  22
ATOM     22  C   UNL     1       1.196   6.205  21.105  0.00  0.00    +0.000 C 
BRANCH  22  23
ATOM     23  C   UNL     1       2.059   7.386  20.556  0.00  0.00    +0.000 C 
BRANCH  23  27
ATOM     24  C   UNL     1       0.103  10.943  18.892  0.00  0.00    +0.000 A 
ATOM     25  C   UNL     1       0.822  10.017  18.177  0.00  0.00    +0.000 A 
ATOM     26  C   UNL     1       1.460   8.893  18.672  0.00  0.00    +0.000 A 
ATOM     27  C   UNL     1       1.338   8.595  20.004  0.00  0.00    +0.000 A 
ATOM     28  C   UNL     1       0.470   9.426  20.754  0.00  0.00    +0.000 A 
ATOM     29  C   UNL     1      -0.159  10.574  20.211  0.00  0.00    +0.000 A 
BRANCH  24  31
ATOM     30  C   UNL     1       0.638  13.305  18.546  0.00  0.00    +0.000 C 
ATOM     31  O   UNL     1      -0.230  12.192  18.460  0.00  0.00    +0.000 OA
ENDBRANCH  24  31
BRANCH  29  32
ATOM     32  O   UNL     1      -1.015  11.261  21.041  0.00  0.00    +0.000 OA
ATOM     33  C   UNL     1      -0.414  12.176  21.965  0.00  0.00    +0.000 C 
ENDBRANCH  29  32
ENDBRANCH  23  27
ENDBRANCH  22  23
ENDBRANCH  18  22
ENDBRANCH   1  19
TORSDOF 8
ENDMDL
MODEL 4
REMARK VINA RESULT:      -7.9      1.191      1.216
REMARK  Name = 
REMARK  12 active torsions:
REMARK  status: ('A' for Active; 'I' for Inactive)
REMARK    1  A    between atoms: C_1  and  O_2
REMARK    2  A    between atoms: O_2  and  C_3
REMARK    3  A    between atoms: C_6  and  C_7
REMARK    4  A    between atoms: C_7  and  C_8
REMARK    5  A    between atoms: C_8  and  N_9
REMARK    6  A    between atoms: C_10  and  C_12
REMARK    7  A    between atoms: C_12  and  C_13
REMARK    8  A    between atoms: N_16  and  C_17
REMARK    9  A    between atoms: C_19  and  C_20
REMARK   10  A    between atoms: C_22  and  C_23
REMARK   11  A    between atoms: C_29  and  O_30
REMARK   12  A    between atoms: O_30  and  C_31
REMARK                            x       y       z     vdW  Elec       q    Type
REMARK                         _______ _______ _______ _____ _____    ______ ____
ROOT
ATOM      1  C   UNL     1       6.700   4.620  17.519  0.00  0.00    +0.000 C 
ENDROOT
BRANCH   1   2
ATOM      2  C   UNL     1       5.242   4.982  17.227  0.00  0.00    +0.000 C 
ATOM      3  S   UNL     1       4.896   6.638  16.563  0.00  0.00    +0.000 S 
ATOM      4  C   UNL     1       3.623   6.864  17.760  0.00  0.00    +0.000 C 
ATOM      5  N   UNL     1       2.953   8.047  17.713  0.00  0.00    +0.000 N 
ATOM      6  N   UNL     1       3.461   5.916  18.614  0.00  0.00    +0.000 NA
ATOM      7  C   UNL     1       4.379   4.900  18.466  0.00  0.00    +0.000 C 
ATOM      8  O   UNL     1       4.529   4.024  19.298  0.00  0.00    +0.000 OA
ATOM      9  H   UNL     1       3.266   8.704  17.004  0.00  0.00    +0.000 HD
BRANCH   5  10
ATOM     10  C   UNL     1       1.872   8.455  18.528  0.00  0.00    +0.000 A 
ATOM     11  C   UNL     1       1.768   8.229  19.937  0.00  0.00    +0.000 A 
ATOM     12  C   UNL     1       1.058   9.061  20.792  0.00  0.00    +0.000 A 
ATOM     13  C   UNL     1       1.335   9.017  22.281  0.00  0.00    +0.000 C 
ATOM     14  C   UNL     1       0.168   9.930  20.218  0.00  0.00    +0.000 A 
ATOM     15  C   UNL     1       0.061   9.995  18.813  0.00  0.00    +0.000 A 
ATOM     16  C   UNL     1      -0.982  10.784  18.122  0.00  0.00    +0.000 C 
ATOM     17  C   UNL     1       0.946   9.300  17.986  0.00  0.00    +0.000 A 
ENDBRANCH   5  10
ENDBRANCH   1   2
BRANCH   1  19
ATOM     18  N   UNL     1       7.581   6.889  17.794  0.00  0.00    +0.000 N 
ATOM     19  C   UNL     1       7.505   5.624  18.325  0.00  0.00    +0.000 C 
ATOM     20  O   UNL     1       8.014   5.305  19.395  0.00  0.00    +0.000 OA
ATOM     21  H   UNL     1       6.865   7.154  17.118  0.00  0.00    +0.000 HD
BRANCH  18  22
ATOM     22  C   UNL     1       8.318   7.996  18.405  0.00  0.00    +0.000 C 
BRANCH  22  23
ATOM     23  C   UNL     1       8.299   9.384  17.689  0.00  0.00    +0.000 C 
BRANCH  23  27
ATOM     24  C   UNL     1       9.846  12.783  19.994  0.00  0.00    +0.000 A 
ATOM     25  C   UNL     1      10.094  11.458  20.257  0.00  0.00    +0.000 A 
ATOM     26  C   UNL     1       9.612  10.364  19.559  0.00  0.00    +0.000 A 
ATOM     27  C   UNL     1       8.853  10.576  18.438  0.00  0.00    +0.000 A 
ATOM     28  C   UNL     1       8.707  11.924  18.027  0.00  0.00    +0.000 A 
ATOM     29  C   UNL     1       9.208  13.017  18.775  0.00  0.00    +0.000 A 
BRANCH  24  31
ATOM     30  C   UNL     1      10.863  14.930  20.573  0.00  0.00    +0.000 C 
ATOM     31  O   UNL     1      10.044  13.814  20.862  0.00  0.00    +0.000 OA
ENDBRANCH  24  31
BRANCH  29  32
ATOM     32  O   UNL     1       9.035  14.270  18.232  0.00  0.00    +0.000 OA
ATOM     33  C   UNL     1       7.691  14.656  17.927  0.00  0.00    +0.000 C 
ENDBRANCH  29  32
ENDBRANCH  23  27
ENDBRANCH  22  23
ENDBRANCH  18  22
ENDBRANCH   1  19
TORSDOF 8
ENDMDL
MODEL 5
REMARK VINA RESULT:      -7.8      5.833     11.753
REMARK  Name = 
REMARK  12 active torsions:
REMARK  status: ('A' for Active; 'I' for Inactive)
REMARK    1  A    between atoms: C_1  and  O_2
REMARK    2  A    between atoms: O_2  and  C_3
REMARK    3  A    between atoms: C_6  and  C_7
REMARK    4  A    between atoms: C_7  and  C_8
REMARK    5  A    between atoms: C_8  and  N_9
REMARK    6  A    between atoms: C_10  and  C_12
REMARK    7  A    between atoms: C_12  and  C_13
REMARK    8  A    between atoms: N_16  and  C_17
REMARK    9  A    between atoms: C_19  and  C_20
REMARK   10  A    between atoms: C_22  and  C_23
REMARK   11  A    between atoms: C_29  and  O_30
REMARK   12  A    between atoms: O_30  and  C_31
REMARK                            x       y       z     vdW  Elec       q    Type
REMARK                         _______ _______ _______ _____ _____    ______ ____
ROOT
ATOM      1  C   UNL     1      -0.729  10.538  20.072  0.00  0.00    +0.000 C 
ENDROOT
BRANCH   1   2
ATOM      2  C   UNL     1       0.737  10.166  19.830  0.00  0.00    +0.000 C 
ATOM      3  S   UNL     1       1.290   9.976  18.110  0.00  0.00    +0.000 S 
ATOM      4  C   UNL     1       2.051   8.439  18.513  0.00  0.00    +0.000 C 
ATOM      5  N   UNL     1       2.689   7.796  17.498  0.00  0.00    +0.000 N 
ATOM      6  N   UNL     1       1.901   8.022  19.720  0.00  0.00    +0.000 NA
ATOM      7  C   UNL     1       1.100   8.849  20.476  0.00  0.00    +0.000 C 
ATOM      8  O   UNL     1       0.667   8.526  21.567  0.00  0.00    +0.000 OA
ATOM      9  H   UNL     1       2.647   8.252  16.590  0.00  0.00    +0.000 HD
BRANCH   5  10
ATOM     10  C   UNL     1       3.406   6.579  17.568  0.00  0.00    +0.000 A 
ATOM     11  C   UNL     1       2.851   5.313  17.934  0.00  0.00    +0.000 A 
ATOM     12  C   UNL     1       3.353   4.101  17.482  0.00  0.00    +0.000 A 
ATOM     13  C   UNL     1       2.489   2.858  17.553  0.00  0.00    +0.000 C 
ATOM     14  C   UNL     1       4.611   4.113  16.937  0.00  0.00    +0.000 A 
ATOM     15  C   UNL     1       5.299   5.335  16.794  0.00  0.00    +0.000 A 
ATOM     16  C   UNL     1       6.713   5.416  16.368  0.00  0.00    +0.000 C 
ATOM     17  C   UNL     1       4.674   6.554  17.060  0.00  0.00    +0.000 A 
ENDBRANCH   5  10
ENDBRANCH   1   2
BRANCH   1  19
ATOM     18  N   UNL     1      -2.321  10.668  18.216  0.00  0.00    +0.000 N 
ATOM     19  C   UNL     1      -1.415  11.352  18.990  0.00  0.00    +0.000 C 
ATOM     20  O   UNL     1      -1.178  12.549  18.861  0.00  0.00    +0.000 OA
ATOM     21  H   UNL     1      -2.707   9.806  18.602  0.00  0.00    +0.000 HD
BRANCH  18  22
ATOM     22  C   UNL     1      -3.077  11.263  17.113  0.00  0.00    +0.000 C 
BRANCH  22  23
ATOM     23  C   UNL     1      -4.628  11.076  17.089  0.00  0.00    +0.000 C 
BRANCH  23  27
ATOM     24  C   UNL     1      -6.993  11.888  20.694  0.00  0.00    +0.000 A 
ATOM     25  C   UNL     1      -7.130  10.793  19.877  0.00  0.00    +0.000 A 
ATOM     26  C   UNL     1      -6.410  10.513  18.728  0.00  0.00    +0.000 A 
ATOM     27  C   UNL     1      -5.397  11.360  18.360  0.00  0.00    +0.000 A 
ATOM     28  C   UNL     1      -5.104  12.414  19.259  0.00  0.00    +0.000 A 
ATOM     29  C   UNL     1      -5.871  12.672  20.422  0.00  0.00    +0.000 A 
BRANCH  24  31
ATOM     30  C   UNL     1      -7.917  11.885  22.959  0.00  0.00    +0.000 C 
ATOM     31  O   UNL     1      -7.908  12.311  21.611  0.00  0.00    +0.000 OA
ENDBRANCH  24  31
BRANCH  29  32
ATOM     32  O   UNL     1      -5.444  13.700  21.231  0.00  0.00    +0.000 OA
ATOM     33  C   UNL     1      -5.654  15.029  20.742  0.00  0.00    +0.000 C 
ENDBRANCH  29  32
ENDBRANCH  23  27
ENDBRANCH  22  23
ENDBRANCH  18  22
ENDBRANCH   1  19
TORSDOF 8
ENDMDL
MODEL 6
REMARK VINA RESULT:      -7.8      1.117      1.914
REMARK  Name = 
REMARK  12 active torsions:
REMARK  status: ('A' for Active; 'I' for Inactive)
REMARK    1  A    between atoms: C_1  and  O_2
REMARK    2  A    between atoms: O_2  and  C_3
REMARK    3  A    between atoms: C_6  and  C_7
REMARK    4  A    between atoms: C_7  and  C_8
REMARK    5  A    between atoms: C_8  and  N_9
REMARK    6  A    between atoms: C_10  and  C_12
REMARK    7  A    between atoms: C_12  and  C_13
REMARK    8  A    between atoms: N_16  and  C_17
REMARK    9  A    between atoms: C_19  and  C_20
REMARK   10  A    between atoms: C_22  and  C_23
REMARK   11  A    between atoms: C_29  and  O_30
REMARK   12  A    between atoms: O_30  and  C_31
REMARK                            x       y       z     vdW  Elec       q    Type
REMARK                         _______ _______ _______ _____ _____    ______ ____
ROOT
ATOM      1  C   UNL     1       6.078   4.683  18.025  0.00  0.00    +0.000 C 
ENDROOT
BRANCH   1   2
ATOM      2  C   UNL     1       4.631   5.114  17.771  0.00  0.00    +0.000 C 
ATOM      3  S   UNL     1       4.353   6.611  16.779  0.00  0.00    +0.000 S 
ATOM      4  C   UNL     1       3.223   7.216  17.988  0.00  0.00    +0.000 C 
ATOM      5  N   UNL     1       2.646   8.419  17.726  0.00  0.00    +0.000 N 
ATOM      6  N   UNL     1       3.070   6.497  19.043  0.00  0.00    +0.000 NA
ATOM      7  C   UNL     1       3.888   5.388  19.058  0.00  0.00    +0.000 C 
ATOM      8  O   UNL     1       4.048   4.704  20.052  0.00  0.00    +0.000 OA
ATOM      9  H   UNL     1       2.940   8.873  16.865  0.00  0.00    +0.000 HD
BRANCH   5  10
ATOM     10  C   UNL     1       1.684   9.099  18.509  0.00  0.00    +0.000 A 
ATOM     11  C   UNL     1       0.658   9.954  17.998  0.00  0.00    +0.000 A 
ATOM     12  C   UNL     1      -0.559  10.151  18.637  0.00  0.00    +0.000 A 
ATOM     13  C   UNL     1      -1.734  10.706  17.857  0.00  0.00    +0.000 C 
ATOM     14  C   UNL     1      -0.640   9.771  19.952  0.00  0.00    +0.000 A 
ATOM     15  C   UNL     1       0.463   9.146  20.568  0.00  0.00    +0.000 A 
ATOM     16  C   UNL     1       0.515   8.853  22.017  0.00  0.00    +0.000 C 
ATOM     17  C   UNL     1       1.588   8.770  19.832  0.00  0.00    +0.000 A 
ENDBRANCH   5  10
ENDBRANCH   1   2
BRANCH   1  19
ATOM     18  N   UNL     1       7.420   6.732  18.003  0.00  0.00    +0.000 N 
ATOM     19  C   UNL     1       6.967   5.674  18.754  0.00  0.00    +0.000 C 
ATOM     20  O   UNL     1       7.218   5.530  19.947  0.00  0.00    +0.000 OA
ATOM     21  H   UNL     1       6.898   6.960  17.158  0.00  0.00    +0.000 HD
BRANCH  18  22
ATOM     22  C   UNL     1       8.298   7.786  18.512  0.00  0.00    +0.000 C 
BRANCH  22  23
ATOM     23  C   UNL     1       8.264   9.182  17.812  0.00  0.00    +0.000 C 
BRANCH  23  27
ATOM     24  C   UNL     1      10.024  12.535  20.028  0.00  0.00    +0.000 A 
ATOM     25  C   UNL     1      10.098  11.212  20.387  0.00  0.00    +0.000 A 
ATOM     26  C   UNL     1       9.545  10.133  19.718  0.00  0.00    +0.000 A 
ATOM     27  C   UNL     1       8.896  10.353  18.531  0.00  0.00    +0.000 A 
ATOM     28  C   UNL     1       8.937  11.678  18.032  0.00  0.00    +0.000 A 
ATOM     29  C   UNL     1       9.506  12.757  18.751  0.00  0.00    +0.000 A 
BRANCH  24  31
ATOM     30  C   UNL     1       9.306  14.174  21.696  0.00  0.00    +0.000 C 
ATOM     31  O   UNL     1      10.278  13.593  20.848  0.00  0.00    +0.000 OA
ENDBRANCH  24  31
BRANCH  29  32
ATOM     32  O   UNL     1       9.518  13.982  18.124  0.00  0.00    +0.000 OA
ATOM     33  C   UNL     1       8.255  14.642  17.985  0.00  0.00    +0.000 C 
ENDBRANCH  29  32
ENDBRANCH  23  27
ENDBRANCH  22  23
ENDBRANCH  18  22
ENDBRANCH   1  19
TORSDOF 8
ENDMDL
MODEL 7
REMARK VINA RESULT:      -7.7      2.917      8.299
REMARK  Name = 
REMARK  12 active torsions:
REMARK  status: ('A' for Active; 'I' for Inactive)
REMARK    1  A    between atoms: C_1  and  O_2
REMARK    2  A    between atoms: O_2  and  C_3
REMARK    3  A    between atoms: C_6  and  C_7
REMARK    4  A    between atoms: C_7  and  C_8
REMARK    5  A    between atoms: C_8  and  N_9
REMARK    6  A    between atoms: C_10  and  C_12
REMARK    7  A    between atoms: C_12  and  C_13
REMARK    8  A    between atoms: N_16  and  C_17
REMARK    9  A    between atoms: C_19  and  C_20
REMARK   10  A    between atoms: C_22  and  C_23
REMARK   11  A    between atoms: C_29  and  O_30
REMARK   12  A    between atoms: O_30  and  C_31
REMARK                            x       y       z     vdW  Elec       q    Type
REMARK                         _______ _______ _______ _____ _____    ______ ____
ROOT
ATOM      1  C   UNL     1       5.276   4.789  17.586  0.00  0.00    +0.000 C 
ENDROOT
BRANCH   1   2
ATOM      2  C   UNL     1       6.647   5.444  17.399  0.00  0.00    +0.000 C 
ATOM      3  S   UNL     1       7.592   5.873  18.889  0.00  0.00    +0.000 S 
ATOM      4  C   UNL     1       7.893   7.487  18.248  0.00  0.00    +0.000 C 
ATOM      5  N   UNL     1       8.638   8.317  19.026  0.00  0.00    +0.000 N 
ATOM      6  N   UNL     1       7.343   7.769  17.120  0.00  0.00    +0.000 NA
ATOM      7  C   UNL     1       6.551   6.749  16.640  0.00  0.00    +0.000 C 
ATOM      8  O   UNL     1       5.785   6.896  15.706  0.00  0.00    +0.000 OA
ATOM      9  H   UNL     1       8.933   7.937  19.921  0.00  0.00    +0.000 HD
BRANCH   5  10
ATOM     10  C   UNL     1       9.050   9.636  18.725  0.00  0.00    +0.000 A 
ATOM     11  C   UNL     1       8.426  10.500  17.771  0.00  0.00    +0.000 A 
ATOM     12  C   UNL     1       8.445  11.884  17.870  0.00  0.00    +0.000 A 
ATOM     13  C   UNL     1       7.433  12.704  17.094  0.00  0.00    +0.000 C 
ATOM     14  C   UNL     1       9.364  12.436  18.724  0.00  0.00    +0.000 A 
ATOM     15  C   UNL     1      10.185  11.595  19.504  0.00  0.00    +0.000 A 
ATOM     16  C   UNL     1      11.306  12.103  20.325  0.00  0.00    +0.000 C 
ATOM     17  C   UNL     1       9.986  10.214  19.536  0.00  0.00    +0.000 A 
ENDBRANCH   5  10
ENDBRANCH   1   2
BRANCH   1  19
ATOM     18  N   UNL     1       3.565   6.483  18.037  0.00  0.00    +0.000 N 
ATOM     19  C   UNL     1       4.324   5.463  18.558  0.00  0.00    +0.000 C 
ATOM     20  O   UNL     1       4.237   5.077  19.719  0.00  0.00    +0.000 OA
ATOM     21  H   UNL     1       3.443   6.502  17.025  0.00  0.00    +0.000 HD
BRANCH  18  22
ATOM     22  C   UNL     1       2.600   7.268  18.808  0.00  0.00    +0.000 C 
BRANCH  22  23
ATOM     23  C   UNL     1       1.899   8.476  18.109  0.00  0.00    +0.000 C 
BRANCH  23  27
ATOM     24  C   UNL     1       0.688  11.870  20.612  0.00  0.00    +0.000 A 
ATOM     25  C   UNL     1       1.261  11.957  19.368  0.00  0.00    +0.000 A 
ATOM     26  C   UNL     1       1.665  10.909  18.559  0.00  0.00    +0.000 A 
ATOM     27  C   UNL     1       1.432   9.624  18.975  0.00  0.00    +0.000 A 
ATOM     28  C   UNL     1       0.693   9.480  20.174  0.00  0.00    +0.000 A 
ATOM     29  C   UNL     1       0.304  10.579  20.979  0.00  0.00    +0.000 A 
BRANCH  24  31
ATOM     30  C   UNL     1      -0.224  14.017  21.347  0.00  0.00    +0.000 C 
ATOM     31  O   UNL     1       0.604  12.883  21.519  0.00  0.00    +0.000 OA
ENDBRANCH  24  31
BRANCH  29  32
ATOM     32  O   UNL     1      -0.451  10.294  22.094  0.00  0.00    +0.000 OA
ATOM     33  C   UNL     1       0.158   9.458  23.084  0.00  0.00    +0.000 C 
ENDBRANCH  29  32
ENDBRANCH  23  27
ENDBRANCH  22  23
ENDBRANCH  18  22
ENDBRANCH   1  19
TORSDOF 8
ENDMDL
MODEL 8
REMARK VINA RESULT:      -7.6      5.546      8.611
REMARK  Name = 
REMARK  12 active torsions:
REMARK  status: ('A' for Active; 'I' for Inactive)
REMARK    1  A    between atoms: C_1  and  O_2
REMARK    2  A    between atoms: O_2  and  C_3
REMARK    3  A    between atoms: C_6  and  C_7
REMARK    4  A    between atoms: C_7  and  C_8
REMARK    5  A    between atoms: C_8  and  N_9
REMARK    6  A    between atoms: C_10  and  C_12
REMARK    7  A    between atoms: C_12  and  C_13
REMARK    8  A    between atoms: N_16  and  C_17
REMARK    9  A    between atoms: C_19  and  C_20
REMARK   10  A    between atoms: C_22  and  C_23
REMARK   11  A    between atoms: C_29  and  O_30
REMARK   12  A    between atoms: O_30  and  C_31
REMARK                            x       y       z     vdW  Elec       q    Type
REMARK                         _______ _______ _______ _____ _____    ______ ____
ROOT
ATOM      1  C   UNL     1       2.233   4.681  19.478  0.00  0.00    +0.000 C 
ENDROOT
BRANCH   1   2
ATOM      2  C   UNL     1       3.398   3.919  18.839  0.00  0.00    +0.000 C 
ATOM      3  S   UNL     1       5.004   4.761  18.730  0.00  0.00    +0.000 S 
ATOM      4  C   UNL     1       5.139   4.305  17.033  0.00  0.00    +0.000 C 
ATOM      5  N   UNL     1       6.268   4.707  16.388  0.00  0.00    +0.000 N 
ATOM      6  N   UNL     1       4.141   3.674  16.525  0.00  0.00    +0.000 NA
ATOM      7  C   UNL     1       3.098   3.521  17.412  0.00  0.00    +0.000 C 
ATOM      8  O   UNL     1       1.993   3.144  17.067  0.00  0.00    +0.000 OA
ATOM      9  H   UNL     1       6.921   5.257  16.941  0.00  0.00    +0.000 HD
BRANCH   5  10
ATOM     10  C   UNL     1       6.633   4.439  15.049  0.00  0.00    +0.000 A 
ATOM     11  C   UNL     1       5.940   3.555  14.164  0.00  0.00    +0.000 A 
ATOM     12  C   UNL     1       5.932   3.708  12.784  0.00  0.00    +0.000 A 
ATOM     13  C   UNL     1       4.862   3.020  11.960  0.00  0.00    +0.000 C 
ATOM     14  C   UNL     1       6.883   4.534  12.244  0.00  0.00    +0.000 A 
ATOM     15  C   UNL     1       7.763   5.235  13.094  0.00  0.00    +0.000 A 
ATOM     16  C   UNL     1       8.914   6.016  12.591  0.00  0.00    +0.000 C 
ATOM     17  C   UNL     1       7.597   5.222  14.480  0.00  0.00    +0.000 A 
ENDBRANCH   5  10
ENDBRANCH   1   2
BRANCH   1  19
ATOM     18  N   UNL     1       2.549   6.760  18.223  0.00  0.00    +0.000 N 
ATOM     19  C   UNL     1       2.314   6.197  19.454  0.00  0.00    +0.000 C 
ATOM     20  O   UNL     1       2.143   6.849  20.479  0.00  0.00    +0.000 OA
ATOM     21  H   UNL     1       2.331   6.195  17.403  0.00  0.00    +0.000 HD
BRANCH  18  22
ATOM     22  C   UNL     1       2.676   8.199  17.988  0.00  0.00    +0.000 C 
BRANCH  22  23
ATOM     23  C   UNL     1       1.373   9.057  17.916  0.00  0.00    +0.000 C 
BRANCH  23  27
ATOM     24  C   UNL     1       1.088  12.439  20.696  0.00  0.00    +0.000 A 
ATOM     25  C   UNL     1       1.378  12.526  19.357  0.00  0.00    +0.000 A 
ATOM     26  C   UNL     1       1.488  11.480  18.457  0.00  0.00    +0.000 A 
ATOM     27  C   UNL     1       1.225  10.206  18.887  0.00  0.00    +0.000 A 
ATOM     28  C   UNL     1       0.758  10.080  20.219  0.00  0.00    +0.000 A 
ATOM     29  C   UNL     1       0.668  11.175  21.112  0.00  0.00    +0.000 A 
BRANCH  24  31
ATOM     30  C   UNL     1       0.404  14.480  21.859  0.00  0.00    +0.000 C 
ATOM     31  O   UNL     1       1.306  13.417  21.619  0.00  0.00    +0.000 OA
ENDBRANCH  24  31
BRANCH  29  32
ATOM     32  O   UNL     1       0.152  10.915  22.361  0.00  0.00    +0.000 OA
ATOM     33  C   UNL     1      -0.289   9.574  22.605  0.00  0.00    +0.000 C 
ENDBRANCH  29  32
ENDBRANCH  23  27
ENDBRANCH  22  23
ENDBRANCH  18  22
ENDBRANCH   1  19
TORSDOF 8
ENDMDL
MODEL 9
REMARK VINA RESULT:      -7.5      3.557      6.045
REMARK  Name = 
REMARK  12 active torsions:
REMARK  status: ('A' for Active; 'I' for Inactive)
REMARK    1  A    between atoms: C_1  and  O_2
REMARK    2  A    between atoms: O_2  and  C_3
REMARK    3  A    between atoms: C_6  and  C_7
REMARK    4  A    between atoms: C_7  and  C_8
REMARK    5  A    between atoms: C_8  and  N_9
REMARK    6  A    between atoms: C_10  and  C_12
REMARK    7  A    between atoms: C_12  and  C_13
REMARK    8  A    between atoms: N_16  and  C_17
REMARK    9  A    between atoms: C_19  and  C_20
REMARK   10  A    between atoms: C_22  and  C_23
REMARK   11  A    between atoms: C_29  and  O_30
REMARK   12  A    between atoms: O_30  and  C_31
REMARK                            x       y       z     vdW  Elec       q    Type
REMARK                         _______ _______ _______ _____ _____    ______ ____
ROOT
ATOM      1  C   UNL     1       1.768   6.660  18.001  0.00  0.00    +0.000 C 
ENDROOT
BRANCH   1   2
ATOM      2  C   UNL     1       2.115   7.725  19.044  0.00  0.00    +0.000 C 
ATOM      3  S   UNL     1       1.368   7.571  20.693  0.00  0.00    +0.000 S 
ATOM      4  C   UNL     1       0.887   9.266  20.646  0.00  0.00    +0.000 C 
ATOM      5  N   UNL     1       0.233   9.739  21.741  0.00  0.00    +0.000 N 
ATOM      6  N   UNL     1       1.148   9.908  19.563  0.00  0.00    +0.000 NA
ATOM      7  C   UNL     1       1.715   9.111  18.592  0.00  0.00    +0.000 C 
ATOM      8  O   UNL     1       1.839   9.472  17.436  0.00  0.00    +0.000 OA
ATOM      9  H   UNL     1       0.059   9.062  22.479  0.00  0.00    +0.000 HD
BRANCH   5  10
ATOM     10  C   UNL     1      -0.220  11.059  21.967  0.00  0.00    +0.000 A 
ATOM     11  C   UNL     1       0.272  12.227  21.302  0.00  0.00    +0.000 A 
ATOM     12  C   UNL     1      -0.494  13.366  21.096  0.00  0.00    +0.000 A 
ATOM     13  C   UNL     1      -0.074  14.370  20.041  0.00  0.00    +0.000 C 
ATOM     14  C   UNL     1      -1.639  13.489  21.838  0.00  0.00    +0.000 A 
ATOM     15  C   UNL     1      -2.023  12.448  22.708  0.00  0.00    +0.000 A 
ATOM     16  C   UNL     1      -3.150  12.570  23.659  0.00  0.00    +0.000 C 
ATOM     17  C   UNL     1      -1.343  11.229  22.725  0.00  0.00    +0.000 A 
ENDBRANCH   5  10
ENDBRANCH   1   2
BRANCH   1  19
ATOM     18  N   UNL     1       2.999   5.089  19.420  0.00  0.00    +0.000 N 
ATOM     19  C   UNL     1       2.240   5.245  18.286  0.00  0.00    +0.000 C 
ATOM     20  O   UNL     1       1.918   4.318  17.550  0.00  0.00    +0.000 OA
ATOM     21  H   UNL     1       2.923   5.812  20.135  0.00  0.00    +0.000 HD
BRANCH  18  22
ATOM     22  C   UNL     1       3.563   3.814  19.864  0.00  0.00    +0.000 C 
BRANCH  22  23
ATOM     23  C   UNL     1       4.997   3.427  19.380  0.00  0.00    +0.000 C 
BRANCH  23  27
ATOM     24  C   UNL     1       7.334   6.592  17.439  0.00  0.00    +0.000 A 
ATOM     25  C   UNL     1       7.468   6.183  18.743  0.00  0.00    +0.000 A 
ATOM     26  C   UNL     1       6.740   5.198  19.388  0.00  0.00    +0.000 A 
ATOM     27  C   UNL     1       5.816   4.482  18.672  0.00  0.00    +0.000 A 
ATOM     28  C   UNL     1       5.757   4.750  17.283  0.00  0.00    +0.000 A 
ATOM     29  C   UNL     1       6.514   5.773  16.661  0.00  0.00    +0.000 A 
BRANCH  24  31
ATOM     30  C   UNL     1       7.998   8.933  17.687  0.00  0.00    +0.000 C 
ATOM     31  O   UNL     1       7.811   7.759  16.922  0.00  0.00    +0.000 OA
ENDBRANCH  24  31
BRANCH  29  32
ATOM     32  O   UNL     1       6.393   5.890  15.295  0.00  0.00    +0.000 OA
ATOM     33  C   UNL     1       7.051   4.893  14.506  0.00  0.00    +0.000 C 
ENDBRANCH  29  32
ENDBRANCH  23  27
ENDBRANCH  22  23
ENDBRANCH  18  22
ENDBRANCH   1  19
TORSDOF 8
ENDMDL
