MODEL 1
REMARK VINA RESULT:      -8.7      0.000      0.000
REMARK  Name = 
REMARK  4 active torsions:
REMARK  status: ('A' for Active; 'I' for Inactive)
REMARK    1  A    between atoms: S_2  and  C_4
REMARK    2  A    between atoms: S_2  and  N_10
REMARK    3  A    between atoms: C_20  and  C_21
REMARK    4  A    between atoms: C_21  and  O_22
REMARK                            x       y       z     vdW  Elec       q    Type
REMARK                         _______ _______ _______ _____ _____    ______ ____
ROOT
ATOM      1  N   UNL     1       5.780   5.348  17.285  0.00  0.00    +0.000 N 
ATOM      2  C   UNL     1       5.686   4.477  18.329  0.00  0.00    +0.000 A 
ATOM      3  C   UNL     1       4.427   4.010  18.134  0.00  0.00    +0.000 A 
ATOM      4  C   UNL     1       3.791   5.244  18.056  0.00  0.00    +0.000 A 
ATOM      5  C   UNL     1       2.685   5.593  18.825  0.00  0.00    +0.000 A 
ATOM      6  C   UNL     1       2.241   6.899  18.700  0.00  0.00    +0.000 A 
ATOM      7  C   UNL     1       2.918   7.777  17.815  0.00  0.00    +0.000 A 
ATOM      8  C   UNL     1       4.136   7.435  17.134  0.00  0.00    +0.000 A 
ATOM      9  C   UNL     1       4.631   6.145  17.384  0.00  0.00    +0.000 A 
ATOM     10  O   UNL     1       2.266   4.672  19.800  0.00  0.00    +0.000 OA
ATOM     11  C   UNL     1       2.917   3.379  19.800  0.00  0.00    +0.000 C 
ATOM     12  C   UNL     1       3.830   3.001  18.883  0.00  0.00    +0.000 C 
ENDROOT
BRANCH   1  14
ATOM     13  O   UNL     1       8.012   4.254  17.185  0.00  0.00    +0.000 OA
ATOM     14  S   UNL     1       7.265   5.292  16.503  0.00  0.00    +0.000 S 
ATOM     15  O   UNL     1       7.718   6.671  16.400  0.00  0.00    +0.000 OA
BRANCH  14  16
ATOM     16  C   UNL     1       6.824   4.686  14.830  0.00  0.00    +0.000 A 
ATOM     17  C   UNL     1       5.650   3.940  14.611  0.00  0.00    +0.000 A 
ATOM     18  C   UNL     1       5.320   3.505  13.314  0.00  0.00    +0.000 A 
ATOM     19  C   UNL     1       6.144   3.816  12.234  0.00  0.00    +0.000 A 
ATOM     20  C   UNL     1       7.290   4.582  12.442  0.00  0.00    +0.000 A 
ATOM     21  C   UNL     1       7.630   5.025  13.732  0.00  0.00    +0.000 A 
ENDBRANCH  14  16
ENDBRANCH   1  14
BRANCH  11  22
ATOM     22  C   UNL     1       2.952   2.562  21.061  0.00  0.00    +0.000 C 
BRANCH  22  23
ATOM     23  O   UNL     1       2.240   3.166  22.126  0.00  0.00    +0.000 OA
ATOM     24  H   UNL     1       2.090   4.080  21.845  0.00  0.00    +0.000 HD
ENDBRANCH  22  23
ENDBRANCH  11  22
TORSDOF 4
ENDMDL
MODEL 2
REMARK VINA RESULT:      -8.7      0.051      1.008
REMARK  Name = 
REMARK  4 active torsions:
REMARK  status: ('A' for Active; 'I' for Inactive)
REMARK    1  A    between atoms: S_2  and  C_4
REMARK    2  A    between atoms: S_2  and  N_10
REMARK    3  A    between atoms: C_20  and  C_21
REMARK    4  A    between atoms: C_21  and  O_22
REMARK                            x       y       z     vdW  Elec       q    Type
REMARK                         _______ _______ _______ _____ _____    ______ ____
ROOT
ATOM      1  N   UNL     1       5.770   5.362  17.273  0.00  0.00    +0.000 N 
ATOM      2  C   UNL     1       5.692   4.488  18.316  0.00  0.00    +0.000 A 
ATOM      3  C   UNL     1       4.431   4.018  18.136  0.00  0.00    +0.000 A 
ATOM      4  C   UNL     1       3.792   5.250  18.070  0.00  0.00    +0.000 A 
ATOM      5  C   UNL     1       2.695   5.595  18.853  0.00  0.00    +0.000 A 
ATOM      6  C   UNL     1       2.245   6.900  18.737  0.00  0.00    +0.000 A 
ATOM      7  C   UNL     1       2.909   7.782  17.845  0.00  0.00    +0.000 A 
ATOM      8  C   UNL     1       4.119   7.445  17.148  0.00  0.00    +0.000 A 
ATOM      9  C   UNL     1       4.620   6.155  17.388  0.00  0.00    +0.000 A 
ATOM     10  O   UNL     1       2.291   4.671  19.832  0.00  0.00    +0.000 OA
ATOM     11  C   UNL     1       2.945   3.380  19.821  0.00  0.00    +0.000 C 
ATOM     12  C   UNL     1       3.847   3.006  18.891  0.00  0.00    +0.000 C 
ENDROOT
BRANCH   1  14
ATOM     13  O   UNL     1       7.995   4.259  17.127  0.00  0.00    +0.000 OA
ATOM     14  S   UNL     1       7.245   5.311  16.471  0.00  0.00    +0.000 S 
ATOM     15  O   UNL     1       7.704   6.689  16.385  0.00  0.00    +0.000 OA
BRANCH  14  16
ATOM     16  C   UNL     1       6.780   4.734  14.794  0.00  0.00    +0.000 A 
ATOM     17  C   UNL     1       7.616   4.965  13.686  0.00  0.00    +0.000 A 
ATOM     18  C   UNL     1       7.249   4.492  12.412  0.00  0.00    +0.000 A 
ATOM     19  C   UNL     1       6.062   3.784  12.237  0.00  0.00    +0.000 A 
ATOM     20  C   UNL     1       5.247   3.525  13.339  0.00  0.00    +0.000 A 
ATOM     21  C   UNL     1       5.604   3.990  14.617  0.00  0.00    +0.000 A 
ENDBRANCH  14  16
ENDBRANCH   1  14
BRANCH  11  22
ATOM     22  C   UNL     1       2.999   2.560  21.079  0.00  0.00    +0.000 C 
BRANCH  22  23
ATOM     23  O   UNL     1       2.235   3.121  22.132  0.00  0.00    +0.000 OA
ATOM     24  H   UNL     1       1.925   3.974  21.794  0.00  0.00    +0.000 HD
ENDBRANCH  22  23
ENDBRANCH  11  22
TORSDOF 4
ENDMDL
MODEL 3
REMARK VINA RESULT:      -8.3      1.035      1.051
REMARK  Name = 
REMARK  4 active torsions:
REMARK  status: ('A' for Active; 'I' for Inactive)
REMARK    1  A    between atoms: S_2  and  C_4
REMARK    2  A    between atoms: S_2  and  N_10
REMARK    3  A    between atoms: C_20  and  C_21
REMARK    4  A    between atoms: C_21  and  O_22
REMARK                            x       y       z     vdW  Elec       q    Type
REMARK                         _______ _______ _______ _____ _____    ______ ____
ROOT
ATOM      1  N   UNL     1       5.671   5.409  16.953  0.00  0.00    +0.000 N 
ATOM      2  C   UNL     1       5.346   4.344  17.740  0.00  0.00    +0.000 A 
ATOM      3  C   UNL     1       4.081   4.110  17.307  0.00  0.00    +0.000 A 
ATOM      4  C   UNL     1       3.598   5.403  17.463  0.00  0.00    +0.000 A 
ATOM      5  C   UNL     1       2.443   5.716  18.172  0.00  0.00    +0.000 A 
ATOM      6  C   UNL     1       2.162   7.065  18.320  0.00  0.00    +0.000 A 
ATOM      7  C   UNL     1       3.042   8.020  17.750  0.00  0.00    +0.000 A 
ATOM      8  C   UNL     1       4.297   7.679  17.138  0.00  0.00    +0.000 A 
ATOM      9  C   UNL     1       4.612   6.311  17.119  0.00  0.00    +0.000 A 
ATOM     10  O   UNL     1       1.800   4.664  18.847  0.00  0.00    +0.000 OA
ATOM     11  C   UNL     1       2.303   3.329  18.603  0.00  0.00    +0.000 C 
ATOM     12  C   UNL     1       3.285   3.048  17.723  0.00  0.00    +0.000 C 
ENDROOT
BRANCH   1  14
ATOM     13  O   UNL     1       7.876   4.264  17.082  0.00  0.00    +0.000 OA
ATOM     14  S   UNL     1       7.234   5.330  16.340  0.00  0.00    +0.000 S 
ATOM     15  O   UNL     1       7.725   6.699  16.314  0.00  0.00    +0.000 OA
BRANCH  14  16
ATOM     16  C   UNL     1       6.969   4.761  14.617  0.00  0.00    +0.000 A 
ATOM     17  C   UNL     1       5.936   3.860  14.298  0.00  0.00    +0.000 A 
ATOM     18  C   UNL     1       5.737   3.456  12.965  0.00  0.00    +0.000 A 
ATOM     19  C   UNL     1       6.553   3.949  11.948  0.00  0.00    +0.000 A 
ATOM     20  C   UNL     1       7.556   4.868  12.257  0.00  0.00    +0.000 A 
ATOM     21  C   UNL     1       7.763   5.281  13.584  0.00  0.00    +0.000 A 
ENDBRANCH  14  16
ENDBRANCH   1  14
BRANCH  11  22
ATOM     22  C   UNL     1       2.080   2.250  19.626  0.00  0.00    +0.000 C 
BRANCH  22  23
ATOM     23  O   UNL     1       1.350   1.151  19.113  0.00  0.00    +0.000 OA
ATOM     24  H   UNL     1       0.425   1.338  19.328  0.00  0.00    +0.000 HD
ENDBRANCH  22  23
ENDBRANCH  11  22
TORSDOF 4
ENDMDL
MODEL 4
REMARK VINA RESULT:      -8.1      1.657      3.428
REMARK  Name = 
REMARK  4 active torsions:
REMARK  status: ('A' for Active; 'I' for Inactive)
REMARK    1  A    between atoms: S_2  and  C_4
REMARK    2  A    between atoms: S_2  and  N_10
REMARK    3  A    between atoms: C_20  and  C_21
REMARK    4  A    between atoms: C_21  and  O_22
REMARK                            x       y       z     vdW  Elec       q    Type
REMARK                         _______ _______ _______ _____ _____    ______ ____
ROOT
ATOM      1  N   UNL     1       5.568   5.317  16.823  0.00  0.00    +0.000 N 
ATOM      2  C   UNL     1       4.921   6.494  16.590  0.00  0.00    +0.000 A 
ATOM      3  C   UNL     1       4.270   6.641  17.772  0.00  0.00    +0.000 A 
ATOM      4  C   UNL     1       3.672   5.387  17.803  0.00  0.00    +0.000 A 
ATOM      5  C   UNL     1       2.309   5.184  17.991  0.00  0.00    +0.000 A 
ATOM      6  C   UNL     1       1.864   3.876  17.888  0.00  0.00    +0.000 A 
ATOM      7  C   UNL     1       2.802   2.848  17.610  0.00  0.00    +0.000 A 
ATOM      8  C   UNL     1       4.180   3.095  17.288  0.00  0.00    +0.000 A 
ATOM      9  C   UNL     1       4.569   4.444  17.274  0.00  0.00    +0.000 A 
ATOM     10  O   UNL     1       1.493   6.328  18.048  0.00  0.00    +0.000 OA
ATOM     11  C   UNL     1       2.167   7.609  18.075  0.00  0.00    +0.000 C 
ATOM     12  C   UNL     1       3.506   7.750  18.123  0.00  0.00    +0.000 C 
ENDROOT
BRANCH   1  14
ATOM     13  O   UNL     1       7.799   4.228  16.983  0.00  0.00    +0.000 OA
ATOM     14  S   UNL     1       7.153   5.308  16.265  0.00  0.00    +0.000 S 
ATOM     15  O   UNL     1       7.606   6.689  16.316  0.00  0.00    +0.000 OA
BRANCH  14  16
ATOM     16  C   UNL     1       6.967   4.808  14.511  0.00  0.00    +0.000 A 
ATOM     17  C   UNL     1       7.799   5.342  13.509  0.00  0.00    +0.000 A 
ATOM     18  C   UNL     1       7.653   4.926  12.172  0.00  0.00    +0.000 A 
ATOM     19  C   UNL     1       6.691   3.977  11.829  0.00  0.00    +0.000 A 
ATOM     20  C   UNL     1       5.887   3.422  12.825  0.00  0.00    +0.000 A 
ATOM     21  C   UNL     1       6.025   3.828  14.164  0.00  0.00    +0.000 A 
ENDBRANCH  14  16
ENDBRANCH   1  14
BRANCH  11  22
ATOM     22  C   UNL     1       1.446   8.840  17.602  0.00  0.00    +0.000 C 
BRANCH  22  23
ATOM     23  O   UNL     1       2.317   9.934  17.379  0.00  0.00    +0.000 OA
ATOM     24  H   UNL     1       3.199   9.543  17.294  0.00  0.00    +0.000 HD
ENDBRANCH  22  23
ENDBRANCH  11  22
TORSDOF 4
ENDMDL
MODEL 5
REMARK VINA RESULT:      -8.1      1.662      3.280
REMARK  Name = 
REMARK  4 active torsions:
REMARK  status: ('A' for Active; 'I' for Inactive)
REMARK    1  A    between atoms: S_2  and  C_4
REMARK    2  A    between atoms: S_2  and  N_10
REMARK    3  A    between atoms: C_20  and  C_21
REMARK    4  A    between atoms: C_21  and  O_22
REMARK                            x       y       z     vdW  Elec       q    Type
REMARK                         _______ _______ _______ _____ _____    ______ ____
ROOT
ATOM      1  N   UNL     1       5.573   5.315  16.836  0.00  0.00    +0.000 N 
ATOM      2  C   UNL     1       4.929   6.494  16.602  0.00  0.00    +0.000 A 
ATOM      3  C   UNL     1       4.269   6.639  17.779  0.00  0.00    +0.000 A 
ATOM      4  C   UNL     1       3.670   5.385  17.801  0.00  0.00    +0.000 A 
ATOM      5  C   UNL     1       2.304   5.184  17.977  0.00  0.00    +0.000 A 
ATOM      6  C   UNL     1       1.859   3.877  17.867  0.00  0.00    +0.000 A 
ATOM      7  C   UNL     1       2.797   2.848  17.593  0.00  0.00    +0.000 A 
ATOM      8  C   UNL     1       4.178   3.095  17.283  0.00  0.00    +0.000 A 
ATOM      9  C   UNL     1       4.569   4.443  17.277  0.00  0.00    +0.000 A 
ATOM     10  O   UNL     1       1.490   6.329  18.031  0.00  0.00    +0.000 OA
ATOM     11  C   UNL     1       2.165   7.608  18.068  0.00  0.00    +0.000 C 
ATOM     12  C   UNL     1       3.504   7.747  18.127  0.00  0.00    +0.000 C 
ENDROOT
BRANCH   1  14
ATOM     13  O   UNL     1       7.811   4.246  17.038  0.00  0.00    +0.000 OA
ATOM     14  S   UNL     1       7.163   5.306  16.291  0.00  0.00    +0.000 S 
ATOM     15  O   UNL     1       7.605   6.691  16.317  0.00  0.00    +0.000 OA
BRANCH  14  16
ATOM     16  C   UNL     1       6.994   4.768  14.547  0.00  0.00    +0.000 A 
ATOM     17  C   UNL     1       6.020   3.825  14.166  0.00  0.00    +0.000 A 
ATOM     18  C   UNL     1       5.893   3.445  12.817  0.00  0.00    +0.000 A 
ATOM     19  C   UNL     1       6.722   4.003  11.845  0.00  0.00    +0.000 A 
ATOM     20  C   UNL     1       7.666   4.961  12.215  0.00  0.00    +0.000 A 
ATOM     21  C   UNL     1       7.800   5.351  13.558  0.00  0.00    +0.000 A 
ENDBRANCH  14  16
ENDBRANCH   1  14
BRANCH  11  22
ATOM     22  C   UNL     1       1.450   8.842  17.593  0.00  0.00    +0.000 C 
BRANCH  22  23
ATOM     23  O   UNL     1       2.321   9.944  17.407  0.00  0.00    +0.000 OA
ATOM     24  H   UNL     1       3.209   9.594  17.568  0.00  0.00    +0.000 HD
ENDBRANCH  22  23
ENDBRANCH  11  22
TORSDOF 4
ENDMDL
MODEL 6
REMARK VINA RESULT:      -7.5      2.374      6.675
REMARK  Name = 
REMARK  4 active torsions:
REMARK  status: ('A' for Active; 'I' for Inactive)
REMARK    1  A    between atoms: S_2  and  C_4
REMARK    2  A    between atoms: S_2  and  N_10
REMARK    3  A    between atoms: C_20  and  C_21
REMARK    4  A    between atoms: C_21  and  O_22
REMARK                            x       y       z     vdW  Elec       q    Type
REMARK                         _______ _______ _______ _____ _____    ______ ____
ROOT
ATOM      1  N   UNL     1       4.077   3.860  17.198  0.00  0.00    +0.000 N 
ATOM      2  C   UNL     1       4.283   4.187  15.891  0.00  0.00    +0.000 A 
ATOM      3  C   UNL     1       5.564   3.762  15.742  0.00  0.00    +0.000 A 
ATOM      4  C   UNL     1       6.101   4.435  16.833  0.00  0.00    +0.000 A 
ATOM      5  C   UNL     1       7.211   5.269  16.757  0.00  0.00    +0.000 A 
ATOM      6  C   UNL     1       7.551   5.944  17.918  0.00  0.00    +0.000 A 
ATOM      7  C   UNL     1       6.769   5.746  19.085  0.00  0.00    +0.000 A 
ATOM      8  C   UNL     1       5.550   4.986  19.106  0.00  0.00    +0.000 A 
ATOM      9  C   UNL     1       5.165   4.420  17.880  0.00  0.00    +0.000 A 
ATOM     10  O   UNL     1       7.743   5.513  15.478  0.00  0.00    +0.000 OA
ATOM     11  C   UNL     1       7.191   4.743  14.384  0.00  0.00    +0.000 C 
ATOM     12  C   UNL     1       6.268   3.773  14.542  0.00  0.00    +0.000 C 
ENDROOT
BRANCH   1  14
ATOM     13  O   UNL     1       2.722   1.774  17.197  0.00  0.00    +0.000 OA
ATOM     14  S   UNL     1       2.565   3.185  17.485  0.00  0.00    +0.000 S 
ATOM     15  O   UNL     1       1.606   4.041  16.804  0.00  0.00    +0.000 OA
BRANCH  14  16
ATOM     16  C   UNL     1       2.362   3.390  19.296  0.00  0.00    +0.000 A 
ATOM     17  C   UNL     1       2.676   2.346  20.187  0.00  0.00    +0.000 A 
ATOM     18  C   UNL     1       2.535   2.535  21.574  0.00  0.00    +0.000 A 
ATOM     19  C   UNL     1       2.094   3.756  22.080  0.00  0.00    +0.000 A 
ATOM     20  C   UNL     1       1.814   4.803  21.201  0.00  0.00    +0.000 A 
ATOM     21  C   UNL     1       1.953   4.628  19.814  0.00  0.00    +0.000 A 
ENDBRANCH  14  16
ENDBRANCH   1  14
BRANCH  11  22
ATOM     22  C   UNL     1       7.275   5.275  12.981  0.00  0.00    +0.000 C 
BRANCH  22  23
ATOM     23  O   UNL     1       8.453   6.027  12.750  0.00  0.00    +0.000 OA
ATOM     24  H   UNL     1       8.213   6.943  12.952  0.00  0.00    +0.000 HD
ENDBRANCH  22  23
ENDBRANCH  11  22
TORSDOF 4
ENDMDL
MODEL 7
REMARK VINA RESULT:      -7.5      2.216      6.526
REMARK  Name = 
REMARK  4 active torsions:
REMARK  status: ('A' for Active; 'I' for Inactive)
REMARK    1  A    between atoms: S_2  and  C_4
REMARK    2  A    between atoms: S_2  and  N_10
REMARK    3  A    between atoms: C_20  and  C_21
REMARK    4  A    between atoms: C_21  and  O_22
REMARK                            x       y       z     vdW  Elec       q    Type
REMARK                         _______ _______ _______ _____ _____    ______ ____
ROOT
ATOM      1  N   UNL     1       4.200   5.697  18.093  0.00  0.00    +0.000 N 
ATOM      2  C   UNL     1       4.416   5.869  16.758  0.00  0.00    +0.000 A 
ATOM      3  C   UNL     1       5.071   4.714  16.476  0.00  0.00    +0.000 A 
ATOM      4  C   UNL     1       6.040   4.813  17.467  0.00  0.00    +0.000 A 
ATOM      5  C   UNL     1       7.407   4.712  17.225  0.00  0.00    +0.000 A 
ATOM      6  C   UNL     1       8.239   4.940  18.309  0.00  0.00    +0.000 A 
ATOM      7  C   UNL     1       7.663   5.250  19.569  0.00  0.00    +0.000 A 
ATOM      8  C   UNL     1       6.258   5.480  19.765  0.00  0.00    +0.000 A 
ATOM      9  C   UNL     1       5.457   5.367  18.618  0.00  0.00    +0.000 A 
ATOM     10  O   UNL     1       7.814   4.607  15.884  0.00  0.00    +0.000 OA
ATOM     11  C   UNL     1       6.769   4.444  14.896  0.00  0.00    +0.000 C 
ATOM     12  C   UNL     1       5.462   4.317  15.202  0.00  0.00    +0.000 C 
ENDROOT
BRANCH   1  14
ATOM     13  O   UNL     1       1.879   6.225  17.369  0.00  0.00    +0.000 OA
ATOM     14  S   UNL     1       2.665   6.172  18.585  0.00  0.00    +0.000 S 
ATOM     15  O   UNL     1       2.860   7.313  19.465  0.00  0.00    +0.000 OA
BRANCH  14  16
ATOM     16  C   UNL     1       2.095   4.743  19.583  0.00  0.00    +0.000 A 
ATOM     17  C   UNL     1       1.313   3.721  19.011  0.00  0.00    +0.000 A 
ATOM     18  C   UNL     1       0.907   2.622  19.791  0.00  0.00    +0.000 A 
ATOM     19  C   UNL     1       1.281   2.529  21.130  0.00  0.00    +0.000 A 
ATOM     20  C   UNL     1       2.083   3.524  21.690  0.00  0.00    +0.000 A 
ATOM     21  C   UNL     1       2.497   4.625  20.921  0.00  0.00    +0.000 A 
ENDBRANCH  14  16
ENDBRANCH   1  14
BRANCH  11  22
ATOM     22  C   UNL     1       7.019   4.856  13.472  0.00  0.00    +0.000 C 
BRANCH  22  23
ATOM     23  O   UNL     1       8.178   5.657  13.328  0.00  0.00    +0.000 OA
ATOM     24  H   UNL     1       8.695   5.232  12.628  0.00  0.00    +0.000 HD
ENDBRANCH  22  23
ENDBRANCH  11  22
TORSDOF 4
ENDMDL
MODEL 8
REMARK VINA RESULT:      -7.5      2.724      4.300
REMARK  Name = 
REMARK  4 active torsions:
REMARK  status: ('A' for Active; 'I' for Inactive)
REMARK    1  A    between atoms: S_2  and  C_4
REMARK    2  A    between atoms: S_2  and  N_10
REMARK    3  A    between atoms: C_20  and  C_21
REMARK    4  A    between atoms: C_21  and  O_22
REMARK                            x       y       z     vdW  Elec       q    Type
REMARK                         _______ _______ _______ _____ _____    ______ ____
ROOT
ATOM      1  N   UNL     1       4.159   4.577  17.393  0.00  0.00    +0.000 N 
ATOM      2  C   UNL     1       3.600   5.729  17.860  0.00  0.00    +0.000 A 
ATOM      3  C   UNL     1       3.467   5.412  19.173  0.00  0.00    +0.000 A 
ATOM      4  C   UNL     1       2.797   4.207  18.996  0.00  0.00    +0.000 A 
ATOM      5  C   UNL     1       1.594   3.892  19.621  0.00  0.00    +0.000 A 
ATOM      6  C   UNL     1       1.008   2.693  19.252  0.00  0.00    +0.000 A 
ATOM      7  C   UNL     1       1.655   1.875  18.289  0.00  0.00    +0.000 A 
ATOM      8  C   UNL     1       2.825   2.281  17.560  0.00  0.00    +0.000 A 
ATOM      9  C   UNL     1       3.320   3.559  17.866  0.00  0.00    +0.000 A 
ATOM     10  O   UNL     1       0.988   4.902  20.389  0.00  0.00    +0.000 OA
ATOM     11  C   UNL     1       1.753   6.114  20.594  0.00  0.00    +0.000 C 
ATOM     12  C   UNL     1       3.017   6.284  20.158  0.00  0.00    +0.000 C 
ENDROOT
BRANCH   1  14
ATOM     13  O   UNL     1       4.823   5.677  15.263  0.00  0.00    +0.000 OA
ATOM     14  S   UNL     1       5.401   4.838  16.293  0.00  0.00    +0.000 S 
ATOM     15  O   UNL     1       5.986   3.532  16.029  0.00  0.00    +0.000 OA
BRANCH  14  16
ATOM     16  C   UNL     1       6.597   5.841  17.256  0.00  0.00    +0.000 A 
ATOM     17  C   UNL     1       6.886   7.171  16.898  0.00  0.00    +0.000 A 
ATOM     18  C   UNL     1       7.789   7.929  17.666  0.00  0.00    +0.000 A 
ATOM     19  C   UNL     1       8.398   7.375  18.791  0.00  0.00    +0.000 A 
ATOM     20  C   UNL     1       8.087   6.068  19.167  0.00  0.00    +0.000 A 
ATOM     21  C   UNL     1       7.185   5.302  18.410  0.00  0.00    +0.000 A 
ENDBRANCH  14  16
ENDBRANCH   1  14
BRANCH  11  22
ATOM     22  C   UNL     1       1.041   7.401  20.903  0.00  0.00    +0.000 C 
BRANCH  22  23
ATOM     23  O   UNL     1       1.830   8.294  21.669  0.00  0.00    +0.000 OA
ATOM     24  H   UNL     1       2.629   7.796  21.894  0.00  0.00    +0.000 HD
ENDBRANCH  22  23
ENDBRANCH  11  22
TORSDOF 4
ENDMDL
MODEL 9
REMARK VINA RESULT:      -7.5      2.218      6.599
REMARK  Name = 
REMARK  4 active torsions:
REMARK  status: ('A' for Active; 'I' for Inactive)
REMARK    1  A    between atoms: S_2  and  C_4
REMARK    2  A    between atoms: S_2  and  N_10
REMARK    3  A    between atoms: C_20  and  C_21
REMARK    4  A    between atoms: C_21  and  O_22
REMARK                            x       y       z     vdW  Elec       q    Type
REMARK                         _______ _______ _______ _____ _____    ______ ____
ROOT
ATOM      1  N   UNL     1       4.113   5.565  18.018  0.00  0.00    +0.000 N 
ATOM      2  C   UNL     1       4.347   5.764  16.690  0.00  0.00    +0.000 A 
ATOM      3  C   UNL     1       5.053   4.641  16.404  0.00  0.00    +0.000 A 
ATOM      4  C   UNL     1       5.998   4.763  17.415  0.00  0.00    +0.000 A 
ATOM      5  C   UNL     1       7.372   4.720  17.198  0.00  0.00    +0.000 A 
ATOM      6  C   UNL     1       8.174   4.965  18.301  0.00  0.00    +0.000 A 
ATOM      7  C   UNL     1       7.563   5.234  19.553  0.00  0.00    +0.000 A 
ATOM      8  C   UNL     1       6.147   5.405  19.726  0.00  0.00    +0.000 A 
ATOM      9  C   UNL     1       5.372   5.277  18.562  0.00  0.00    +0.000 A 
ATOM     10  O   UNL     1       7.808   4.650  15.864  0.00  0.00    +0.000 OA
ATOM     11  C   UNL     1       6.789   4.461  14.853  0.00  0.00    +0.000 C 
ATOM     12  C   UNL     1       5.483   4.277  15.132  0.00  0.00    +0.000 C 
ENDROOT
BRANCH   1  14
ATOM     13  O   UNL     1       1.753   5.849  17.284  0.00  0.00    +0.000 OA
ATOM     14  S   UNL     1       2.552   5.971  18.487  0.00  0.00    +0.000 S 
ATOM     15  O   UNL     1       2.669   7.204  19.250  0.00  0.00    +0.000 OA
BRANCH  14  16
ATOM     16  C   UNL     1       2.099   4.608  19.626  0.00  0.00    +0.000 A 
ATOM     17  C   UNL     1       2.499   4.623  20.976  0.00  0.00    +0.000 A 
ATOM     18  C   UNL     1       2.119   3.577  21.837  0.00  0.00    +0.000 A 
ATOM     19  C   UNL     1       1.338   2.523  21.367  0.00  0.00    +0.000 A 
ATOM     20  C   UNL     1       0.913   2.522  20.039  0.00  0.00    +0.000 A 
ATOM     21  C   UNL     1       1.283   3.562  19.169  0.00  0.00    +0.000 A 
ENDBRANCH  14  16
ENDBRANCH   1  14
BRANCH  11  22
ATOM     22  C   UNL     1       7.049   4.902  13.440  0.00  0.00    +0.000 C 
BRANCH  22  23
ATOM     23  O   UNL     1       8.227   5.680  13.317  0.00  0.00    +0.000 OA
ATOM     24  H   UNL     1       8.328   6.125  14.170  0.00  0.00    +0.000 HD
ENDBRANCH  22  23
ENDBRANCH  11  22
TORSDOF 4
ENDMDL
