MODEL 1
REMARK VINA RESULT:      -7.1      0.000      0.000
REMARK  Name = 
REMARK  8 active torsions:
REMARK  status: ('A' for Active; 'I' for Inactive)
REMARK    1  A    between atoms: C_1  and  O_2
REMARK    2  A    between atoms: O_2  and  C_3
REMARK    3  A    between atoms: C_6  and  C_7
REMARK    4  A    between atoms: N_9  and  C_10
REMARK    5  A    between atoms: C_15  and  N_16
REMARK    6  A    between atoms: C_20  and  C_22
REMARK    7  A    between atoms: C_22  and  C_23
REMARK    8  A    between atoms: C_22  and  C_24
REMARK                            x       y       z     vdW  Elec       q    Type
REMARK                         _______ _______ _______ _____ _____    ______ ____
ROOT
ATOM      1  C   UNL     1       6.332   6.291  16.596  0.00  0.00    +0.000 A 
ATOM      2  C   UNL     1       7.027   5.413  15.746  0.00  0.00    +0.000 A 
ATOM      3  C   UNL     1       6.491   4.178  15.402  0.00  0.00    +0.000 A 
ATOM      4  C   UNL     1       5.271   3.805  15.936  0.00  0.00    +0.000 A 
ATOM      5  C   UNL     1       4.580   4.680  16.793  0.00  0.00    +0.000 A 
ATOM      6  C   UNL     1       5.063   5.962  17.131  0.00  0.00    +0.000 A 
ENDROOT
BRANCH   6   7
ATOM      7  N   UNL     1       4.331   6.774  17.992  0.00  0.00    +0.000 N 
ATOM      8  C   UNL     1       3.762   8.070  17.544  0.00  0.00    +0.000 C 
ATOM      9  C   UNL     1       2.245   8.147  17.817  0.00  0.00    +0.000 C 
ATOM     10  N   UNL     1       1.927   7.796  19.207  0.00  0.00    +0.000 N 
ATOM     11  C   UNL     1       1.088   8.614  19.942  0.00  0.00    +0.000 C 
ATOM     12  O   UNL     1       0.591   9.626  19.438  0.00  0.00    +0.000 OA
ATOM     13  C   UNL     1       2.436   6.479  19.594  0.00  0.00    +0.000 C 
ATOM     14  C   UNL     1       3.956   6.375  19.362  0.00  0.00    +0.000 C 
BRANCH  11  15
ATOM     15  C   UNL     1       0.800   8.257  21.407  0.00  0.00    +0.000 C 
ATOM     16  C   UNL     1       1.604   9.127  22.373  0.00  0.00    +0.000 C 
ATOM     17  C   UNL     1      -0.692   8.434  21.717  0.00  0.00    +0.000 C 
ENDBRANCH  11  15
ENDBRANCH   6   7
BRANCH   1  20
ATOM     18  C   UNL     1       7.760   7.754  17.923  0.00  0.00    +0.000 C 
ATOM     19  O   UNL     1       8.088   6.879  18.721  0.00  0.00    +0.000 OA
ATOM     20  N   UNL     1       6.923   7.559  16.837  0.00  0.00    +0.000 N 
ATOM     21  H   UNL     1       6.468   8.337  16.382  0.00  0.00    +0.000 HD
BRANCH  18  25
ATOM     22  C   UNL     1       9.409  11.641  18.713  0.00  0.00    +0.000 A 
ATOM     23  C   UNL     1       9.820  10.514  19.426  0.00  0.00    +0.000 A 
ATOM     24  C   UNL     1       9.256   9.269  19.149  0.00  0.00    +0.000 A 
ATOM     25  C   UNL     1       8.273   9.127  18.159  0.00  0.00    +0.000 A 
ATOM     26  C   UNL     1       7.812  10.262  17.487  0.00  0.00    +0.000 A 
ATOM     27  C   UNL     1       8.374  11.513  17.772  0.00  0.00    +0.000 A 
ATOM     28 CL   UNL     1       7.765  12.885  16.915  0.00  0.00    +0.000 Cl
BRANCH  22  30
ATOM     29  C   UNL     1      11.215  13.099  18.307  0.00  0.00    +0.000 C 
ATOM     30  O   UNL     1       9.944  12.885  18.921  0.00  0.00    +0.000 OA
ENDBRANCH  22  30
ENDBRANCH  18  25
ENDBRANCH   1  20
TORSDOF 5
ENDMDL
MODEL 2
REMARK VINA RESULT:      -6.9      4.720      9.226
REMARK  Name = 
REMARK  8 active torsions:
REMARK  status: ('A' for Active; 'I' for Inactive)
REMARK    1  A    between atoms: C_1  and  O_2
REMARK    2  A    between atoms: O_2  and  C_3
REMARK    3  A    between atoms: C_6  and  C_7
REMARK    4  A    between atoms: N_9  and  C_10
REMARK    5  A    between atoms: C_15  and  N_16
REMARK    6  A    between atoms: C_20  and  C_22
REMARK    7  A    between atoms: C_22  and  C_23
REMARK    8  A    between atoms: C_22  and  C_24
REMARK                            x       y       z     vdW  Elec       q    Type
REMARK                         _______ _______ _______ _____ _____    ______ ____
ROOT
ATOM      1  C   UNL     1      -0.390  11.597  21.606  0.00  0.00    +0.000 A 
ATOM      2  C   UNL     1      -1.439  11.347  22.509  0.00  0.00    +0.000 A 
ATOM      3  C   UNL     1      -1.990  12.374  23.265  0.00  0.00    +0.000 A 
ATOM      4  C   UNL     1      -1.469  13.650  23.143  0.00  0.00    +0.000 A 
ATOM      5  C   UNL     1      -0.415  13.898  22.246  0.00  0.00    +0.000 A 
ATOM      6  C   UNL     1       0.143  12.896  21.424  0.00  0.00    +0.000 A 
ENDROOT
BRANCH   6   7
ATOM      7  N   UNL     1       1.192  13.209  20.565  0.00  0.00    +0.000 N 
ATOM      8  C   UNL     1       0.955  13.546  19.138  0.00  0.00    +0.000 C 
ATOM      9  C   UNL     1       1.586  14.904  18.764  0.00  0.00    +0.000 C 
ATOM     10  N   UNL     1       2.993  14.978  19.178  0.00  0.00    +0.000 N 
ATOM     11  C   UNL     1       3.945  15.420  18.276  0.00  0.00    +0.000 C 
ATOM     12  O   UNL     1       3.624  15.767  17.136  0.00  0.00    +0.000 OA
ATOM     13  C   UNL     1       3.184  14.717  20.605  0.00  0.00    +0.000 C 
ATOM     14  C   UNL     1       2.591  13.353  21.010  0.00  0.00    +0.000 C 
BRANCH  11  15
ATOM     15  C   UNL     1       5.418  15.451  18.708  0.00  0.00    +0.000 C 
ATOM     16  C   UNL     1       6.312  14.676  17.741  0.00  0.00    +0.000 C 
ATOM     17  C   UNL     1       5.922  16.897  18.787  0.00  0.00    +0.000 C 
ENDBRANCH  11  15
ENDBRANCH   6   7
BRANCH   1  20
ATOM     18  C   UNL     1       1.000   9.614  21.328  0.00  0.00    +0.000 C 
ATOM     19  O   UNL     1       1.475   9.664  22.461  0.00  0.00    +0.000 OA
ATOM     20  N   UNL     1       0.064  10.502  20.825  0.00  0.00    +0.000 N 
ATOM     21  H   UNL     1      -0.088  10.593  19.830  0.00  0.00    +0.000 HD
BRANCH  18  25
ATOM     22  C   UNL     1       2.466   6.667  18.570  0.00  0.00    +0.000 A 
ATOM     23  C   UNL     1       2.168   7.967  18.160  0.00  0.00    +0.000 A 
ATOM     24  C   UNL     1       1.685   8.895  19.081  0.00  0.00    +0.000 A 
ATOM     25  C   UNL     1       1.490   8.544  20.424  0.00  0.00    +0.000 A 
ATOM     26  C   UNL     1       1.725   7.227  20.826  0.00  0.00    +0.000 A 
ATOM     27  C   UNL     1       2.203   6.293  19.898  0.00  0.00    +0.000 A 
ATOM     28 CL   UNL     1       2.475   4.676  20.447  0.00  0.00    +0.000 Cl
BRANCH  22  30
ATOM     29  C   UNL     1       4.333   5.910  17.346  0.00  0.00    +0.000 C 
ATOM     30  O   UNL     1       2.968   5.718  17.718  0.00  0.00    +0.000 OA
ENDBRANCH  22  30
ENDBRANCH  18  25
ENDBRANCH   1  20
TORSDOF 5
ENDMDL
MODEL 3
REMARK VINA RESULT:      -6.8      1.070      1.410
REMARK  Name = 
REMARK  8 active torsions:
REMARK  status: ('A' for Active; 'I' for Inactive)
REMARK    1  A    between atoms: C_1  and  O_2
REMARK    2  A    between atoms: O_2  and  C_3
REMARK    3  A    between atoms: C_6  and  C_7
REMARK    4  A    between atoms: N_9  and  C_10
REMARK    5  A    between atoms: C_15  and  N_16
REMARK    6  A    between atoms: C_20  and  C_22
REMARK    7  A    between atoms: C_22  and  C_23
REMARK    8  A    between atoms: C_22  and  C_24
REMARK                            x       y       z     vdW  Elec       q    Type
REMARK                         _______ _______ _______ _____ _____    ______ ____
ROOT
ATOM      1  C   UNL     1       6.408   6.327  16.649  0.00  0.00    +0.000 A 
ATOM      2  C   UNL     1       7.122   5.449  15.815  0.00  0.00    +0.000 A 
ATOM      3  C   UNL     1       6.612   4.198  15.492  0.00  0.00    +0.000 A 
ATOM      4  C   UNL     1       5.399   3.809  16.031  0.00  0.00    +0.000 A 
ATOM      5  C   UNL     1       4.689   4.684  16.872  0.00  0.00    +0.000 A 
ATOM      6  C   UNL     1       5.145   5.981  17.188  0.00  0.00    +0.000 A 
ENDROOT
BRANCH   6   7
ATOM      7  N   UNL     1       4.396   6.793  18.035  0.00  0.00    +0.000 N 
ATOM      8  C   UNL     1       3.826   8.083  17.573  0.00  0.00    +0.000 C 
ATOM      9  C   UNL     1       2.305   8.153  17.822  0.00  0.00    +0.000 C 
ATOM     10  N   UNL     1       1.968   7.806  19.209  0.00  0.00    +0.000 N 
ATOM     11  C   UNL     1       1.113   8.622  19.927  0.00  0.00    +0.000 C 
ATOM     12  O   UNL     1       0.618   9.629  19.412  0.00  0.00    +0.000 OA
ATOM     13  C   UNL     1       2.479   6.494  19.610  0.00  0.00    +0.000 C 
ATOM     14  C   UNL     1       4.003   6.398  19.401  0.00  0.00    +0.000 C 
BRANCH  11  15
ATOM     15  C   UNL     1       0.806   8.270  21.389  0.00  0.00    +0.000 C 
ATOM     16  C   UNL     1       1.572   9.164  22.364  0.00  0.00    +0.000 C 
ATOM     17  C   UNL     1      -0.696   8.417  21.670  0.00  0.00    +0.000 C 
ENDBRANCH  11  15
ENDBRANCH   6   7
BRANCH   1  20
ATOM     18  C   UNL     1       7.827   7.835  17.935  0.00  0.00    +0.000 C 
ATOM     19  O   UNL     1       8.194   6.975  18.731  0.00  0.00    +0.000 OA
ATOM     20  N   UNL     1       6.972   7.612  16.868  0.00  0.00    +0.000 N 
ATOM     21  H   UNL     1       6.488   8.374  16.417  0.00  0.00    +0.000 HD
BRANCH  18  25
ATOM     22  C   UNL     1       9.066  11.917  18.437  0.00  0.00    +0.000 A 
ATOM     23  C   UNL     1       8.168  11.544  17.437  0.00  0.00    +0.000 A 
ATOM     24  C   UNL     1       7.795  10.207  17.297  0.00  0.00    +0.000 A 
ATOM     25  C   UNL     1       8.311   9.222  18.150  0.00  0.00    +0.000 A 
ATOM     26  C   UNL     1       9.260   9.579  19.111  0.00  0.00    +0.000 A 
ATOM     27  C   UNL     1       9.639  10.921  19.246  0.00  0.00    +0.000 A 
ATOM     28 CL   UNL     1      10.819  11.309  20.449  0.00  0.00    +0.000 Cl
BRANCH  22  30
ATOM     29  C   UNL     1       8.421  14.183  18.435  0.00  0.00    +0.000 C 
ATOM     30  O   UNL     1       9.450  13.216  18.642  0.00  0.00    +0.000 OA
ENDBRANCH  22  30
ENDBRANCH  18  25
ENDBRANCH   1  20
TORSDOF 5
ENDMDL
MODEL 4
REMARK VINA RESULT:      -6.8      4.267      7.429
REMARK  Name = 
REMARK  8 active torsions:
REMARK  status: ('A' for Active; 'I' for Inactive)
REMARK    1  A    between atoms: C_1  and  O_2
REMARK    2  A    between atoms: O_2  and  C_3
REMARK    3  A    between atoms: C_6  and  C_7
REMARK    4  A    between atoms: N_9  and  C_10
REMARK    5  A    between atoms: C_15  and  N_16
REMARK    6  A    between atoms: C_20  and  C_22
REMARK    7  A    between atoms: C_22  and  C_23
REMARK    8  A    between atoms: C_22  and  C_24
REMARK                            x       y       z     vdW  Elec       q    Type
REMARK                         _______ _______ _______ _____ _____    ______ ____
ROOT
ATOM      1  C   UNL     1       2.798   4.978  19.917  0.00  0.00    +0.000 A 
ATOM      2  C   UNL     1       2.212   4.544  21.119  0.00  0.00    +0.000 A 
ATOM      3  C   UNL     1       2.383   3.240  21.567  0.00  0.00    +0.000 A 
ATOM      4  C   UNL     1       3.115   2.357  20.794  0.00  0.00    +0.000 A 
ATOM      5  C   UNL     1       3.694   2.789  19.587  0.00  0.00    +0.000 A 
ATOM      6  C   UNL     1       3.587   4.115  19.119  0.00  0.00    +0.000 A 
ENDROOT
BRANCH   6   7
ATOM      7  N   UNL     1       4.178   4.473  17.910  0.00  0.00    +0.000 N 
ATOM      8  C   UNL     1       5.140   5.600  17.819  0.00  0.00    +0.000 C 
ATOM      9  C   UNL     1       6.471   5.158  17.173  0.00  0.00    +0.000 C 
ATOM     10  N   UNL     1       6.248   4.449  15.906  0.00  0.00    +0.000 N 
ATOM     11  C   UNL     1       6.979   4.807  14.788  0.00  0.00    +0.000 C 
ATOM     12  O   UNL     1       7.827   5.702  14.846  0.00  0.00    +0.000 OA
ATOM     13  C   UNL     1       5.355   3.297  16.045  0.00  0.00    +0.000 C 
ATOM     14  C   UNL     1       4.003   3.707  16.662  0.00  0.00    +0.000 C 
BRANCH  11  15
ATOM     15  C   UNL     1       6.703   4.087  13.461  0.00  0.00    +0.000 C 
ATOM     16  C   UNL     1       5.214   4.072  13.120  0.00  0.00    +0.000 C 
ATOM     17  C   UNL     1       7.460   4.770  12.314  0.00  0.00    +0.000 C 
ENDBRANCH  11  15
ENDBRANCH   6   7
BRANCH   1  20
ATOM     18  C   UNL     1       1.737   7.144  20.268  0.00  0.00    +0.000 C 
ATOM     19  O   UNL     1       1.067   6.774  21.230  0.00  0.00    +0.000 OA
ATOM     20  N   UNL     1       2.629   6.346  19.573  0.00  0.00    +0.000 N 
ATOM     21  H   UNL     1       2.942   6.595  18.645  0.00  0.00    +0.000 HD
BRANCH  18  25
ATOM     22  C   UNL     1       1.234  11.115  18.709  0.00  0.00    +0.000 A 
ATOM     23  C   UNL     1       1.828  10.103  17.954  0.00  0.00    +0.000 A 
ATOM     24  C   UNL     1       1.983   8.827  18.495  0.00  0.00    +0.000 A 
ATOM     25  C   UNL     1       1.551   8.540  19.798  0.00  0.00    +0.000 A 
ATOM     26  C   UNL     1       1.015   9.565  20.581  0.00  0.00    +0.000 A 
ATOM     27  C   UNL     1       0.867  10.848  20.038  0.00  0.00    +0.000 A 
ATOM     28 CL   UNL     1       0.201  12.080  21.051  0.00  0.00    +0.000 Cl
BRANCH  22  30
ATOM     29  C   UNL     1       2.171  13.236  18.287  0.00  0.00    +0.000 C 
ATOM     30  O   UNL     1       1.030  12.380  18.223  0.00  0.00    +0.000 OA
ENDBRANCH  22  30
ENDBRANCH  18  25
ENDBRANCH   1  20
TORSDOF 5
ENDMDL
MODEL 5
REMARK VINA RESULT:      -6.6      4.461      9.128
REMARK  Name = 
REMARK  8 active torsions:
REMARK  status: ('A' for Active; 'I' for Inactive)
REMARK    1  A    between atoms: C_1  and  O_2
REMARK    2  A    between atoms: O_2  and  C_3
REMARK    3  A    between atoms: C_6  and  C_7
REMARK    4  A    between atoms: N_9  and  C_10
REMARK    5  A    between atoms: C_15  and  N_16
REMARK    6  A    between atoms: C_20  and  C_22
REMARK    7  A    between atoms: C_22  and  C_23
REMARK    8  A    between atoms: C_22  and  C_24
REMARK                            x       y       z     vdW  Elec       q    Type
REMARK                         _______ _______ _______ _____ _____    ______ ____
ROOT
ATOM      1  C   UNL     1      -0.002  11.336  21.855  0.00  0.00    +0.000 A 
ATOM      2  C   UNL     1      -1.078  11.050  22.713  0.00  0.00    +0.000 A 
ATOM      3  C   UNL     1      -1.948  12.051  23.127  0.00  0.00    +0.000 A 
ATOM      4  C   UNL     1      -1.722  13.350  22.708  0.00  0.00    +0.000 A 
ATOM      5  C   UNL     1      -0.640  13.638  21.857  0.00  0.00    +0.000 A 
ATOM      6  C   UNL     1       0.238  12.646  21.374  0.00  0.00    +0.000 A 
ENDROOT
BRANCH   6   7
ATOM      7  N   UNL     1       1.295  13.002  20.540  0.00  0.00    +0.000 N 
ATOM      8  C   UNL     1       1.095  13.239  19.088  0.00  0.00    +0.000 C 
ATOM      9  C   UNL     1       1.624  14.625  18.662  0.00  0.00    +0.000 C 
ATOM     10  N   UNL     1       3.000  14.845  19.126  0.00  0.00    +0.000 N 
ATOM     11  C   UNL     1       3.951  15.318  18.240  0.00  0.00    +0.000 C 
ATOM     12  O   UNL     1       3.652  15.573  17.069  0.00  0.00    +0.000 OA
ATOM     13  C   UNL     1       3.148  14.679  20.573  0.00  0.00    +0.000 C 
ATOM     14  C   UNL     1       2.655  13.292  21.032  0.00  0.00    +0.000 C 
BRANCH  11  15
ATOM     15  C   UNL     1       5.394  15.501  18.728  0.00  0.00    +0.000 C 
ATOM     16  C   UNL     1       6.399  14.812  17.806  0.00  0.00    +0.000 C 
ATOM     17  C   UNL     1       5.747  16.992  18.808  0.00  0.00    +0.000 C 
ENDBRANCH  11  15
ENDBRANCH   6   7
BRANCH   1  20
ATOM     18  C   UNL     1       0.529   9.600  20.229  0.00  0.00    +0.000 C 
ATOM     19  O   UNL     1      -0.351   9.930  19.437  0.00  0.00    +0.000 OA
ATOM     20  N   UNL     1       0.793  10.240  21.428  0.00  0.00    +0.000 N 
ATOM     21  H   UNL     1       1.322   9.786  22.158  0.00  0.00    +0.000 HD
BRANCH  18  25
ATOM     22  C   UNL     1       2.789   6.046  19.388  0.00  0.00    +0.000 A 
ATOM     23  C   UNL     1       2.013   6.163  20.542  0.00  0.00    +0.000 A 
ATOM     24  C   UNL     1       1.299   7.335  20.787  0.00  0.00    +0.000 A 
ATOM     25  C   UNL     1       1.349   8.410  19.888  0.00  0.00    +0.000 A 
ATOM     26  C   UNL     1       2.174   8.324  18.765  0.00  0.00    +0.000 A 
ATOM     27  C   UNL     1       2.896   7.148  18.524  0.00  0.00    +0.000 A 
ATOM     28 CL   UNL     1       3.905   7.094  17.121  0.00  0.00    +0.000 Cl
BRANCH  22  30
ATOM     29  C   UNL     1       2.708   3.718  19.031  0.00  0.00    +0.000 C 
ATOM     30  O   UNL     1       3.491   4.910  19.079  0.00  0.00    +0.000 OA
ENDBRANCH  22  30
ENDBRANCH  18  25
ENDBRANCH   1  20
TORSDOF 5
ENDMDL
MODEL 6
REMARK VINA RESULT:      -6.6      3.052      6.695
REMARK  Name = 
REMARK  8 active torsions:
REMARK  status: ('A' for Active; 'I' for Inactive)
REMARK    1  A    between atoms: C_1  and  O_2
REMARK    2  A    between atoms: O_2  and  C_3
REMARK    3  A    between atoms: C_6  and  C_7
REMARK    4  A    between atoms: N_9  and  C_10
REMARK    5  A    between atoms: C_15  and  N_16
REMARK    6  A    between atoms: C_20  and  C_22
REMARK    7  A    between atoms: C_22  and  C_23
REMARK    8  A    between atoms: C_22  and  C_24
REMARK                            x       y       z     vdW  Elec       q    Type
REMARK                         _______ _______ _______ _____ _____    ______ ____
ROOT
ATOM      1  C   UNL     1       1.909   3.998  18.640  0.00  0.00    +0.000 A 
ATOM      2  C   UNL     1       0.697   3.361  18.959  0.00  0.00    +0.000 A 
ATOM      3  C   UNL     1       0.647   1.991  19.184  0.00  0.00    +0.000 A 
ATOM      4  C   UNL     1       1.808   1.249  19.058  0.00  0.00    +0.000 A 
ATOM      5  C   UNL     1       3.018   1.885  18.730  0.00  0.00    +0.000 A 
ATOM      6  C   UNL     1       3.124   3.278  18.541  0.00  0.00    +0.000 A 
ENDROOT
BRANCH   6   7
ATOM      7  N   UNL     1       4.353   3.841  18.210  0.00  0.00    +0.000 N 
ATOM      8  C   UNL     1       4.968   3.638  16.873  0.00  0.00    +0.000 C 
ATOM      9  C   UNL     1       5.316   4.982  16.199  0.00  0.00    +0.000 C 
ATOM     10  N   UNL     1       6.090   5.851  17.094  0.00  0.00    +0.000 N 
ATOM     11  C   UNL     1       7.240   6.462  16.625  0.00  0.00    +0.000 C 
ATOM     12  O   UNL     1       7.612   6.297  15.459  0.00  0.00    +0.000 OA
ATOM     13  C   UNL     1       5.422   6.095  18.374  0.00  0.00    +0.000 C 
ATOM     14  C   UNL     1       5.084   4.773  19.090  0.00  0.00    +0.000 C 
BRANCH  11  15
ATOM     15  C   UNL     1       8.062   7.332  17.585  0.00  0.00    +0.000 C 
ATOM     16  C   UNL     1       7.465   8.731  17.737  0.00  0.00    +0.000 C 
ATOM     17  C   UNL     1       8.134   6.678  18.971  0.00  0.00    +0.000 C 
ENDBRANCH  11  15
ENDBRANCH   6   7
BRANCH   1  20
ATOM     18  C   UNL     1       1.885   6.235  19.608  0.00  0.00    +0.000 C 
ATOM     19  O   UNL     1       1.957   5.843  20.771  0.00  0.00    +0.000 OA
ATOM     20  N   UNL     1       1.878   5.410  18.496  0.00  0.00    +0.000 N 
ATOM     21  H   UNL     1       1.547   5.741  17.601  0.00  0.00    +0.000 HD
BRANCH  18  25
ATOM     22  C   UNL     1       1.571  10.430  18.747  0.00  0.00    +0.000 A 
ATOM     23  C   UNL     1       2.110   9.533  17.824  0.00  0.00    +0.000 A 
ATOM     24  C   UNL     1       2.205   8.179  18.141  0.00  0.00    +0.000 A 
ATOM     25  C   UNL     1       1.766   7.697  19.382  0.00  0.00    +0.000 A 
ATOM     26  C   UNL     1       1.285   8.599  20.334  0.00  0.00    +0.000 A 
ATOM     27  C   UNL     1       1.197   9.961  20.016  0.00  0.00    +0.000 A 
ATOM     28 CL   UNL     1       0.598  11.035  21.231  0.00  0.00    +0.000 Cl
BRANCH  22  30
ATOM     29  C   UNL     1       2.632  12.436  18.109  0.00  0.00    +0.000 C 
ATOM     30  O   UNL     1       1.427  11.767  18.483  0.00  0.00    +0.000 OA
ENDBRANCH  22  30
ENDBRANCH  18  25
ENDBRANCH   1  20
TORSDOF 5
ENDMDL
MODEL 7
REMARK VINA RESULT:      -6.5      4.442      8.744
REMARK  Name = 
REMARK  8 active torsions:
REMARK  status: ('A' for Active; 'I' for Inactive)
REMARK    1  A    between atoms: C_1  and  O_2
REMARK    2  A    between atoms: O_2  and  C_3
REMARK    3  A    between atoms: C_6  and  C_7
REMARK    4  A    between atoms: N_9  and  C_10
REMARK    5  A    between atoms: C_15  and  N_16
REMARK    6  A    between atoms: C_20  and  C_22
REMARK    7  A    between atoms: C_22  and  C_23
REMARK    8  A    between atoms: C_22  and  C_24
REMARK                            x       y       z     vdW  Elec       q    Type
REMARK                         _______ _______ _______ _____ _____    ______ ____
ROOT
ATOM      1  C   UNL     1       0.125  11.415  20.157  0.00  0.00    +0.000 A 
ATOM      2  C   UNL     1      -1.244  11.215  20.403  0.00  0.00    +0.000 A 
ATOM      3  C   UNL     1      -2.128  12.286  20.438  0.00  0.00    +0.000 A 
ATOM      4  C   UNL     1      -1.636  13.566  20.259  0.00  0.00    +0.000 A 
ATOM      5  C   UNL     1      -0.265  13.767  20.021  0.00  0.00    +0.000 A 
ATOM      6  C   UNL     1       0.660  12.707  19.929  0.00  0.00    +0.000 A 
ENDROOT
BRANCH   6   7
ATOM      7  N   UNL     1       2.006  12.978  19.701  0.00  0.00    +0.000 N 
ATOM      8  C   UNL     1       2.584  12.949  18.333  0.00  0.00    +0.000 C 
ATOM      9  C   UNL     1       3.306  14.271  17.995  0.00  0.00    +0.000 C 
ATOM     10  N   UNL     1       4.259  14.650  19.046  0.00  0.00    +0.000 N 
ATOM     11  C   UNL     1       5.545  15.021  18.698  0.00  0.00    +0.000 C 
ATOM     12  O   UNL     1       5.896  15.053  17.515  0.00  0.00    +0.000 OA
ATOM     13  C   UNL     1       3.641  14.745  20.370  0.00  0.00    +0.000 C 
ATOM     14  C   UNL     1       2.934  13.430  20.754  0.00  0.00    +0.000 C 
BRANCH  11  15
ATOM     15  C   UNL     1       6.542  15.373  19.811  0.00  0.00    +0.000 C 
ATOM     16  C   UNL     1       7.828  14.554  19.703  0.00  0.00    +0.000 C 
ATOM     17  C   UNL     1       6.906  16.862  19.752  0.00  0.00    +0.000 C 
ENDBRANCH  11  15
ENDBRANCH   6   7
BRANCH   1  20
ATOM     18  C   UNL     1       1.050   9.556  18.881  0.00  0.00    +0.000 C 
ATOM     19  O   UNL     1       0.506   9.876  17.827  0.00  0.00    +0.000 OA
ATOM     20  N   UNL     1       0.943  10.257  20.070  0.00  0.00    +0.000 N 
ATOM     21  H   UNL     1       1.168   9.825  20.954  0.00  0.00    +0.000 HD
BRANCH  18  25
ATOM     22  C   UNL     1       3.506   6.035  18.755  0.00  0.00    +0.000 A 
ATOM     23  C   UNL     1       3.574   7.009  17.758  0.00  0.00    +0.000 A 
ATOM     24  C   UNL     1       2.754   8.135  17.827  0.00  0.00    +0.000 A 
ATOM     25  C   UNL     1       1.855   8.308  18.888  0.00  0.00    +0.000 A 
ATOM     26  C   UNL     1       1.737   7.306  19.854  0.00  0.00    +0.000 A 
ATOM     27  C   UNL     1       2.556   6.172  19.780  0.00  0.00    +0.000 A 
ATOM     28 CL   UNL     1       2.368   4.961  20.999  0.00  0.00    +0.000 Cl
BRANCH  22  30
ATOM     29  C   UNL     1       5.624   5.131  19.259  0.00  0.00    +0.000 C 
ATOM     30  O   UNL     1       4.304   4.921  18.757  0.00  0.00    +0.000 OA
ENDBRANCH  22  30
ENDBRANCH  18  25
ENDBRANCH   1  20
TORSDOF 5
ENDMDL
MODEL 8
REMARK VINA RESULT:      -6.5      4.186      8.103
REMARK  Name = 
REMARK  8 active torsions:
REMARK  status: ('A' for Active; 'I' for Inactive)
REMARK    1  A    between atoms: C_1  and  O_2
REMARK    2  A    between atoms: O_2  and  C_3
REMARK    3  A    between atoms: C_6  and  C_7
REMARK    4  A    between atoms: N_9  and  C_10
REMARK    5  A    between atoms: C_15  and  N_16
REMARK    6  A    between atoms: C_20  and  C_22
REMARK    7  A    between atoms: C_22  and  C_23
REMARK    8  A    between atoms: C_22  and  C_24
REMARK                            x       y       z     vdW  Elec       q    Type
REMARK                         _______ _______ _______ _____ _____    ______ ____
ROOT
ATOM      1  C   UNL     1      -0.043  10.476  19.064  0.00  0.00    +0.000 A 
ATOM      2  C   UNL     1      -1.362  10.066  18.799  0.00  0.00    +0.000 A 
ATOM      3  C   UNL     1      -2.358  10.995  18.526  0.00  0.00    +0.000 A 
ATOM      4  C   UNL     1      -2.043  12.342  18.551  0.00  0.00    +0.000 A 
ATOM      5  C   UNL     1      -0.726  12.752  18.825  0.00  0.00    +0.000 A 
ATOM      6  C   UNL     1       0.327  11.843  19.059  0.00  0.00    +0.000 A 
ENDROOT
BRANCH   6   7
ATOM      7  N   UNL     1       1.606  12.318  19.333  0.00  0.00    +0.000 N 
ATOM      8  C   UNL     1       2.599  12.547  18.253  0.00  0.00    +0.000 C 
ATOM      9  C   UNL     1       3.156  13.985  18.291  0.00  0.00    +0.000 C 
ATOM     10  N   UNL     1       3.630  14.346  19.633  0.00  0.00    +0.000 N 
ATOM     11  C   UNL     1       4.877  14.927  19.782  0.00  0.00    +0.000 C 
ATOM     12  O   UNL     1       5.588  15.160  18.800  0.00  0.00    +0.000 OA
ATOM     13  C   UNL     1       2.604  14.183  20.665  0.00  0.00    +0.000 C 
ATOM     14  C   UNL     1       2.044  12.747  20.675  0.00  0.00    +0.000 C 
BRANCH  11  15
ATOM     15  C   UNL     1       5.376  15.258  21.195  0.00  0.00    +0.000 C 
ATOM     16  C   UNL     1       6.679  14.529  21.524  0.00  0.00    +0.000 C 
ATOM     17  C   UNL     1       5.612  16.767  21.340  0.00  0.00    +0.000 C 
ENDBRANCH  11  15
ENDBRANCH   6   7
BRANCH   1  20
ATOM     18  C   UNL     1       1.581   8.885  18.186  0.00  0.00    +0.000 C 
ATOM     19  O   UNL     1       1.428   9.222  17.013  0.00  0.00    +0.000 OA
ATOM     20  N   UNL     1       0.923   9.455  19.262  0.00  0.00    +0.000 N 
ATOM     21  H   UNL     1       0.867   8.980  20.152  0.00  0.00    +0.000 HD
BRANCH  18  25
ATOM     22  C   UNL     1       4.147   5.574  19.134  0.00  0.00    +0.000 A 
ATOM     23  C   UNL     1       3.099   5.951  19.974  0.00  0.00    +0.000 A 
ATOM     24  C   UNL     1       2.291   7.037  19.639  0.00  0.00    +0.000 A 
ATOM     25  C   UNL     1       2.515   7.766  18.463  0.00  0.00    +0.000 A 
ATOM     26  C   UNL     1       3.602   7.434  17.650  0.00  0.00    +0.000 A 
ATOM     27  C   UNL     1       4.417   6.347  17.992  0.00  0.00    +0.000 A 
ATOM     28 CL   UNL     1       5.750   5.980  16.954  0.00  0.00    +0.000 Cl
BRANCH  22  30
ATOM     29  C   UNL     1       4.378   3.229  19.103  0.00  0.00    +0.000 C 
ATOM     30  O   UNL     1       4.957   4.500  19.395  0.00  0.00    +0.000 OA
ENDBRANCH  22  30
ENDBRANCH  18  25
ENDBRANCH   1  20
TORSDOF 5
ENDMDL
MODEL 9
REMARK VINA RESULT:      -6.4      4.383      5.805
REMARK  Name = 
REMARK  8 active torsions:
REMARK  status: ('A' for Active; 'I' for Inactive)
REMARK    1  A    between atoms: C_1  and  O_2
REMARK    2  A    between atoms: O_2  and  C_3
REMARK    3  A    between atoms: C_6  and  C_7
REMARK    4  A    between atoms: N_9  and  C_10
REMARK    5  A    between atoms: C_15  and  N_16
REMARK    6  A    between atoms: C_20  and  C_22
REMARK    7  A    between atoms: C_22  and  C_23
REMARK    8  A    between atoms: C_22  and  C_24
REMARK                            x       y       z     vdW  Elec       q    Type
REMARK                         _______ _______ _______ _____ _____    ______ ____
ROOT
ATOM      1  C   UNL     1       3.122   4.113  19.372  0.00  0.00    +0.000 A 
ATOM      2  C   UNL     1       2.937   2.746  19.648  0.00  0.00    +0.000 A 
ATOM      3  C   UNL     1       1.943   2.322  20.520  0.00  0.00    +0.000 A 
ATOM      4  C   UNL     1       1.152   3.268  21.146  0.00  0.00    +0.000 A 
ATOM      5  C   UNL     1       1.343   4.635  20.877  0.00  0.00    +0.000 A 
ATOM      6  C   UNL     1       2.307   5.108  19.963  0.00  0.00    +0.000 A 
ENDROOT
BRANCH   6   7
ATOM      7  N   UNL     1       2.448   6.477  19.750  0.00  0.00    +0.000 N 
ATOM      8  C   UNL     1       3.008   7.014  18.484  0.00  0.00    +0.000 C 
ATOM      9  C   UNL     1       2.056   8.040  17.834  0.00  0.00    +0.000 C 
ATOM     10  N   UNL     1       1.634   9.069  18.793  0.00  0.00    +0.000 N 
ATOM     11  C   UNL     1       1.704  10.404  18.435  0.00  0.00    +0.000 C 
ATOM     12  O   UNL     1       2.100  10.738  17.314  0.00  0.00    +0.000 OA
ATOM     13  C   UNL     1       1.017   8.510  19.997  0.00  0.00    +0.000 C 
ATOM     14  C   UNL     1       1.952   7.500  20.690  0.00  0.00    +0.000 C 
BRANCH  11  15
ATOM     15  C   UNL     1       1.301  11.469  19.463  0.00  0.00    +0.000 C 
ATOM     16  C   UNL     1       2.088  12.766  19.277  0.00  0.00    +0.000 C 
ATOM     17  C   UNL     1      -0.196  11.786  19.348  0.00  0.00    +0.000 C 
ENDBRANCH  11  15
ENDBRANCH   6   7
BRANCH   1  20
ATOM     18  C   UNL     1       3.966   4.092  17.086  0.00  0.00    +0.000 C 
ATOM     19  O   UNL     1       2.987   3.512  16.622  0.00  0.00    +0.000 OA
ATOM     20  N   UNL     1       4.115   4.450  18.415  0.00  0.00    +0.000 N 
ATOM     21  H   UNL     1       5.023   4.667  18.799  0.00  0.00    +0.000 HD
BRANCH  18  25
ATOM     22  C   UNL     1       7.301   5.083  14.568  0.00  0.00    +0.000 A 
ATOM     23  C   UNL     1       7.132   5.671  15.822  0.00  0.00    +0.000 A 
ATOM     24  C   UNL     1       6.032   5.333  16.609  0.00  0.00    +0.000 A 
ATOM     25  C   UNL     1       5.083   4.404  16.159  0.00  0.00    +0.000 A 
ATOM     26  C   UNL     1       5.212   3.860  14.879  0.00  0.00    +0.000 A 
ATOM     27  C   UNL     1       6.314   4.207  14.086  0.00  0.00    +0.000 A 
ATOM     28 CL   UNL     1       6.426   3.509  12.509  0.00  0.00    +0.000 Cl
BRANCH  22  30
ATOM     29  C   UNL     1       8.039   5.883  12.477  0.00  0.00    +0.000 C 
ATOM     30  O   UNL     1       8.374   5.355  13.761  0.00  0.00    +0.000 OA
ENDBRANCH  22  30
ENDBRANCH  18  25
ENDBRANCH   1  20
TORSDOF 5
ENDMDL
