MODEL 1
REMARK VINA RESULT:      -8.1      0.000      0.000
REMARK  Name = 
REMARK  9 active torsions:
REMARK  status: ('A' for Active; 'I' for Inactive)
REMARK    1  A    between atoms: C_1  and  O_2
REMARK    2  A    between atoms: O_2  and  C_3
REMARK    3  A    between atoms: C_3  and  C_4
REMARK    4  A    between atoms: C_4  and  C_5
REMARK    5  A    between atoms: C_5  and  N_6
REMARK    6  A    between atoms: C_7  and  C_9
REMARK    7  A    between atoms: C_12  and  N_13
REMARK    8  A    between atoms: C_15  and  C_16
REMARK    9  A    between atoms: C_21  and  C_22
REMARK                            x       y       z     vdW  Elec       q    Type
REMARK                         _______ _______ _______ _____ _____    ______ ____
ROOT
ATOM      1  C   UNL     1       0.902   9.295  18.896  0.00  0.00    +0.000 A 
ATOM      2  C   UNL     1       1.591   9.132  17.689  0.00  0.00    +0.000 A 
ATOM      3  C   UNL     1       2.595   8.165  17.584  0.00  0.00    +0.000 A 
ATOM      4  C   UNL     1       2.890   7.336  18.677  0.00  0.00    +0.000 A 
ATOM      5  C   UNL     1       2.230   7.527  19.897  0.00  0.00    +0.000 A 
ATOM      6  C   UNL     1       1.238   8.507  20.003  0.00  0.00    +0.000 A 
ENDROOT
BRANCH   4   7
ATOM      7  N   UNL     1       3.880   6.325  18.533  0.00  0.00    +0.000 N 
ATOM      8  N   UNL     1       5.027   6.616  17.861  0.00  0.00    +0.000 NA
ATOM      9  C   UNL     1       5.862   5.598  18.137  0.00  0.00    +0.000 A 
ATOM     10  C   UNL     1       5.182   4.573  18.839  0.00  0.00    +0.000 A 
ATOM     11  C   UNL     1       3.884   5.016  19.005  0.00  0.00    +0.000 A 
BRANCH  11  12
ATOM     12  C   UNL     1       2.741   4.276  19.484  0.00  0.00    +0.000 A 
ATOM     13  C   UNL     1       2.401   3.994  20.797  0.00  0.00    +0.000 A 
ATOM     14  C   UNL     1       1.222   3.201  20.906  0.00  0.00    +0.000 A 
ATOM     15  C   UNL     1       0.653   2.961  19.677  0.00  0.00    +0.000 A 
ATOM     16  S   UNL     1       1.555   3.659  18.405  0.00  0.00    +0.000 S 
ENDBRANCH  11  12
BRANCH   9  17
ATOM     17  C   UNL     1       7.303   5.565  17.700  0.00  0.00    +0.000 C 
ATOM     18  F   UNL     1       7.902   4.358  17.874  0.00  0.00    +0.000 F 
ATOM     19  F   UNL     1       7.428   5.878  16.381  0.00  0.00    +0.000 F 
ATOM     20  F   UNL     1       8.050   6.475  18.382  0.00  0.00    +0.000 F 
ENDBRANCH   9  17
ENDBRANCH   4   7
BRANCH   1  22
ATOM     21  N   UNL     1      -0.611  10.925  17.910  0.00  0.00    +0.000 N 
ATOM     22  C   UNL     1      -0.160  10.320  19.064  0.00  0.00    +0.000 C 
ATOM     23  O   UNL     1      -0.608  10.552  20.180  0.00  0.00    +0.000 OA
ATOM     24  H   UNL     1      -0.280  10.607  17.008  0.00  0.00    +0.000 HD
BRANCH  21  25
ATOM     25  C   UNL     1      -1.657  11.929  17.944  0.00  0.00    +0.000 C 
BRANCH  25  26
ATOM     26  C   UNL     1      -3.032  11.295  18.146  0.00  0.00    +0.000 C 
BRANCH  26  27
ATOM     27  C   UNL     1      -3.474  10.514  16.914  0.00  0.00    +0.000 C 
BRANCH  27  29
ATOM     28  C   UNL     1      -3.005  10.196  14.622  0.00  0.00    +0.000 C 
ATOM     29  O   UNL     1      -2.667  10.900  15.806  0.00  0.00    +0.000 OA
ENDBRANCH  27  29
ENDBRANCH  26  27
ENDBRANCH  25  26
ENDBRANCH  21  25
ENDBRANCH   1  22
TORSDOF 8
ENDMDL
MODEL 2
REMARK VINA RESULT:      -7.9      0.743      1.291
REMARK  Name = 
REMARK  9 active torsions:
REMARK  status: ('A' for Active; 'I' for Inactive)
REMARK    1  A    between atoms: C_1  and  O_2
REMARK    2  A    between atoms: O_2  and  C_3
REMARK    3  A    between atoms: C_3  and  C_4
REMARK    4  A    between atoms: C_4  and  C_5
REMARK    5  A    between atoms: C_5  and  N_6
REMARK    6  A    between atoms: C_7  and  C_9
REMARK    7  A    between atoms: C_12  and  N_13
REMARK    8  A    between atoms: C_15  and  C_16
REMARK    9  A    between atoms: C_21  and  C_22
REMARK                            x       y       z     vdW  Elec       q    Type
REMARK                         _______ _______ _______ _____ _____    ______ ____
ROOT
ATOM      1  C   UNL     1       1.232   9.050  19.213  0.00  0.00    +0.000 A 
ATOM      2  C   UNL     1       1.510   8.085  20.187  0.00  0.00    +0.000 A 
ATOM      3  C   UNL     1       2.387   7.036  19.900  0.00  0.00    +0.000 A 
ATOM      4  C   UNL     1       3.015   6.967  18.646  0.00  0.00    +0.000 A 
ATOM      5  C   UNL     1       2.705   7.909  17.658  0.00  0.00    +0.000 A 
ATOM      6  C   UNL     1       1.813   8.948  17.944  0.00  0.00    +0.000 A 
ENDROOT
BRANCH   4   7
ATOM      7  N   UNL     1       3.943   5.920  18.392  0.00  0.00    +0.000 N 
ATOM      8  N   UNL     1       5.038   6.180  17.626  0.00  0.00    +0.000 NA
ATOM      9  C   UNL     1       5.847   5.121  17.802  0.00  0.00    +0.000 A 
ATOM     10  C   UNL     1       5.187   4.107  18.538  0.00  0.00    +0.000 A 
ATOM     11  C   UNL     1       3.930   4.600  18.831  0.00  0.00    +0.000 A 
BRANCH  11  12
ATOM     12  C   UNL     1       2.803   3.896  19.393  0.00  0.00    +0.000 A 
ATOM     13  C   UNL     1       2.598   3.539  20.715  0.00  0.00    +0.000 A 
ATOM     14  C   UNL     1       1.388   2.812  20.912  0.00  0.00    +0.000 A 
ATOM     15  C   UNL     1       0.667   2.697  19.747  0.00  0.00    +0.000 A 
ATOM     16  S   UNL     1       1.462   3.432  18.425  0.00  0.00    +0.000 S 
ENDBRANCH  11  12
BRANCH   9  17
ATOM     17  C   UNL     1       7.242   5.039  17.238  0.00  0.00    +0.000 C 
ATOM     18  F   UNL     1       7.317   4.378  16.054  0.00  0.00    +0.000 F 
ATOM     19  F   UNL     1       7.763   6.279  17.026  0.00  0.00    +0.000 F 
ATOM     20  F   UNL     1       8.089   4.408  18.095  0.00  0.00    +0.000 F 
ENDBRANCH   9  17
ENDBRANCH   4   7
BRANCH   1  22
ATOM     21  N   UNL     1       0.008  10.983  18.384  0.00  0.00    +0.000 N 
ATOM     22  C   UNL     1       0.293  10.174  19.464  0.00  0.00    +0.000 C 
ATOM     23  O   UNL     1      -0.207  10.311  20.574  0.00  0.00    +0.000 OA
ATOM     24  H   UNL     1       0.365  10.748  17.466  0.00  0.00    +0.000 HD
BRANCH  21  25
ATOM     25  C   UNL     1      -0.907  12.101  18.500  0.00  0.00    +0.000 C 
BRANCH  25  26
ATOM     26  C   UNL     1      -2.109  11.937  17.573  0.00  0.00    +0.000 C 
BRANCH  26  27
ATOM     27  C   UNL     1      -2.986  10.764  17.997  0.00  0.00    +0.000 C 
BRANCH  27  29
ATOM     28  C   UNL     1      -2.792   9.776  15.861  0.00  0.00    +0.000 C 
ATOM     29  O   UNL     1      -2.606   9.609  17.256  0.00  0.00    +0.000 OA
ENDBRANCH  27  29
ENDBRANCH  26  27
ENDBRANCH  25  26
ENDBRANCH  21  25
ENDBRANCH   1  22
TORSDOF 8
ENDMDL
MODEL 3
REMARK VINA RESULT:      -7.9      0.923      1.106
REMARK  Name = 
REMARK  9 active torsions:
REMARK  status: ('A' for Active; 'I' for Inactive)
REMARK    1  A    between atoms: C_1  and  O_2
REMARK    2  A    between atoms: O_2  and  C_3
REMARK    3  A    between atoms: C_3  and  C_4
REMARK    4  A    between atoms: C_4  and  C_5
REMARK    5  A    between atoms: C_5  and  N_6
REMARK    6  A    between atoms: C_7  and  C_9
REMARK    7  A    between atoms: C_12  and  N_13
REMARK    8  A    between atoms: C_15  and  C_16
REMARK    9  A    between atoms: C_21  and  C_22
REMARK                            x       y       z     vdW  Elec       q    Type
REMARK                         _______ _______ _______ _____ _____    ______ ____
ROOT
ATOM      1  C   UNL     1       1.344   9.167  19.112  0.00  0.00    +0.000 A 
ATOM      2  C   UNL     1       2.013   9.135  17.883  0.00  0.00    +0.000 A 
ATOM      3  C   UNL     1       2.882   8.082  17.587  0.00  0.00    +0.000 A 
ATOM      4  C   UNL     1       3.061   7.038  18.509  0.00  0.00    +0.000 A 
ATOM      5  C   UNL     1       2.424   7.091  19.755  0.00  0.00    +0.000 A 
ATOM      6  C   UNL     1       1.569   8.156  20.054  0.00  0.00    +0.000 A 
ENDROOT
BRANCH   4   7
ATOM      7  N   UNL     1       3.910   5.950  18.169  0.00  0.00    +0.000 N 
ATOM      8  N   UNL     1       4.993   6.181  17.376  0.00  0.00    +0.000 NA
ATOM      9  C   UNL     1       5.739   5.066  17.469  0.00  0.00    +0.000 A 
ATOM     10  C   UNL     1       5.043   4.059  18.180  0.00  0.00    +0.000 A 
ATOM     11  C   UNL     1       3.830   4.612  18.544  0.00  0.00    +0.000 A 
BRANCH  11  12
ATOM     12  C   UNL     1       2.680   3.951  19.114  0.00  0.00    +0.000 A 
ATOM     13  C   UNL     1       1.531   3.536  18.465  0.00  0.00    +0.000 A 
ATOM     14  C   UNL     1       0.576   2.952  19.347  0.00  0.00    +0.000 A 
ATOM     15  C   UNL     1       1.053   2.872  20.634  0.00  0.00    +0.000 A 
ATOM     16  S   UNL     1       2.625   3.526  20.777  0.00  0.00    +0.000 S 
ENDBRANCH  11  12
BRANCH   9  17
ATOM     17  C   UNL     1       7.105   4.928  16.849  0.00  0.00    +0.000 C 
ATOM     18  F   UNL     1       8.009   4.303  17.647  0.00  0.00    +0.000 F 
ATOM     19  F   UNL     1       7.052   4.219  15.688  0.00  0.00    +0.000 F 
ATOM     20  F   UNL     1       7.633   6.142  16.533  0.00  0.00    +0.000 F 
ENDBRANCH   9  17
ENDBRANCH   4   7
BRANCH   1  22
ATOM     21  N   UNL     1      -0.259  10.869  18.441  0.00  0.00    +0.000 N 
ATOM     22  C   UNL     1       0.424  10.274  19.480  0.00  0.00    +0.000 C 
ATOM     23  O   UNL     1       0.283  10.578  20.658  0.00  0.00    +0.000 OA
ATOM     24  H   UNL     1      -0.183  10.495  17.503  0.00  0.00    +0.000 HD
BRANCH  21  25
ATOM     25  C   UNL     1      -1.198  11.949  18.677  0.00  0.00    +0.000 C 
BRANCH  25  26
ATOM     26  C   UNL     1      -2.502  11.731  17.913  0.00  0.00    +0.000 C 
BRANCH  26  27
ATOM     27  C   UNL     1      -2.347  10.664  16.835  0.00  0.00    +0.000 C 
BRANCH  27  29
ATOM     28  C   UNL     1      -2.974  10.132  14.622  0.00  0.00    +0.000 C 
ATOM     29  O   UNL     1      -3.171  11.001  15.725  0.00  0.00    +0.000 OA
ENDBRANCH  27  29
ENDBRANCH  26  27
ENDBRANCH  25  26
ENDBRANCH  21  25
ENDBRANCH   1  22
TORSDOF 8
ENDMDL
MODEL 4
REMARK VINA RESULT:      -7.9      0.617      1.333
REMARK  Name = 
REMARK  9 active torsions:
REMARK  status: ('A' for Active; 'I' for Inactive)
REMARK    1  A    between atoms: C_1  and  O_2
REMARK    2  A    between atoms: O_2  and  C_3
REMARK    3  A    between atoms: C_3  and  C_4
REMARK    4  A    between atoms: C_4  and  C_5
REMARK    5  A    between atoms: C_5  and  N_6
REMARK    6  A    between atoms: C_7  and  C_9
REMARK    7  A    between atoms: C_12  and  N_13
REMARK    8  A    between atoms: C_15  and  C_16
REMARK    9  A    between atoms: C_21  and  C_22
REMARK                            x       y       z     vdW  Elec       q    Type
REMARK                         _______ _______ _______ _____ _____    ______ ____
ROOT
ATOM      1  C   UNL     1       1.074   9.270  19.122  0.00  0.00    +0.000 A 
ATOM      2  C   UNL     1       1.376   8.369  20.149  0.00  0.00    +0.000 A 
ATOM      3  C   UNL     1       2.291   7.337  19.925  0.00  0.00    +0.000 A 
ATOM      4  C   UNL     1       2.932   7.222  18.681  0.00  0.00    +0.000 A 
ATOM      5  C   UNL     1       2.599   8.098  17.641  0.00  0.00    +0.000 A 
ATOM      6  C   UNL     1       1.669   9.119  17.864  0.00  0.00    +0.000 A 
ENDROOT
BRANCH   4   7
ATOM      7  N   UNL     1       3.897   6.196  18.490  0.00  0.00    +0.000 N 
ATOM      8  N   UNL     1       5.036   6.480  17.802  0.00  0.00    +0.000 NA
ATOM      9  C   UNL     1       5.854   5.438  18.032  0.00  0.00    +0.000 A 
ATOM     10  C   UNL     1       5.166   4.409  18.721  0.00  0.00    +0.000 A 
ATOM     11  C   UNL     1       3.882   4.874  18.927  0.00  0.00    +0.000 A 
BRANCH  11  12
ATOM     12  C   UNL     1       2.734   4.146  19.410  0.00  0.00    +0.000 A 
ATOM     13  C   UNL     1       2.389   3.878  20.724  0.00  0.00    +0.000 A 
ATOM     14  C   UNL     1       1.205   3.094  20.838  0.00  0.00    +0.000 A 
ATOM     15  C   UNL     1       0.638   2.845  19.610  0.00  0.00    +0.000 A 
ATOM     16  S   UNL     1       1.548   3.525  18.334  0.00  0.00    +0.000 S 
ENDBRANCH  11  12
BRANCH   9  17
ATOM     17  C   UNL     1       7.285   5.387  17.565  0.00  0.00    +0.000 C 
ATOM     18  F   UNL     1       7.667   6.475  16.848  0.00  0.00    +0.000 F 
ATOM     19  F   UNL     1       8.146   5.290  18.616  0.00  0.00    +0.000 F 
ATOM     20  F   UNL     1       7.514   4.299  16.781  0.00  0.00    +0.000 F 
ENDBRANCH   9  17
ENDBRANCH   4   7
BRANCH   1  22
ATOM     21  N   UNL     1      -1.006  10.354  18.475  0.00  0.00    +0.000 N 
ATOM     22  C   UNL     1       0.095  10.373  19.304  0.00  0.00    +0.000 C 
ATOM     23  O   UNL     1       0.278  11.207  20.183  0.00  0.00    +0.000 OA
ATOM     24  H   UNL     1      -1.155   9.574  17.847  0.00  0.00    +0.000 HD
BRANCH  21  25
ATOM     25  C   UNL     1      -2.039  11.367  18.570  0.00  0.00    +0.000 C 
BRANCH  25  26
ATOM     26  C   UNL     1      -3.184  11.091  17.598  0.00  0.00    +0.000 C 
BRANCH  26  27
ATOM     27  C   UNL     1      -2.676  10.924  16.170  0.00  0.00    +0.000 C 
BRANCH  27  29
ATOM     28  C   UNL     1      -3.282  10.036  14.068  0.00  0.00    +0.000 C 
ATOM     29  O   UNL     1      -3.730  10.419  15.358  0.00  0.00    +0.000 OA
ENDBRANCH  27  29
ENDBRANCH  26  27
ENDBRANCH  25  26
ENDBRANCH  21  25
ENDBRANCH   1  22
TORSDOF 8
ENDMDL
MODEL 5
REMARK VINA RESULT:      -7.8      0.681      1.042
REMARK  Name = 
REMARK  9 active torsions:
REMARK  status: ('A' for Active; 'I' for Inactive)
REMARK    1  A    between atoms: C_1  and  O_2
REMARK    2  A    between atoms: O_2  and  C_3
REMARK    3  A    between atoms: C_3  and  C_4
REMARK    4  A    between atoms: C_4  and  C_5
REMARK    5  A    between atoms: C_5  and  N_6
REMARK    6  A    between atoms: C_7  and  C_9
REMARK    7  A    between atoms: C_12  and  N_13
REMARK    8  A    between atoms: C_15  and  C_16
REMARK    9  A    between atoms: C_21  and  C_22
REMARK                            x       y       z     vdW  Elec       q    Type
REMARK                         _______ _______ _______ _____ _____    ______ ____
ROOT
ATOM      1  C   UNL     1       1.173   9.094  19.358  0.00  0.00    +0.000 A 
ATOM      2  C   UNL     1       1.785   9.043  18.101  0.00  0.00    +0.000 A 
ATOM      3  C   UNL     1       2.712   8.036  17.816  0.00  0.00    +0.000 A 
ATOM      4  C   UNL     1       3.004   7.056  18.778  0.00  0.00    +0.000 A 
ATOM      5  C   UNL     1       2.423   7.131  20.050  0.00  0.00    +0.000 A 
ATOM      6  C   UNL     1       1.510   8.151  20.337  0.00  0.00    +0.000 A 
ENDROOT
BRANCH   4   7
ATOM      7  N   UNL     1       3.911   6.011  18.451  0.00  0.00    +0.000 N 
ATOM      8  N   UNL     1       4.998   6.297  17.684  0.00  0.00    +0.000 NA
ATOM      9  C   UNL     1       5.794   5.218  17.787  0.00  0.00    +0.000 A 
ATOM     10  C   UNL     1       5.129   4.175  18.477  0.00  0.00    +0.000 A 
ATOM     11  C   UNL     1       3.884   4.668  18.816  0.00  0.00    +0.000 A 
BRANCH  11  12
ATOM     12  C   UNL     1       2.754   3.951  19.356  0.00  0.00    +0.000 A 
ATOM     13  C   UNL     1       2.512   3.620  20.679  0.00  0.00    +0.000 A 
ATOM     14  C   UNL     1       1.313   2.869  20.851  0.00  0.00    +0.000 A 
ATOM     15  C   UNL     1       0.636   2.710  19.666  0.00  0.00    +0.000 A 
ATOM     16  S   UNL     1       1.459   3.432  18.354  0.00  0.00    +0.000 S 
ENDBRANCH  11  12
BRANCH   9  17
ATOM     17  C   UNL     1       7.178   5.147  17.198  0.00  0.00    +0.000 C 
ATOM     18  F   UNL     1       7.729   6.363  16.944  0.00  0.00    +0.000 F 
ATOM     19  F   UNL     1       8.037   4.494  18.028  0.00  0.00    +0.000 F 
ATOM     20  F   UNL     1       7.184   4.461  16.023  0.00  0.00    +0.000 F 
ENDBRANCH   9  17
ENDBRANCH   4   7
BRANCH   1  22
ATOM     21  N   UNL     1      -0.808  10.391  18.801  0.00  0.00    +0.000 N 
ATOM     22  C   UNL     1       0.196  10.155  19.716  0.00  0.00    +0.000 C 
ATOM     23  O   UNL     1       0.294  10.731  20.792  0.00  0.00    +0.000 OA
ATOM     24  H   UNL     1      -0.899   9.802  17.984  0.00  0.00    +0.000 HD
BRANCH  21  25
ATOM     25  C   UNL     1      -1.831  11.390  19.046  0.00  0.00    +0.000 C 
BRANCH  25  26
ATOM     26  C   UNL     1      -3.007  11.232  18.086  0.00  0.00    +0.000 C 
BRANCH  26  27
ATOM     27  C   UNL     1      -2.564  11.367  16.633  0.00  0.00    +0.000 C 
BRANCH  27  29
ATOM     28  C   UNL     1      -3.026  10.055  14.725  0.00  0.00    +0.000 C 
ATOM     29  O   UNL     1      -2.505  10.072  16.044  0.00  0.00    +0.000 OA
ENDBRANCH  27  29
ENDBRANCH  26  27
ENDBRANCH  25  26
ENDBRANCH  21  25
ENDBRANCH   1  22
TORSDOF 8
ENDMDL
MODEL 6
REMARK VINA RESULT:      -7.8      2.172      3.068
REMARK  Name = 
REMARK  9 active torsions:
REMARK  status: ('A' for Active; 'I' for Inactive)
REMARK    1  A    between atoms: C_1  and  O_2
REMARK    2  A    between atoms: O_2  and  C_3
REMARK    3  A    between atoms: C_3  and  C_4
REMARK    4  A    between atoms: C_4  and  C_5
REMARK    5  A    between atoms: C_5  and  N_6
REMARK    6  A    between atoms: C_7  and  C_9
REMARK    7  A    between atoms: C_12  and  N_13
REMARK    8  A    between atoms: C_15  and  C_16
REMARK    9  A    between atoms: C_21  and  C_22
REMARK                            x       y       z     vdW  Elec       q    Type
REMARK                         _______ _______ _______ _____ _____    ______ ____
ROOT
ATOM      1  C   UNL     1       1.120   9.143  19.379  0.00  0.00    +0.000 A 
ATOM      2  C   UNL     1       1.620   9.191  18.073  0.00  0.00    +0.000 A 
ATOM      3  C   UNL     1       2.515   8.213  17.631  0.00  0.00    +0.000 A 
ATOM      4  C   UNL     1       2.887   7.163  18.485  0.00  0.00    +0.000 A 
ATOM      5  C   UNL     1       2.420   7.138  19.805  0.00  0.00    +0.000 A 
ATOM      6  C   UNL     1       1.538   8.129  20.249  0.00  0.00    +0.000 A 
ENDROOT
BRANCH   4   7
ATOM      7  N   UNL     1       3.759   6.150  18.000  0.00  0.00    +0.000 N 
ATOM      8  N   UNL     1       4.786   6.501  17.179  0.00  0.00    +0.000 NA
ATOM      9  C   UNL     1       5.579   5.416  17.128  0.00  0.00    +0.000 A 
ATOM     10  C   UNL     1       4.963   4.318  17.774  0.00  0.00    +0.000 A 
ATOM     11  C   UNL     1       3.751   4.781  18.250  0.00  0.00    +0.000 A 
BRANCH  11  12
ATOM     12  C   UNL     1       2.661   4.020  18.812  0.00  0.00    +0.000 A 
ATOM     13  C   UNL     1       1.482   3.641  18.194  0.00  0.00    +0.000 A 
ATOM     14  C   UNL     1       0.605   2.928  19.062  0.00  0.00    +0.000 A 
ATOM     15  C   UNL     1       1.171   2.719  20.299  0.00  0.00    +0.000 A 
ATOM     16  S   UNL     1       2.730   3.407  20.415  0.00  0.00    +0.000 S 
ENDBRANCH  11  12
BRANCH   9  17
ATOM     17  C   UNL     1       6.914   5.397  16.428  0.00  0.00    +0.000 C 
ATOM     18  F   UNL     1       6.823   5.303  15.076  0.00  0.00    +0.000 F 
ATOM     19  F   UNL     1       7.629   6.524  16.695  0.00  0.00    +0.000 F 
ATOM     20  F   UNL     1       7.678   4.351  16.844  0.00  0.00    +0.000 F 
ENDBRANCH   9  17
ENDBRANCH   4   7
BRANCH   1  22
ATOM     21  N   UNL     1       0.585  10.845  21.033  0.00  0.00    +0.000 N 
ATOM     22  C   UNL     1       0.181  10.169  19.901  0.00  0.00    +0.000 C 
ATOM     23  O   UNL     1      -0.864  10.395  19.303  0.00  0.00    +0.000 OA
ATOM     24  H   UNL     1       1.511  10.691  21.413  0.00  0.00    +0.000 HD
BRANCH  21  25
ATOM     25  C   UNL     1      -0.237  11.881  21.626  0.00  0.00    +0.000 C 
BRANCH  25  26
ATOM     26  C   UNL     1      -1.199  11.305  22.663  0.00  0.00    +0.000 C 
BRANCH  26  27
ATOM     27  C   UNL     1      -2.043  12.398  23.310  0.00  0.00    +0.000 C 
BRANCH  27  29
ATOM     28  C   UNL     1      -4.113  12.709  22.216  0.00  0.00    +0.000 C 
ATOM     29  O   UNL     1      -3.416  12.025  23.245  0.00  0.00    +0.000 OA
ENDBRANCH  27  29
ENDBRANCH  26  27
ENDBRANCH  25  26
ENDBRANCH  21  25
ENDBRANCH   1  22
TORSDOF 8
ENDMDL
MODEL 7
REMARK VINA RESULT:      -7.7      1.113      1.412
REMARK  Name = 
REMARK  9 active torsions:
REMARK  status: ('A' for Active; 'I' for Inactive)
REMARK    1  A    between atoms: C_1  and  O_2
REMARK    2  A    between atoms: O_2  and  C_3
REMARK    3  A    between atoms: C_3  and  C_4
REMARK    4  A    between atoms: C_4  and  C_5
REMARK    5  A    between atoms: C_5  and  N_6
REMARK    6  A    between atoms: C_7  and  C_9
REMARK    7  A    between atoms: C_12  and  N_13
REMARK    8  A    between atoms: C_15  and  C_16
REMARK    9  A    between atoms: C_21  and  C_22
REMARK                            x       y       z     vdW  Elec       q    Type
REMARK                         _______ _______ _______ _____ _____    ______ ____
ROOT
ATOM      1  C   UNL     1       1.095   9.147  18.721  0.00  0.00    +0.000 A 
ATOM      2  C   UNL     1       1.889   8.966  17.583  0.00  0.00    +0.000 A 
ATOM      3  C   UNL     1       2.883   7.983  17.574  0.00  0.00    +0.000 A 
ATOM      4  C   UNL     1       3.063   7.155  18.693  0.00  0.00    +0.000 A 
ATOM      5  C   UNL     1       2.296   7.364  19.846  0.00  0.00    +0.000 A 
ATOM      6  C   UNL     1       1.315   8.360  19.857  0.00  0.00    +0.000 A 
ENDROOT
BRANCH   4   7
ATOM      7  N   UNL     1       4.045   6.128  18.645  0.00  0.00    +0.000 N 
ATOM      8  N   UNL     1       5.258   6.400  18.092  0.00  0.00    +0.000 NA
ATOM      9  C   UNL     1       6.044   5.368  18.445  0.00  0.00    +0.000 A 
ATOM     10  C   UNL     1       5.280   4.354  19.073  0.00  0.00    +0.000 A 
ATOM     11  C   UNL     1       3.980   4.818  19.111  0.00  0.00    +0.000 A 
BRANCH  11  12
ATOM     12  C   UNL     1       2.783   4.097  19.472  0.00  0.00    +0.000 A 
ATOM     13  C   UNL     1       1.818   3.577  18.627  0.00  0.00    +0.000 A 
ATOM     14  C   UNL     1       0.743   2.957  19.328  0.00  0.00    +0.000 A 
ATOM     15  C   UNL     1       0.953   2.957  20.687  0.00  0.00    +0.000 A 
ATOM     16  S   UNL     1       2.418   3.728  21.109  0.00  0.00    +0.000 S 
ENDBRANCH  11  12
BRANCH   9  17
ATOM     17  C   UNL     1       7.521   5.312  18.154  0.00  0.00    +0.000 C 
ATOM     18  F   UNL     1       7.898   4.221  17.439  0.00  0.00    +0.000 F 
ATOM     19  F   UNL     1       7.928   6.402  17.448  0.00  0.00    +0.000 F 
ATOM     20  F   UNL     1       8.254   5.303  19.301  0.00  0.00    +0.000 F 
ENDBRANCH   9  17
ENDBRANCH   4   7
BRANCH   1  22
ATOM     21  N   UNL     1      -0.863  10.210  17.743  0.00  0.00    +0.000 N 
ATOM     22  C   UNL     1       0.038  10.190  18.786  0.00  0.00    +0.000 C 
ATOM     23  O   UNL     1      -0.013  10.941  19.752  0.00  0.00    +0.000 OA
ATOM     24  H   UNL     1      -0.834   9.489  17.033  0.00  0.00    +0.000 HD
BRANCH  21  25
ATOM     25  C   UNL     1      -1.949  11.170  17.704  0.00  0.00    +0.000 C 
BRANCH  25  26
ATOM     26  C   UNL     1      -3.291  10.486  17.452  0.00  0.00    +0.000 C 
BRANCH  26  27
ATOM     27  C   UNL     1      -4.085  11.199  16.364  0.00  0.00    +0.000 C 
BRANCH  27  29
ATOM     28  C   UNL     1      -5.911  11.332  17.856  0.00  0.00    +0.000 C 
ATOM     29  O   UNL     1      -5.056  12.042  16.975  0.00  0.00    +0.000 OA
ENDBRANCH  27  29
ENDBRANCH  26  27
ENDBRANCH  25  26
ENDBRANCH  21  25
ENDBRANCH   1  22
TORSDOF 8
ENDMDL
MODEL 8
REMARK VINA RESULT:      -7.7      1.947      3.078
REMARK  Name = 
REMARK  9 active torsions:
REMARK  status: ('A' for Active; 'I' for Inactive)
REMARK    1  A    between atoms: C_1  and  O_2
REMARK    2  A    between atoms: O_2  and  C_3
REMARK    3  A    between atoms: C_3  and  C_4
REMARK    4  A    between atoms: C_4  and  C_5
REMARK    5  A    between atoms: C_5  and  N_6
REMARK    6  A    between atoms: C_7  and  C_9
REMARK    7  A    between atoms: C_12  and  N_13
REMARK    8  A    between atoms: C_15  and  C_16
REMARK    9  A    between atoms: C_21  and  C_22
REMARK                            x       y       z     vdW  Elec       q    Type
REMARK                         _______ _______ _______ _____ _____    ______ ____
ROOT
ATOM      1  C   UNL     1       1.351   9.310  18.962  0.00  0.00    +0.000 A 
ATOM      2  C   UNL     1       1.573   8.348  19.954  0.00  0.00    +0.000 A 
ATOM      3  C   UNL     1       2.404   7.255  19.693  0.00  0.00    +0.000 A 
ATOM      4  C   UNL     1       3.043   7.139  18.449  0.00  0.00    +0.000 A 
ATOM      5  C   UNL     1       2.788   8.079  17.442  0.00  0.00    +0.000 A 
ATOM      6  C   UNL     1       1.941   9.161  17.702  0.00  0.00    +0.000 A 
ENDROOT
BRANCH   4   7
ATOM      7  N   UNL     1       3.924   6.047  18.221  0.00  0.00    +0.000 N 
ATOM      8  N   UNL     1       5.048   6.248  17.480  0.00  0.00    +0.000 NA
ATOM      9  C   UNL     1       5.801   5.152  17.680  0.00  0.00    +0.000 A 
ATOM     10  C   UNL     1       5.075   4.176  18.406  0.00  0.00    +0.000 A 
ATOM     11  C   UNL     1       3.837   4.731  18.666  0.00  0.00    +0.000 A 
BRANCH  11  12
ATOM     12  C   UNL     1       2.664   4.086  19.206  0.00  0.00    +0.000 A 
ATOM     13  C   UNL     1       1.515   3.710  18.531  0.00  0.00    +0.000 A 
ATOM     14  C   UNL     1       0.534   3.132  19.387  0.00  0.00    +0.000 A 
ATOM     15  C   UNL     1       0.988   3.016  20.680  0.00  0.00    +0.000 A 
ATOM     16  S   UNL     1       2.572   3.631  20.860  0.00  0.00    +0.000 S 
ENDBRANCH  11  12
BRANCH   9  17
ATOM     17  C   UNL     1       7.202   5.000  17.149  0.00  0.00    +0.000 C 
ATOM     18  F   UNL     1       7.273   4.316  15.978  0.00  0.00    +0.000 F 
ATOM     19  F   UNL     1       7.783   6.211  16.930  0.00  0.00    +0.000 F 
ATOM     20  F   UNL     1       8.001   4.346  18.035  0.00  0.00    +0.000 F 
ENDBRANCH   9  17
ENDBRANCH   4   7
BRANCH   1  22
ATOM     21  N   UNL     1      -0.693  10.240  19.899  0.00  0.00    +0.000 N 
ATOM     22  C   UNL     1       0.462  10.480  19.184  0.00  0.00    +0.000 C 
ATOM     23  O   UNL     1       0.797  11.583  18.771  0.00  0.00    +0.000 OA
ATOM     24  H   UNL     1      -0.855   9.330  20.310  0.00  0.00    +0.000 HD
BRANCH  21  25
ATOM     25  C   UNL     1      -1.630  11.306  20.195  0.00  0.00    +0.000 C 
BRANCH  25  26
ATOM     26  C   UNL     1      -1.175  12.133  21.395  0.00  0.00    +0.000 C 
BRANCH  26  27
ATOM     27  C   UNL     1      -1.284  11.340  22.693  0.00  0.00    +0.000 C 
BRANCH  27  29
ATOM     28  C   UNL     1      -0.032   9.428  23.285  0.00  0.00    +0.000 C 
ATOM     29  O   UNL     1      -0.001  10.822  23.029  0.00  0.00    +0.000 OA
ENDBRANCH  27  29
ENDBRANCH  26  27
ENDBRANCH  25  26
ENDBRANCH  21  25
ENDBRANCH   1  22
TORSDOF 8
ENDMDL
MODEL 9
REMARK VINA RESULT:      -7.7      1.115      1.747
REMARK  Name = 
REMARK  9 active torsions:
REMARK  status: ('A' for Active; 'I' for Inactive)
REMARK    1  A    between atoms: C_1  and  O_2
REMARK    2  A    between atoms: O_2  and  C_3
REMARK    3  A    between atoms: C_3  and  C_4
REMARK    4  A    between atoms: C_4  and  C_5
REMARK    5  A    between atoms: C_5  and  N_6
REMARK    6  A    between atoms: C_7  and  C_9
REMARK    7  A    between atoms: C_12  and  N_13
REMARK    8  A    between atoms: C_15  and  C_16
REMARK    9  A    between atoms: C_21  and  C_22
REMARK                            x       y       z     vdW  Elec       q    Type
REMARK                         _______ _______ _______ _____ _____    ______ ____
ROOT
ATOM      1  C   UNL     1       1.082   9.165  18.932  0.00  0.00    +0.000 A 
ATOM      2  C   UNL     1       1.351   8.335  20.026  0.00  0.00    +0.000 A 
ATOM      3  C   UNL     1       2.298   7.313  19.911  0.00  0.00    +0.000 A 
ATOM      4  C   UNL     1       3.003   7.141  18.710  0.00  0.00    +0.000 A 
ATOM      5  C   UNL     1       2.705   7.944  17.603  0.00  0.00    +0.000 A 
ATOM      6  C   UNL     1       1.744   8.954  17.717  0.00  0.00    +0.000 A 
ENDROOT
BRANCH   4   7
ATOM      7  N   UNL     1       3.998   6.128  18.630  0.00  0.00    +0.000 N 
ATOM      8  N   UNL     1       5.200   6.427  18.066  0.00  0.00    +0.000 NA
ATOM      9  C   UNL     1       6.004   5.398  18.390  0.00  0.00    +0.000 A 
ATOM     10  C   UNL     1       5.262   4.363  19.007  0.00  0.00    +0.000 A 
ATOM     11  C   UNL     1       3.956   4.808  19.071  0.00  0.00    +0.000 A 
BRANCH  11  12
ATOM     12  C   UNL     1       2.774   4.065  19.433  0.00  0.00    +0.000 A 
ATOM     13  C   UNL     1       1.828   3.510  18.589  0.00  0.00    +0.000 A 
ATOM     14  C   UNL     1       0.762   2.875  19.290  0.00  0.00    +0.000 A 
ATOM     15  C   UNL     1       0.961   2.900  20.651  0.00  0.00    +0.000 A 
ATOM     16  S   UNL     1       2.404   3.712  21.073  0.00  0.00    +0.000 S 
ENDBRANCH  11  12
BRANCH   9  17
ATOM     17  C   UNL     1       7.478   5.368  18.079  0.00  0.00    +0.000 C 
ATOM     18  F   UNL     1       7.891   4.213  17.495  0.00  0.00    +0.000 F 
ATOM     19  F   UNL     1       7.827   6.379  17.237  0.00  0.00    +0.000 F 
ATOM     20  F   UNL     1       8.227   5.529  19.203  0.00  0.00    +0.000 F 
ENDBRANCH   9  17
ENDBRANCH   4   7
BRANCH   1  22
ATOM     21  N   UNL     1      -0.705  10.433  17.874  0.00  0.00    +0.000 N 
ATOM     22  C   UNL     1       0.072  10.253  18.998  0.00  0.00    +0.000 C 
ATOM     23  O   UNL     1      -0.055  10.901  20.030  0.00  0.00    +0.000 OA
ATOM     24  H   UNL     1      -0.628   9.790  17.096  0.00  0.00    +0.000 HD
BRANCH  21  25
ATOM     25  C   UNL     1      -1.736  11.451  17.825  0.00  0.00    +0.000 C 
BRANCH  25  26
ATOM     26  C   UNL     1      -2.716  11.198  16.680  0.00  0.00    +0.000 C 
BRANCH  26  27
ATOM     27  C   UNL     1      -4.138  11.006  17.195  0.00  0.00    +0.000 C 
BRANCH  27  29
ATOM     28  C   UNL     1      -5.526  12.310  18.592  0.00  0.00    +0.000 C 
ATOM     29  O   UNL     1      -4.270  11.666  18.451  0.00  0.00    +0.000 OA
ENDBRANCH  27  29
ENDBRANCH  26  27
ENDBRANCH  25  26
ENDBRANCH  21  25
ENDBRANCH   1  22
TORSDOF 8
ENDMDL
