MODEL 1
REMARK VINA RESULT:      -6.7      0.000      0.000
REMARK  Name = 
REMARK  7 active torsions:
REMARK  status: ('A' for Active; 'I' for Inactive)
REMARK    1  A    between atoms: C_1  and  N_2
REMARK    2  A    between atoms: C_5  and  C_6
REMARK    3  A    between atoms: C_5  and  C_7
REMARK    4  A    between atoms: N_9  and  C_10
REMARK    5  A    between atoms: C_10  and  C_11
REMARK    6  A    between atoms: C_11  and  C_12
REMARK    7  A    between atoms: C_12  and  C_13
REMARK                            x       y       z     vdW  Elec       q    Type
REMARK                         _______ _______ _______ _____ _____    ______ ____
ROOT
ATOM      1  C   UNL     1       4.843   4.531  19.226  0.00  0.00    +0.000 C 
ATOM      2  O   UNL     1       5.321   3.406  19.412  0.00  0.00    +0.000 OA
ATOM      3  N   UNL     1       5.621   5.657  19.330  0.00  0.00    +0.000 N 
ATOM      4  H   UNL     1       5.220   6.573  19.191  0.00  0.00    +0.000 HD
ENDROOT
BRANCH   1   9
ATOM      5  C   UNL     1       0.634   2.232  18.750  0.00  0.00    +0.000 C 
ATOM      6  N   UNL     1       2.026   2.111  19.176  0.00  0.00    +0.000 NA
ATOM      7  C   UNL     1       2.960   2.350  18.070  0.00  0.00    +0.000 C 
ATOM      8  C   UNL     1       3.032   3.824  17.642  0.00  0.00    +0.000 C 
ATOM      9  C   UNL     1       3.370   4.751  18.832  0.00  0.00    +0.000 C 
ATOM     10  C   UNL     1       3.209   6.218  18.395  0.00  0.00    +0.000 C 
ATOM     11  C   UNL     1       2.410   4.452  20.000  0.00  0.00    +0.000 C 
ATOM     12  C   UNL     1       2.344   2.957  20.330  0.00  0.00    +0.000 C 
ENDBRANCH   1   9
BRANCH   3  13
ATOM     13  C   UNL     1       7.038   5.546  19.615  0.00  0.00    +0.000 C 
BRANCH  13  14
ATOM     14  C   UNL     1       7.878   5.893  18.384  0.00  0.00    +0.000 C 
BRANCH  14  15
ATOM     15  C   UNL     1       7.062   6.663  17.340  0.00  0.00    +0.000 C 
BRANCH  15  16
ATOM     16  C   UNL     1       6.808   5.862  16.059  0.00  0.00    +0.000 C 
ATOM     17  C   UNL     1       7.029   4.367  16.203  0.00  0.00    +0.000 C 
ATOM     18  C   UNL     1       6.212   3.792  15.062  0.00  0.00    +0.000 C 
ATOM     19  O   UNL     1       5.170   4.728  14.765  0.00  0.00    +0.000 OA
ATOM     20  C   UNL     1       5.383   5.922  15.529  0.00  0.00    +0.000 C 
ENDBRANCH  15  16
ENDBRANCH  14  15
ENDBRANCH  13  14
ENDBRANCH   3  13
TORSDOF 5
ENDMDL
MODEL 2
REMARK VINA RESULT:      -6.6      1.856      5.234
REMARK  Name = 
REMARK  7 active torsions:
REMARK  status: ('A' for Active; 'I' for Inactive)
REMARK    1  A    between atoms: C_1  and  N_2
REMARK    2  A    between atoms: C_5  and  C_6
REMARK    3  A    between atoms: C_5  and  C_7
REMARK    4  A    between atoms: N_9  and  C_10
REMARK    5  A    between atoms: C_10  and  C_11
REMARK    6  A    between atoms: C_11  and  C_12
REMARK    7  A    between atoms: C_12  and  C_13
REMARK                            x       y       z     vdW  Elec       q    Type
REMARK                         _______ _______ _______ _____ _____    ______ ____
ROOT
ATOM      1  C   UNL     1       3.906   5.636  18.377  0.00  0.00    +0.000 C 
ATOM      2  O   UNL     1       3.001   5.500  17.546  0.00  0.00    +0.000 OA
ATOM      3  N   UNL     1       3.625   5.916  19.691  0.00  0.00    +0.000 N 
ATOM      4  H   UNL     1       4.370   6.040  20.360  0.00  0.00    +0.000 HD
ENDROOT
BRANCH   1   9
ATOM      5  C   UNL     1       6.872   4.891  14.653  0.00  0.00    +0.000 C 
ATOM      6  N   UNL     1       5.489   5.129  15.055  0.00  0.00    +0.000 NA
ATOM      7  C   UNL     1       4.982   4.062  15.926  0.00  0.00    +0.000 C 
ATOM      8  C   UNL     1       5.585   4.090  17.338  0.00  0.00    +0.000 C 
ATOM      9  C   UNL     1       5.394   5.465  18.017  0.00  0.00    +0.000 C 
ATOM     10  C   UNL     1       6.207   5.504  19.324  0.00  0.00    +0.000 C 
ATOM     11  C   UNL     1       5.889   6.575  17.069  0.00  0.00    +0.000 C 
ATOM     12  C   UNL     1       5.292   6.448  15.664  0.00  0.00    +0.000 C 
ENDBRANCH   1   9
BRANCH   3  13
ATOM     13  C   UNL     1       2.250   6.012  20.142  0.00  0.00    +0.000 C 
BRANCH  13  14
ATOM     14  C   UNL     1       1.867   4.810  21.007  0.00  0.00    +0.000 C 
BRANCH  14  15
ATOM     15  C   UNL     1       1.117   3.745  20.197  0.00  0.00    +0.000 C 
BRANCH  15  16
ATOM     16  C   UNL     1       1.975   2.518  19.872  0.00  0.00    +0.000 C 
ATOM     17  C   UNL     1       2.240   2.316  18.391  0.00  0.00    +0.000 C 
ATOM     18  C   UNL     1       3.488   1.454  18.385  0.00  0.00    +0.000 C 
ATOM     19  O   UNL     1       4.191   1.708  19.606  0.00  0.00    +0.000 OA
ATOM     20  C   UNL     1       3.383   2.542  20.446  0.00  0.00    +0.000 C 
ENDBRANCH  15  16
ENDBRANCH  14  15
ENDBRANCH  13  14
ENDBRANCH   3  13
TORSDOF 5
ENDMDL
MODEL 3
REMARK VINA RESULT:      -6.5      1.768      5.993
REMARK  Name = 
REMARK  7 active torsions:
REMARK  status: ('A' for Active; 'I' for Inactive)
REMARK    1  A    between atoms: C_1  and  N_2
REMARK    2  A    between atoms: C_5  and  C_6
REMARK    3  A    between atoms: C_5  and  C_7
REMARK    4  A    between atoms: N_9  and  C_10
REMARK    5  A    between atoms: C_10  and  C_11
REMARK    6  A    between atoms: C_11  and  C_12
REMARK    7  A    between atoms: C_12  and  C_13
REMARK                            x       y       z     vdW  Elec       q    Type
REMARK                         _______ _______ _______ _____ _____    ______ ____
ROOT
ATOM      1  C   UNL     1       4.820   3.862  17.176  0.00  0.00    +0.000 C 
ATOM      2  O   UNL     1       4.995   3.411  18.314  0.00  0.00    +0.000 OA
ATOM      3  N   UNL     1       3.599   3.765  16.557  0.00  0.00    +0.000 N 
ATOM      4  H   UNL     1       3.468   4.122  15.622  0.00  0.00    +0.000 HD
ENDROOT
BRANCH   1   9
ATOM      5  C   UNL     1       7.695   7.726  17.335  0.00  0.00    +0.000 C 
ATOM      6  N   UNL     1       6.691   6.947  18.055  0.00  0.00    +0.000 NA
ATOM      7  C   UNL     1       5.412   6.905  17.337  0.00  0.00    +0.000 C 
ATOM      8  C   UNL     1       5.450   6.026  16.078  0.00  0.00    +0.000 C 
ATOM      9  C   UNL     1       5.928   4.591  16.394  0.00  0.00    +0.000 C 
ATOM     10  C   UNL     1       6.160   3.830  15.075  0.00  0.00    +0.000 C 
ATOM     11  C   UNL     1       7.248   4.657  17.188  0.00  0.00    +0.000 C 
ATOM     12  C   UNL     1       7.153   5.598  18.394  0.00  0.00    +0.000 C 
ENDBRANCH   1   9
BRANCH   3  13
ATOM     13  C   UNL     1       2.472   3.169  17.247  0.00  0.00    +0.000 C 
BRANCH  13  14
ATOM     14  C   UNL     1       1.482   4.238  17.712  0.00  0.00    +0.000 C 
BRANCH  14  15
ATOM     15  C   UNL     1       2.001   4.996  18.940  0.00  0.00    +0.000 C 
BRANCH  15  16
ATOM     16  C   UNL     1       1.518   4.401  20.266  0.00  0.00    +0.000 C 
ATOM     17  C   UNL     1       1.144   2.931  20.192  0.00  0.00    +0.000 C 
ATOM     18  C   UNL     1       1.257   2.481  21.636  0.00  0.00    +0.000 C 
ATOM     19  O   UNL     1       2.193   3.348  22.285  0.00  0.00    +0.000 OA
ATOM     20  C   UNL     1       2.543   4.411  21.391  0.00  0.00    +0.000 C 
ENDBRANCH  15  16
ENDBRANCH  14  15
ENDBRANCH  13  14
ENDBRANCH   3  13
TORSDOF 5
ENDMDL
MODEL 4
REMARK VINA RESULT:      -6.4      1.964      5.015
REMARK  Name = 
REMARK  7 active torsions:
REMARK  status: ('A' for Active; 'I' for Inactive)
REMARK    1  A    between atoms: C_1  and  N_2
REMARK    2  A    between atoms: C_5  and  C_6
REMARK    3  A    between atoms: C_5  and  C_7
REMARK    4  A    between atoms: N_9  and  C_10
REMARK    5  A    between atoms: C_10  and  C_11
REMARK    6  A    between atoms: C_11  and  C_12
REMARK    7  A    between atoms: C_12  and  C_13
REMARK                            x       y       z     vdW  Elec       q    Type
REMARK                         _______ _______ _______ _____ _____    ______ ____
ROOT
ATOM      1  C   UNL     1       5.817   5.481  18.868  0.00  0.00    +0.000 C 
ATOM      2  O   UNL     1       6.123   4.712  19.786  0.00  0.00    +0.000 OA
ATOM      3  N   UNL     1       4.560   6.026  18.791  0.00  0.00    +0.000 N 
ATOM      4  H   UNL     1       4.313   6.642  18.030  0.00  0.00    +0.000 HD
ENDROOT
BRANCH   1   9
ATOM      5  C   UNL     1       6.821   4.965  14.183  0.00  0.00    +0.000 C 
ATOM      6  N   UNL     1       5.872   4.652  15.248  0.00  0.00    +0.000 NA
ATOM      7  C   UNL     1       6.490   3.852  16.312  0.00  0.00    +0.000 C 
ATOM      8  C   UNL     1       7.474   4.649  17.180  0.00  0.00    +0.000 C 
ATOM      9  C   UNL     1       6.818   5.913  17.780  0.00  0.00    +0.000 C 
ATOM     10  C   UNL     1       7.901   6.781  18.447  0.00  0.00    +0.000 C 
ATOM     11  C   UNL     1       6.136   6.716  16.655  0.00  0.00    +0.000 C 
ATOM     12  C   UNL     1       5.215   5.843  15.794  0.00  0.00    +0.000 C 
ENDBRANCH   1   9
BRANCH   3  13
ATOM     13  C   UNL     1       3.574   5.744  19.816  0.00  0.00    +0.000 C 
BRANCH  13  14
ATOM     14  C   UNL     1       2.158   5.762  19.240  0.00  0.00    +0.000 C 
BRANCH  14  15
ATOM     15  C   UNL     1       2.112   5.161  17.830  0.00  0.00    +0.000 C 
BRANCH  15  16
ATOM     16  C   UNL     1       1.985   3.634  17.827  0.00  0.00    +0.000 C 
ATOM     17  C   UNL     1       3.311   2.897  17.781  0.00  0.00    +0.000 C 
ATOM     18  C   UNL     1       2.959   1.531  18.336  0.00  0.00    +0.000 C 
ATOM     19  O   UNL     1       1.818   1.693  19.185  0.00  0.00    +0.000 OA
ATOM     20  C   UNL     1       1.333   3.037  19.065  0.00  0.00    +0.000 C 
ENDBRANCH  15  16
ENDBRANCH  14  15
ENDBRANCH  13  14
ENDBRANCH   3  13
TORSDOF 5
ENDMDL
MODEL 5
REMARK VINA RESULT:      -6.4      1.472      1.990
REMARK  Name = 
REMARK  7 active torsions:
REMARK  status: ('A' for Active; 'I' for Inactive)
REMARK    1  A    between atoms: C_1  and  N_2
REMARK    2  A    between atoms: C_5  and  C_6
REMARK    3  A    between atoms: C_5  and  C_7
REMARK    4  A    between atoms: N_9  and  C_10
REMARK    5  A    between atoms: C_10  and  C_11
REMARK    6  A    between atoms: C_11  and  C_12
REMARK    7  A    between atoms: C_12  and  C_13
REMARK                            x       y       z     vdW  Elec       q    Type
REMARK                         _______ _______ _______ _____ _____    ______ ____
ROOT
ATOM      1  C   UNL     1       4.821   5.050  18.786  0.00  0.00    +0.000 C 
ATOM      2  O   UNL     1       5.545   4.421  19.567  0.00  0.00    +0.000 OA
ATOM      3  N   UNL     1       5.351   5.709  17.705  0.00  0.00    +0.000 N 
ATOM      4  H   UNL     1       4.755   6.232  17.080  0.00  0.00    +0.000 HD
ENDROOT
BRANCH   1   9
ATOM      5  C   UNL     1       0.877   2.281  18.819  0.00  0.00    +0.000 C 
ATOM      6  N   UNL     1       2.336   2.290  18.751  0.00  0.00    +0.000 NA
ATOM      7  C   UNL     1       2.823   3.010  17.568  0.00  0.00    +0.000 C 
ATOM      8  C   UNL     1       2.640   4.532  17.663  0.00  0.00    +0.000 C 
ATOM      9  C   UNL     1       3.290   5.110  18.940  0.00  0.00    +0.000 C 
ATOM     10  C   UNL     1       2.884   6.587  19.094  0.00  0.00    +0.000 C 
ATOM     11  C   UNL     1       2.802   4.312  20.166  0.00  0.00    +0.000 C 
ATOM     12  C   UNL     1       2.961   2.799  19.975  0.00  0.00    +0.000 C 
ENDBRANCH   1   9
BRANCH   3  13
ATOM     13  C   UNL     1       6.773   5.641  17.429  0.00  0.00    +0.000 C 
BRANCH  13  14
ATOM     14  C   UNL     1       7.108   4.435  16.550  0.00  0.00    +0.000 C 
BRANCH  14  15
ATOM     15  C   UNL     1       5.942   4.068  15.623  0.00  0.00    +0.000 C 
BRANCH  15  16
ATOM     16  C   UNL     1       6.137   4.555  14.184  0.00  0.00    +0.000 C 
ATOM     17  C   UNL     1       7.497   5.172  13.912  0.00  0.00    +0.000 C 
ATOM     18  C   UNL     1       7.632   5.043  12.407  0.00  0.00    +0.000 C 
ATOM     19  O   UNL     1       6.822   3.936  11.996  0.00  0.00    +0.000 OA
ATOM     20  C   UNL     1       6.060   3.472  13.118  0.00  0.00    +0.000 C 
ENDBRANCH  15  16
ENDBRANCH  14  15
ENDBRANCH  13  14
ENDBRANCH   3  13
TORSDOF 5
ENDMDL
MODEL 6
REMARK VINA RESULT:      -6.4      1.581      2.171
REMARK  Name = 
REMARK  7 active torsions:
REMARK  status: ('A' for Active; 'I' for Inactive)
REMARK    1  A    between atoms: C_1  and  N_2
REMARK    2  A    between atoms: C_5  and  C_6
REMARK    3  A    between atoms: C_5  and  C_7
REMARK    4  A    between atoms: N_9  and  C_10
REMARK    5  A    between atoms: C_10  and  C_11
REMARK    6  A    between atoms: C_11  and  C_12
REMARK    7  A    between atoms: C_12  and  C_13
REMARK                            x       y       z     vdW  Elec       q    Type
REMARK                         _______ _______ _______ _____ _____    ______ ____
ROOT
ATOM      1  C   UNL     1       4.286   5.358  18.789  0.00  0.00    +0.000 C 
ATOM      2  O   UNL     1       5.219   4.679  19.232  0.00  0.00    +0.000 OA
ATOM      3  N   UNL     1       4.502   6.320  17.834  0.00  0.00    +0.000 N 
ATOM      4  H   UNL     1       3.737   6.880  17.488  0.00  0.00    +0.000 HD
ENDROOT
BRANCH   1   9
ATOM      5  C   UNL     1       0.702   2.137  18.768  0.00  0.00    +0.000 C 
ATOM      6  N   UNL     1       2.104   2.374  18.434  0.00  0.00    +0.000 NA
ATOM      7  C   UNL     1       2.255   3.439  17.436  0.00  0.00    +0.000 C 
ATOM      8  C   UNL     1       1.966   4.841  17.992  0.00  0.00    +0.000 C 
ATOM      9  C   UNL     1       2.826   5.154  19.237  0.00  0.00    +0.000 C 
ATOM     10  C   UNL     1       2.337   6.466  19.877  0.00  0.00    +0.000 C 
ATOM     11  C   UNL     1       2.691   4.003  20.253  0.00  0.00    +0.000 C 
ATOM     12  C   UNL     1       2.935   2.631  19.614  0.00  0.00    +0.000 C 
ENDBRANCH   1   9
BRANCH   3  13
ATOM     13  C   UNL     1       5.830   6.528  17.289  0.00  0.00    +0.000 C 
BRANCH  13  14
ATOM     14  C   UNL     1       5.891   6.126  15.815  0.00  0.00    +0.000 C 
BRANCH  14  15
ATOM     15  C   UNL     1       5.682   4.619  15.629  0.00  0.00    +0.000 C 
BRANCH  15  16
ATOM     16  C   UNL     1       6.426   4.050  14.417  0.00  0.00    +0.000 C 
ATOM     17  C   UNL     1       5.521   3.544  13.308  0.00  0.00    +0.000 C 
ATOM     18  C   UNL     1       6.426   3.577  12.092  0.00  0.00    +0.000 C 
ATOM     19  O   UNL     1       7.428   4.572  12.328  0.00  0.00    +0.000 OA
ATOM     20  C   UNL     1       7.311   5.042  13.677  0.00  0.00    +0.000 C 
ENDBRANCH  15  16
ENDBRANCH  14  15
ENDBRANCH  13  14
ENDBRANCH   3  13
TORSDOF 5
ENDMDL
MODEL 7
REMARK VINA RESULT:      -6.4      4.378      5.662
REMARK  Name = 
REMARK  7 active torsions:
REMARK  status: ('A' for Active; 'I' for Inactive)
REMARK    1  A    between atoms: C_1  and  N_2
REMARK    2  A    between atoms: C_5  and  C_6
REMARK    3  A    between atoms: C_5  and  C_7
REMARK    4  A    between atoms: N_9  and  C_10
REMARK    5  A    between atoms: C_10  and  C_11
REMARK    6  A    between atoms: C_11  and  C_12
REMARK    7  A    between atoms: C_12  and  C_13
REMARK                            x       y       z     vdW  Elec       q    Type
REMARK                         _______ _______ _______ _____ _____    ______ ____
ROOT
ATOM      1  C   UNL     1       6.704   6.125  17.410  0.00  0.00    +0.000 C 
ATOM      2  O   UNL     1       7.424   5.393  18.099  0.00  0.00    +0.000 OA
ATOM      3  N   UNL     1       6.975   7.464  17.278  0.00  0.00    +0.000 N 
ATOM      4  H   UNL     1       6.375   8.058  16.726  0.00  0.00    +0.000 HD
ENDROOT
BRANCH   1   9
ATOM      5  C   UNL     1       2.089   4.838  17.933  0.00  0.00    +0.000 C 
ATOM      6  N   UNL     1       3.259   5.405  18.598  0.00  0.00    +0.000 NA
ATOM      7  C   UNL     1       4.383   4.461  18.628  0.00  0.00    +0.000 C 
ATOM      8  C   UNL     1       5.041   4.255  17.255  0.00  0.00    +0.000 C 
ATOM      9  C   UNL     1       5.489   5.593  16.626  0.00  0.00    +0.000 C 
ATOM     10  C   UNL     1       5.931   5.349  15.172  0.00  0.00    +0.000 C 
ATOM     11  C   UNL     1       4.310   6.586  16.647  0.00  0.00    +0.000 C 
ATOM     12  C   UNL     1       3.666   6.695  18.033  0.00  0.00    +0.000 C 
ENDBRANCH   1   9
BRANCH   3  13
ATOM     13  C   UNL     1       8.146   8.041  17.911  0.00  0.00    +0.000 C 
BRANCH  13  14
ATOM     14  C   UNL     1       8.067   9.568  17.930  0.00  0.00    +0.000 C 
BRANCH  14  15
ATOM     15  C   UNL     1       9.153  10.181  18.822  0.00  0.00    +0.000 C 
BRANCH  15  16
ATOM     16  C   UNL     1      10.055  11.173  18.080  0.00  0.00    +0.000 C 
ATOM     17  C   UNL     1       9.383  12.489  17.732  0.00  0.00    +0.000 C 
ATOM     18  C   UNL     1      10.558  13.430  17.549  0.00  0.00    +0.000 C 
ATOM     19  O   UNL     1      11.644  12.920  18.331  0.00  0.00    +0.000 OA
ATOM     20  C   UNL     1      11.280  11.637  18.855  0.00  0.00    +0.000 C 
ENDBRANCH  15  16
ENDBRANCH  14  15
ENDBRANCH  13  14
ENDBRANCH   3  13
TORSDOF 5
ENDMDL
MODEL 8
REMARK VINA RESULT:      -6.3      1.780      3.117
REMARK  Name = 
REMARK  7 active torsions:
REMARK  status: ('A' for Active; 'I' for Inactive)
REMARK    1  A    between atoms: C_1  and  N_2
REMARK    2  A    between atoms: C_5  and  C_6
REMARK    3  A    between atoms: C_5  and  C_7
REMARK    4  A    between atoms: N_9  and  C_10
REMARK    5  A    between atoms: C_10  and  C_11
REMARK    6  A    between atoms: C_11  and  C_12
REMARK    7  A    between atoms: C_12  and  C_13
REMARK                            x       y       z     vdW  Elec       q    Type
REMARK                         _______ _______ _______ _____ _____    ______ ____
ROOT
ATOM      1  C   UNL     1       3.092   3.845  17.336  0.00  0.00    +0.000 C 
ATOM      2  O   UNL     1       2.405   3.179  16.553  0.00  0.00    +0.000 OA
ATOM      3  N   UNL     1       4.420   4.083  17.085  0.00  0.00    +0.000 N 
ATOM      4  H   UNL     1       4.978   4.615  17.736  0.00  0.00    +0.000 HD
ENDROOT
BRANCH   1   9
ATOM      5  C   UNL     1       1.509   2.774  21.760  0.00  0.00    +0.000 C 
ATOM      6  N   UNL     1       2.125   2.246  20.546  0.00  0.00    +0.000 NA
ATOM      7  C   UNL     1       1.251   2.400  19.377  0.00  0.00    +0.000 C 
ATOM      8  C   UNL     1       1.129   3.854  18.896  0.00  0.00    +0.000 C 
ATOM      9  C   UNL     1       2.511   4.483  18.612  0.00  0.00    +0.000 C 
ATOM     10  C   UNL     1       2.340   5.992  18.354  0.00  0.00    +0.000 C 
ATOM     11  C   UNL     1       3.429   4.270  19.832  0.00  0.00    +0.000 C 
ATOM     12  C   UNL     1       3.455   2.808  20.291  0.00  0.00    +0.000 C 
ENDBRANCH   1   9
BRANCH   3  13
ATOM     13  C   UNL     1       5.036   3.593  15.867  0.00  0.00    +0.000 C 
BRANCH  13  14
ATOM     14  C   UNL     1       6.160   4.522  15.405  0.00  0.00    +0.000 C 
BRANCH  14  15
ATOM     15  C   UNL     1       6.062   5.903  16.065  0.00  0.00    +0.000 C 
BRANCH  15  16
ATOM     16  C   UNL     1       7.292   6.260  16.905  0.00  0.00    +0.000 C 
ATOM     17  C   UNL     1       7.345   7.711  17.349  0.00  0.00    +0.000 C 
ATOM     18  C   UNL     1       8.269   7.663  18.551  0.00  0.00    +0.000 C 
ATOM     19  O   UNL     1       8.189   6.344  19.102  0.00  0.00    +0.000 OA
ATOM     20  C   UNL     1       7.409   5.519  18.228  0.00  0.00    +0.000 C 
ENDBRANCH  15  16
ENDBRANCH  14  15
ENDBRANCH  13  14
ENDBRANCH   3  13
TORSDOF 5
ENDMDL
MODEL 9
REMARK VINA RESULT:      -6.3      1.744      5.829
REMARK  Name = 
REMARK  7 active torsions:
REMARK  status: ('A' for Active; 'I' for Inactive)
REMARK    1  A    between atoms: C_1  and  N_2
REMARK    2  A    between atoms: C_5  and  C_6
REMARK    3  A    between atoms: C_5  and  C_7
REMARK    4  A    between atoms: N_9  and  C_10
REMARK    5  A    between atoms: C_10  and  C_11
REMARK    6  A    between atoms: C_11  and  C_12
REMARK    7  A    between atoms: C_12  and  C_13
REMARK                            x       y       z     vdW  Elec       q    Type
REMARK                         _______ _______ _______ _____ _____    ______ ____
ROOT
ATOM      1  C   UNL     1       4.798   4.329  16.314  0.00  0.00    +0.000 C 
ATOM      2  O   UNL     1       5.181   3.631  15.368  0.00  0.00    +0.000 OA
ATOM      3  N   UNL     1       3.716   3.960  17.074  0.00  0.00    +0.000 N 
ATOM      4  H   UNL     1       3.400   4.542  17.835  0.00  0.00    +0.000 HD
ENDROOT
BRANCH   1   9
ATOM      5  C   UNL     1       8.012   6.071  19.454  0.00  0.00    +0.000 C 
ATOM      6  N   UNL     1       7.347   4.868  18.961  0.00  0.00    +0.000 NA
ATOM      7  C   UNL     1       5.893   4.927  19.157  0.00  0.00    +0.000 C 
ATOM      8  C   UNL     1       5.192   5.917  18.214  0.00  0.00    +0.000 C 
ATOM      9  C   UNL     1       5.516   5.626  16.732  0.00  0.00    +0.000 C 
ATOM     10  C   UNL     1       4.975   6.773  15.859  0.00  0.00    +0.000 C 
ATOM     11  C   UNL     1       7.044   5.521  16.555  0.00  0.00    +0.000 C 
ATOM     12  C   UNL     1       7.682   4.563  17.567  0.00  0.00    +0.000 C 
ENDBRANCH   1   9
BRANCH   3  13
ATOM     13  C   UNL     1       3.026   2.712  16.809  0.00  0.00    +0.000 C 
BRANCH  13  14
ATOM     14  C   UNL     1       1.916   2.468  17.833  0.00  0.00    +0.000 C 
BRANCH  14  15
ATOM     15  C   UNL     1       1.280   3.781  18.305  0.00  0.00    +0.000 C 
BRANCH  15  16
ATOM     16  C   UNL     1       1.219   3.910  19.830  0.00  0.00    +0.000 C 
ATOM     17  C   UNL     1       1.380   2.597  20.575  0.00  0.00    +0.000 C 
ATOM     18  C   UNL     1       1.835   3.042  21.951  0.00  0.00    +0.000 C 
ATOM     19  O   UNL     1       2.483   4.310  21.801  0.00  0.00    +0.000 OA
ATOM     20  C   UNL     1       2.315   4.763  20.451  0.00  0.00    +0.000 C 
ENDBRANCH  15  16
ENDBRANCH  14  15
ENDBRANCH  13  14
ENDBRANCH   3  13
TORSDOF 5
ENDMDL
