MODEL 1
REMARK VINA RESULT:      -7.4      0.000      0.000
REMARK  Name = 
REMARK  21 active torsions:
REMARK  status: ('A' for Active; 'I' for Inactive)
REMARK    1  A    between atoms: C_1  and  O_2
REMARK    2  A    between atoms: O_2  and  C_3
REMARK    3  A    between atoms: C_3  and  C_5
REMARK    4  A    between atoms: C_5  and  C_6
REMARK    5  A    between atoms: C_5  and  N_13
REMARK    6  A    between atoms: C_6  and  C_7
REMARK    7  A    between atoms: C_14  and  C_16
REMARK    8  A    between atoms: C_16  and  N_17
REMARK    9  A    between atoms: C_16  and  C_30
REMARK   10  A    between atoms: C_18  and  C_20
REMARK   11  A    between atoms: C_20  and  C_21
REMARK   12  A    between atoms: C_21  and  O_22
REMARK   13  A    between atoms: C_21  and  C_23
REMARK   14  A    between atoms: C_23  and  C_24
REMARK   15  A    between atoms: C_24  and  N_25
REMARK   16  A    between atoms: C_24  and  C_26
REMARK   17  A    between atoms: C_26  and  C_27
REMARK   18  A    between atoms: C_27  and  C_28
REMARK   19  A    between atoms: C_27  and  C_29
REMARK   20  A    between atoms: C_30  and  C_31
REMARK   21  A    between atoms: C_30  and  C_32
REMARK                            x       y       z     vdW  Elec       q    Type
REMARK                         _______ _______ _______ _____ _____    ______ ____
ROOT
ATOM      1  C   UNL     1       3.180   4.932  19.803  0.00  0.00    +0.000 C 
ENDROOT
BRANCH   1   3
ATOM      2  N   UNL     1       2.175   7.242  19.640  0.00  0.00    +0.000 N 
ATOM      3  C   UNL     1       2.055   5.926  20.010  0.00  0.00    +0.000 C 
ATOM      4  O   UNL     1       1.047   5.540  20.584  0.00  0.00    +0.000 OA
ATOM      5  H   UNL     1       3.026   7.560  19.165  0.00  0.00    +0.000 HD
BRANCH   2   6
ATOM      6  C   UNL     1       1.134   8.230  19.913  0.00  0.00    +0.000 C 
BRANCH   6   7
ATOM      7  C   UNL     1       1.080   8.604  21.384  0.00  0.00    +0.000 C 
ATOM      8  O   UNL     1       2.113   8.779  22.016  0.00  0.00    +0.000 OA
BRANCH   7  10
ATOM      9  C   UNL     1      -0.311   9.585  23.086  0.00  0.00    +0.000 C 
ATOM     10  O   UNL     1      -0.127   8.776  21.983  0.00  0.00    +0.000 OA
ENDBRANCH   7  10
ENDBRANCH   6   7
BRANCH   6  11
ATOM     11  C   UNL     1       1.324   9.492  19.020  0.00  0.00    +0.000 C 
BRANCH  11  12
ATOM     12  C   UNL     1       0.102  10.398  18.933  0.00  0.00    +0.000 A 
ATOM     13  C   UNL     1      -1.056   9.964  18.259  0.00  0.00    +0.000 A 
ATOM     14  C   UNL     1      -2.180  10.797  18.169  0.00  0.00    +0.000 A 
ATOM     15  C   UNL     1      -2.159  12.068  18.747  0.00  0.00    +0.000 A 
ATOM     16  C   UNL     1      -1.025  12.503  19.430  0.00  0.00    +0.000 A 
ATOM     17  C   UNL     1       0.093  11.675  19.531  0.00  0.00    +0.000 A 
ENDBRANCH  11  12
ENDBRANCH   6  11
ENDBRANCH   2   6
ENDBRANCH   1   3
BRANCH   1  18
ATOM     18  N   UNL     1       4.333   5.610  19.242  0.00  0.00    +0.000 N 
ATOM     19  C   UNL     1       5.558   5.047  19.039  0.00  0.00    +0.000 C 
ATOM     20  O   UNL     1       5.775   3.896  19.389  0.00  0.00    +0.000 OA
ATOM     21  H   UNL     1       4.175   6.579  18.971  0.00  0.00    +0.000 HD
BRANCH  19  22
ATOM     22  C   UNL     1       6.675   5.817  18.357  0.00  0.00    +0.000 C 
BRANCH  22  23
ATOM     23  C   UNL     1       7.161   5.190  17.018  0.00  0.00    +0.000 C 
BRANCH  23  24
ATOM     24  O   UNL     1       8.046   4.122  17.263  0.00  0.00    +0.000 OA
ATOM     25  H   UNL     1       7.644   3.301  16.879  0.00  0.00    +0.000 HD
ENDBRANCH  23  24
BRANCH  23  26
ATOM     26  C   UNL     1       6.040   4.695  16.098  0.00  0.00    +0.000 C 
BRANCH  26  27
ATOM     27  C   UNL     1       6.307   4.878  14.583  0.00  0.00    +0.000 C 
BRANCH  27  28
ATOM     28  N   UNL     1       7.661   5.386  14.331  0.00  0.00    +0.000 NA
ATOM     29  H   UNL     1       7.972   5.143  13.361  0.00  0.00    +0.000 HD
ATOM     30  H   UNL     1       8.338   4.992  15.024  0.00  0.00    +0.000 HD
ENDBRANCH  27  28
BRANCH  27  31
ATOM     31  C   UNL     1       6.130   3.544  13.828  0.00  0.00    +0.000 C 
BRANCH  31  32
ATOM     32  C   UNL     1       6.069   3.665  12.283  0.00  0.00    +0.000 C 
ATOM     33  C   UNL     1       7.071   2.730  11.584  0.00  0.00    +0.000 C 
ATOM     34  C   UNL     1       4.649   3.358  11.804  0.00  0.00    +0.000 C 
ENDBRANCH  31  32
ENDBRANCH  27  31
ENDBRANCH  26  27
ENDBRANCH  23  26
ENDBRANCH  22  23
ENDBRANCH  19  22
ENDBRANCH   1  18
BRANCH   1  35
ATOM     35  C   UNL     1       2.772   3.730  18.904  0.00  0.00    +0.000 C 
ATOM     36  C   UNL     1       1.962   2.643  19.640  0.00  0.00    +0.000 C 
ATOM     37  C   UNL     1       1.972   4.224  17.686  0.00  0.00    +0.000 C 
ENDBRANCH   1  35
TORSDOF 16
ENDMDL
MODEL 2
REMARK VINA RESULT:      -7.1      2.362      8.963
REMARK  Name = 
REMARK  21 active torsions:
REMARK  status: ('A' for Active; 'I' for Inactive)
REMARK    1  A    between atoms: C_1  and  O_2
REMARK    2  A    between atoms: O_2  and  C_3
REMARK    3  A    between atoms: C_3  and  C_5
REMARK    4  A    between atoms: C_5  and  C_6
REMARK    5  A    between atoms: C_5  and  N_13
REMARK    6  A    between atoms: C_6  and  C_7
REMARK    7  A    between atoms: C_14  and  C_16
REMARK    8  A    between atoms: C_16  and  N_17
REMARK    9  A    between atoms: C_16  and  C_30
REMARK   10  A    between atoms: C_18  and  C_20
REMARK   11  A    between atoms: C_20  and  C_21
REMARK   12  A    between atoms: C_21  and  O_22
REMARK   13  A    between atoms: C_21  and  C_23
REMARK   14  A    between atoms: C_23  and  C_24
REMARK   15  A    between atoms: C_24  and  N_25
REMARK   16  A    between atoms: C_24  and  C_26
REMARK   17  A    between atoms: C_26  and  C_27
REMARK   18  A    between atoms: C_27  and  C_28
REMARK   19  A    between atoms: C_27  and  C_29
REMARK   20  A    between atoms: C_30  and  C_31
REMARK   21  A    between atoms: C_30  and  C_32
REMARK                            x       y       z     vdW  Elec       q    Type
REMARK                         _______ _______ _______ _____ _____    ______ ____
ROOT
ATOM      1  C   UNL     1       2.400   7.502  19.423  0.00  0.00    +0.000 C 
ENDROOT
BRANCH   1   3
ATOM      2  N   UNL     1       2.299   5.113  18.613  0.00  0.00    +0.000 N 
ATOM      3  C   UNL     1       2.838   6.051  19.456  0.00  0.00    +0.000 C 
ATOM      4  O   UNL     1       3.645   5.715  20.311  0.00  0.00    +0.000 OA
ATOM      5  H   UNL     1       1.617   5.401  17.903  0.00  0.00    +0.000 HD
BRANCH   2   6
ATOM      6  C   UNL     1       2.646   3.696  18.693  0.00  0.00    +0.000 C 
BRANCH   6   7
ATOM      7  C   UNL     1       1.446   2.840  19.055  0.00  0.00    +0.000 C 
ATOM      8  O   UNL     1       0.513   2.718  18.273  0.00  0.00    +0.000 OA
BRANCH   7  10
ATOM      9  C   UNL     1       1.372   2.824  21.461  0.00  0.00    +0.000 C 
ATOM     10  O   UNL     1       1.432   2.180  20.242  0.00  0.00    +0.000 OA
ENDBRANCH   7  10
ENDBRANCH   6   7
BRANCH   6  11
ATOM     11  C   UNL     1       3.300   3.213  17.365  0.00  0.00    +0.000 C 
BRANCH  11  12
ATOM     12  C   UNL     1       4.606   3.911  17.008  0.00  0.00    +0.000 A 
ATOM     13  C   UNL     1       4.843   4.343  15.688  0.00  0.00    +0.000 A 
ATOM     14  C   UNL     1       6.046   4.978  15.353  0.00  0.00    +0.000 A 
ATOM     15  C   UNL     1       7.024   5.187  16.328  0.00  0.00    +0.000 A 
ATOM     16  C   UNL     1       6.796   4.779  17.641  0.00  0.00    +0.000 A 
ATOM     17  C   UNL     1       5.596   4.155  17.982  0.00  0.00    +0.000 A 
ENDBRANCH  11  12
ENDBRANCH   6  11
ENDBRANCH   2   6
ENDBRANCH   1   3
BRANCH   1  18
ATOM     18  N   UNL     1       1.138   7.647  20.121  0.00  0.00    +0.000 N 
ATOM     19  C   UNL     1       0.952   8.338  21.281  0.00  0.00    +0.000 C 
ATOM     20  O   UNL     1       1.901   8.854  21.853  0.00  0.00    +0.000 OA
ATOM     21  H   UNL     1       0.341   7.198  19.672  0.00  0.00    +0.000 HD
BRANCH  19  22
ATOM     22  C   UNL     1      -0.432   8.508  21.884  0.00  0.00    +0.000 C 
BRANCH  22  23
ATOM     23  C   UNL     1      -0.606   9.798  22.736  0.00  0.00    +0.000 C 
BRANCH  23  24
ATOM     24  O   UNL     1       0.243   9.769  23.859  0.00  0.00    +0.000 OA
ATOM     25  H   UNL     1       0.184  10.651  24.308  0.00  0.00    +0.000 HD
ENDBRANCH  23  24
BRANCH  23  26
ATOM     26  C   UNL     1      -0.364  11.107  21.976  0.00  0.00    +0.000 C 
BRANCH  26  27
ATOM     27  C   UNL     1      -1.602  12.032  21.854  0.00  0.00    +0.000 C 
BRANCH  27  28
ATOM     28  N   UNL     1      -1.317  13.383  22.353  0.00  0.00    +0.000 NA
ATOM     29  H   UNL     1      -1.275  14.067  21.562  0.00  0.00    +0.000 HD
ATOM     30  H   UNL     1      -0.413  13.399  22.878  0.00  0.00    +0.000 HD
ENDBRANCH  27  28
BRANCH  27  31
ATOM     31  C   UNL     1      -2.070  12.133  20.388  0.00  0.00    +0.000 C 
BRANCH  31  32
ATOM     32  C   UNL     1      -1.056  11.613  19.336  0.00  0.00    +0.000 C 
ATOM     33  C   UNL     1      -1.617  10.440  18.514  0.00  0.00    +0.000 C 
ATOM     34  C   UNL     1      -0.658  12.759  18.403  0.00  0.00    +0.000 C 
ENDBRANCH  31  32
ENDBRANCH  27  31
ENDBRANCH  26  27
ENDBRANCH  23  26
ENDBRANCH  22  23
ENDBRANCH  19  22
ENDBRANCH   1  18
BRANCH   1  35
ATOM     35  C   UNL     1       2.286   8.070  17.980  0.00  0.00    +0.000 C 
ATOM     36  C   UNL     1       1.957   9.577  17.923  0.00  0.00    +0.000 C 
ATOM     37  C   UNL     1       3.584   7.803  17.198  0.00  0.00    +0.000 C 
ENDBRANCH   1  35
TORSDOF 16
ENDMDL
MODEL 3
REMARK VINA RESULT:      -7.1      4.425      7.427
REMARK  Name = 
REMARK  21 active torsions:
REMARK  status: ('A' for Active; 'I' for Inactive)
REMARK    1  A    between atoms: C_1  and  O_2
REMARK    2  A    between atoms: O_2  and  C_3
REMARK    3  A    between atoms: C_3  and  C_5
REMARK    4  A    between atoms: C_5  and  C_6
REMARK    5  A    between atoms: C_5  and  N_13
REMARK    6  A    between atoms: C_6  and  C_7
REMARK    7  A    between atoms: C_14  and  C_16
REMARK    8  A    between atoms: C_16  and  N_17
REMARK    9  A    between atoms: C_16  and  C_30
REMARK   10  A    between atoms: C_18  and  C_20
REMARK   11  A    between atoms: C_20  and  C_21
REMARK   12  A    between atoms: C_21  and  O_22
REMARK   13  A    between atoms: C_21  and  C_23
REMARK   14  A    between atoms: C_23  and  C_24
REMARK   15  A    between atoms: C_24  and  N_25
REMARK   16  A    between atoms: C_24  and  C_26
REMARK   17  A    between atoms: C_26  and  C_27
REMARK   18  A    between atoms: C_27  and  C_28
REMARK   19  A    between atoms: C_27  and  C_29
REMARK   20  A    between atoms: C_30  and  C_31
REMARK   21  A    between atoms: C_30  and  C_32
REMARK                            x       y       z     vdW  Elec       q    Type
REMARK                         _______ _______ _______ _____ _____    ______ ____
ROOT
ATOM      1  C   UNL     1       6.497   5.916  17.289  0.00  0.00    +0.000 C 
ENDROOT
BRANCH   1   3
ATOM      2  N   UNL     1       4.116   6.655  17.685  0.00  0.00    +0.000 N 
ATOM      3  C   UNL     1       5.211   5.939  18.093  0.00  0.00    +0.000 C 
ATOM      4  O   UNL     1       5.195   5.350  19.164  0.00  0.00    +0.000 OA
ATOM      5  H   UNL     1       4.139   7.152  16.789  0.00  0.00    +0.000 HD
BRANCH   2   6
ATOM      6  C   UNL     1       2.902   6.758  18.492  0.00  0.00    +0.000 C 
BRANCH   6   7
ATOM      7  C   UNL     1       2.235   8.113  18.341  0.00  0.00    +0.000 C 
ATOM      8  O   UNL     1       2.459   8.808  17.360  0.00  0.00    +0.000 OA
BRANCH   7  10
ATOM      9  C   UNL     1       1.595   8.410  20.643  0.00  0.00    +0.000 C 
ATOM     10  O   UNL     1       1.357   8.533  19.290  0.00  0.00    +0.000 OA
ENDBRANCH   7  10
ENDBRANCH   6   7
BRANCH   6  11
ATOM     11  C   UNL     1       1.913   5.605  18.150  0.00  0.00    +0.000 C 
BRANCH  11  12
ATOM     12  C   UNL     1       1.785   4.536  19.229  0.00  0.00    +0.000 A 
ATOM     13  C   UNL     1       2.183   4.813  20.552  0.00  0.00    +0.000 A 
ATOM     14  C   UNL     1       2.075   3.832  21.546  0.00  0.00    +0.000 A 
ATOM     15  C   UNL     1       1.572   2.568  21.232  0.00  0.00    +0.000 A 
ATOM     16  C   UNL     1       1.160   2.286  19.931  0.00  0.00    +0.000 A 
ATOM     17  C   UNL     1       1.256   3.262  18.939  0.00  0.00    +0.000 A 
ENDBRANCH  11  12
ENDBRANCH   6  11
ENDBRANCH   2   6
ENDBRANCH   1   3
BRANCH   1  18
ATOM     18  N   UNL     1       6.920   7.274  17.009  0.00  0.00    +0.000 N 
ATOM     19  C   UNL     1       7.858   7.969  17.713  0.00  0.00    +0.000 C 
ATOM     20  O   UNL     1       8.380   7.477  18.703  0.00  0.00    +0.000 OA
ATOM     21  H   UNL     1       6.474   7.709  16.203  0.00  0.00    +0.000 HD
BRANCH  19  22
ATOM     22  C   UNL     1       8.300   9.357  17.280  0.00  0.00    +0.000 C 
BRANCH  22  23
ATOM     23  C   UNL     1       8.790  10.265  18.445  0.00  0.00    +0.000 C 
BRANCH  23  24
ATOM     24  O   UNL     1       9.308   9.487  19.497  0.00  0.00    +0.000 OA
ATOM     25  H   UNL     1       9.541   8.596  19.130  0.00  0.00    +0.000 HD
ENDBRANCH  23  24
BRANCH  23  26
ATOM     26  C   UNL     1       9.840  11.308  18.045  0.00  0.00    +0.000 C 
BRANCH  26  27
ATOM     27  C   UNL     1       9.386  12.783  18.185  0.00  0.00    +0.000 C 
BRANCH  27  28
ATOM     28  N   UNL     1       8.298  13.103  17.255  0.00  0.00    +0.000 NA
ATOM     29  H   UNL     1       8.573  12.874  16.271  0.00  0.00    +0.000 HD
ATOM     30  H   UNL     1       8.043  14.115  17.320  0.00  0.00    +0.000 HD
ENDBRANCH  27  28
BRANCH  27  31
ATOM     31  C   UNL     1       8.912  13.078  19.623  0.00  0.00    +0.000 C 
BRANCH  31  32
ATOM     32  C   UNL     1      10.034  13.481  20.616  0.00  0.00    +0.000 C 
ATOM     33  C   UNL     1       9.476  14.129  21.895  0.00  0.00    +0.000 C 
ATOM     34  C   UNL     1      10.862  12.246  20.977  0.00  0.00    +0.000 C 
ENDBRANCH  31  32
ENDBRANCH  27  31
ENDBRANCH  26  27
ENDBRANCH  23  26
ENDBRANCH  22  23
ENDBRANCH  19  22
ENDBRANCH   1  18
BRANCH   1  35
ATOM     35  C   UNL     1       6.373   5.108  15.967  0.00  0.00    +0.000 C 
ATOM     36  C   UNL     1       5.795   3.689  16.151  0.00  0.00    +0.000 C 
ATOM     37  C   UNL     1       5.513   5.879  14.950  0.00  0.00    +0.000 C 
ENDBRANCH   1  35
TORSDOF 16
ENDMDL
MODEL 4
REMARK VINA RESULT:      -7.0      2.389      8.888
REMARK  Name = 
REMARK  21 active torsions:
REMARK  status: ('A' for Active; 'I' for Inactive)
REMARK    1  A    between atoms: C_1  and  O_2
REMARK    2  A    between atoms: O_2  and  C_3
REMARK    3  A    between atoms: C_3  and  C_5
REMARK    4  A    between atoms: C_5  and  C_6
REMARK    5  A    between atoms: C_5  and  N_13
REMARK    6  A    between atoms: C_6  and  C_7
REMARK    7  A    between atoms: C_14  and  C_16
REMARK    8  A    between atoms: C_16  and  N_17
REMARK    9  A    between atoms: C_16  and  C_30
REMARK   10  A    between atoms: C_18  and  C_20
REMARK   11  A    between atoms: C_20  and  C_21
REMARK   12  A    between atoms: C_21  and  O_22
REMARK   13  A    between atoms: C_21  and  C_23
REMARK   14  A    between atoms: C_23  and  C_24
REMARK   15  A    between atoms: C_24  and  N_25
REMARK   16  A    between atoms: C_24  and  C_26
REMARK   17  A    between atoms: C_26  and  C_27
REMARK   18  A    between atoms: C_27  and  C_28
REMARK   19  A    between atoms: C_27  and  C_29
REMARK   20  A    between atoms: C_30  and  C_31
REMARK   21  A    between atoms: C_30  and  C_32
REMARK                            x       y       z     vdW  Elec       q    Type
REMARK                         _______ _______ _______ _____ _____    ______ ____
ROOT
ATOM      1  C   UNL     1       2.924   5.646  18.104  0.00  0.00    +0.000 C 
ENDROOT
BRANCH   1   3
ATOM      2  N   UNL     1       4.906   6.565  16.840  0.00  0.00    +0.000 N 
ATOM      3  C   UNL     1       4.402   5.691  17.768  0.00  0.00    +0.000 C 
ATOM      4  O   UNL     1       5.135   4.871  18.302  0.00  0.00    +0.000 OA
ATOM      5  H   UNL     1       4.283   7.245  16.392  0.00  0.00    +0.000 HD
BRANCH   2   6
ATOM      6  C   UNL     1       6.312   6.560  16.443  0.00  0.00    +0.000 C 
BRANCH   6   7
ATOM      7  C   UNL     1       7.195   7.233  17.479  0.00  0.00    +0.000 C 
ATOM      8  O   UNL     1       7.727   6.574  18.361  0.00  0.00    +0.000 OA
BRANCH   7  10
ATOM      9  C   UNL     1       8.376   9.222  18.146  0.00  0.00    +0.000 C 
ATOM     10  O   UNL     1       7.418   8.571  17.396  0.00  0.00    +0.000 OA
ENDBRANCH   7  10
ENDBRANCH   6   7
BRANCH   6  11
ATOM     11  C   UNL     1       6.798   5.110  16.149  0.00  0.00    +0.000 C 
BRANCH  11  12
ATOM     12  C   UNL     1       6.816   4.732  14.673  0.00  0.00    +0.000 A 
ATOM     13  C   UNL     1       5.920   3.765  14.177  0.00  0.00    +0.000 A 
ATOM     14  C   UNL     1       5.938   3.408  12.823  0.00  0.00    +0.000 A 
ATOM     15  C   UNL     1       6.849   4.009  11.951  0.00  0.00    +0.000 A 
ATOM     16  C   UNL     1       7.730   4.978  12.426  0.00  0.00    +0.000 A 
ATOM     17  C   UNL     1       7.710   5.345  13.772  0.00  0.00    +0.000 A 
ENDBRANCH  11  12
ENDBRANCH   6  11
ENDBRANCH   2   6
ENDBRANCH   1   3
BRANCH   1  18
ATOM     18  N   UNL     1       2.573   6.795  18.916  0.00  0.00    +0.000 N 
ATOM     19  C   UNL     1       2.279   8.037  18.439  0.00  0.00    +0.000 C 
ATOM     20  O   UNL     1       2.353   8.275  17.242  0.00  0.00    +0.000 OA
ATOM     21  H   UNL     1       2.534   6.620  19.919  0.00  0.00    +0.000 HD
BRANCH  19  22
ATOM     22  C   UNL     1       1.832   9.152  19.369  0.00  0.00    +0.000 C 
BRANCH  22  23
ATOM     23  C   UNL     1       1.063  10.306  18.662  0.00  0.00    +0.000 C 
BRANCH  23  24
ATOM     24  O   UNL     1       1.860  10.892  17.660  0.00  0.00    +0.000 OA
ATOM     25  H   UNL     1       2.575  11.414  18.106  0.00  0.00    +0.000 HD
ENDBRANCH  23  24
BRANCH  23  26
ATOM     26  C   UNL     1      -0.279   9.899  18.044  0.00  0.00    +0.000 C 
BRANCH  26  27
ATOM     27  C   UNL     1      -1.492  10.755  18.487  0.00  0.00    +0.000 C 
BRANCH  27  28
ATOM     28  N   UNL     1      -1.098  11.793  19.447  0.00  0.00    +0.000 NA
ATOM     29  H   UNL     1      -0.700  11.363  20.314  0.00  0.00    +0.000 HD
ATOM     30  H   UNL     1      -1.917  12.393  19.698  0.00  0.00    +0.000 HD
ENDBRANCH  27  28
BRANCH  27  31
ATOM     31  C   UNL     1      -2.160  11.431  17.273  0.00  0.00    +0.000 C 
BRANCH  31  32
ATOM     32  C   UNL     1      -3.340  10.641  16.647  0.00  0.00    +0.000 C 
ATOM     33  C   UNL     1      -4.704  11.276  16.970  0.00  0.00    +0.000 C 
ATOM     34  C   UNL     1      -3.151  10.559  15.131  0.00  0.00    +0.000 C 
ENDBRANCH  31  32
ENDBRANCH  27  31
ENDBRANCH  26  27
ENDBRANCH  23  26
ENDBRANCH  22  23
ENDBRANCH  19  22
ENDBRANCH   1  18
BRANCH   1  35
ATOM     35  C   UNL     1       2.503   4.332  18.821  0.00  0.00    +0.000 C 
ATOM     36  C   UNL     1       1.537   4.545  20.005  0.00  0.00    +0.000 C 
ATOM     37  C   UNL     1       1.866   3.357  17.814  0.00  0.00    +0.000 C 
ENDBRANCH   1  35
TORSDOF 16
ENDMDL
MODEL 5
REMARK VINA RESULT:      -6.9      2.221      8.633
REMARK  Name = 
REMARK  21 active torsions:
REMARK  status: ('A' for Active; 'I' for Inactive)
REMARK    1  A    between atoms: C_1  and  O_2
REMARK    2  A    between atoms: O_2  and  C_3
REMARK    3  A    between atoms: C_3  and  C_5
REMARK    4  A    between atoms: C_5  and  C_6
REMARK    5  A    between atoms: C_5  and  N_13
REMARK    6  A    between atoms: C_6  and  C_7
REMARK    7  A    between atoms: C_14  and  C_16
REMARK    8  A    between atoms: C_16  and  N_17
REMARK    9  A    between atoms: C_16  and  C_30
REMARK   10  A    between atoms: C_18  and  C_20
REMARK   11  A    between atoms: C_20  and  C_21
REMARK   12  A    between atoms: C_21  and  O_22
REMARK   13  A    between atoms: C_21  and  C_23
REMARK   14  A    between atoms: C_23  and  C_24
REMARK   15  A    between atoms: C_24  and  N_25
REMARK   16  A    between atoms: C_24  and  C_26
REMARK   17  A    between atoms: C_26  and  C_27
REMARK   18  A    between atoms: C_27  and  C_28
REMARK   19  A    between atoms: C_27  and  C_29
REMARK   20  A    between atoms: C_30  and  C_31
REMARK   21  A    between atoms: C_30  and  C_32
REMARK                            x       y       z     vdW  Elec       q    Type
REMARK                         _______ _______ _______ _____ _____    ______ ____
ROOT
ATOM      1  C   UNL     1       2.779   5.362  19.207  0.00  0.00    +0.000 C 
ENDROOT
BRANCH   1   3
ATOM      2  N   UNL     1       5.279   5.462  18.874  0.00  0.00    +0.000 N 
ATOM      3  C   UNL     1       4.018   5.426  18.336  0.00  0.00    +0.000 C 
ATOM      4  O   UNL     1       3.864   5.515  17.127  0.00  0.00    +0.000 OA
ATOM      5  H   UNL     1       5.400   5.394  19.890  0.00  0.00    +0.000 HD
BRANCH   2   6
ATOM      6  C   UNL     1       6.477   5.612  18.052  0.00  0.00    +0.000 C 
BRANCH   6   7
ATOM      7  C   UNL     1       7.666   6.091  18.866  0.00  0.00    +0.000 C 
ATOM      8  O   UNL     1       8.105   5.408  19.781  0.00  0.00    +0.000 OA
BRANCH   7  10
ATOM      9  C   UNL     1       7.772   8.122  17.578  0.00  0.00    +0.000 C 
ATOM     10  O   UNL     1       8.261   7.270  18.546  0.00  0.00    +0.000 OA
ENDBRANCH   7  10
ENDBRANCH   6   7
BRANCH   6  11
ATOM     11  C   UNL     1       6.806   4.284  17.307  0.00  0.00    +0.000 C 
BRANCH  11  12
ATOM     12  C   UNL     1       6.794   4.388  15.787  0.00  0.00    +0.000 A 
ATOM     13  C   UNL     1       5.885   3.622  15.031  0.00  0.00    +0.000 A 
ATOM     14  C   UNL     1       5.876   3.707  13.633  0.00  0.00    +0.000 A 
ATOM     15  C   UNL     1       6.771   4.554  12.975  0.00  0.00    +0.000 A 
ATOM     16  C   UNL     1       7.664   5.329  13.712  0.00  0.00    +0.000 A 
ATOM     17  C   UNL     1       7.672   5.255  15.105  0.00  0.00    +0.000 A 
ENDBRANCH  11  12
ENDBRANCH   6  11
ENDBRANCH   2   6
ENDBRANCH   1   3
BRANCH   1  18
ATOM     18  N   UNL     1       2.538   6.660  19.807  0.00  0.00    +0.000 N 
ATOM     19  C   UNL     1       2.039   7.750  19.157  0.00  0.00    +0.000 C 
ATOM     20  O   UNL     1       1.808   7.702  17.958  0.00  0.00    +0.000 OA
ATOM     21  H   UNL     1       2.751   6.724  20.801  0.00  0.00    +0.000 HD
BRANCH  19  22
ATOM     22  C   UNL     1       1.735   9.039  19.900  0.00  0.00    +0.000 C 
BRANCH  22  23
ATOM     23  C   UNL     1       0.930  10.082  19.071  0.00  0.00    +0.000 C 
BRANCH  23  24
ATOM     24  O   UNL     1       1.326  10.053  17.720  0.00  0.00    +0.000 OA
ATOM     25  H   UNL     1       0.560  10.365  17.173  0.00  0.00    +0.000 HD
ENDBRANCH  23  24
BRANCH  23  26
ATOM     26  C   UNL     1      -0.592   9.918  19.138  0.00  0.00    +0.000 C 
BRANCH  26  27
ATOM     27  C   UNL     1      -1.397  10.902  18.253  0.00  0.00    +0.000 C 
BRANCH  27  28
ATOM     28  N   UNL     1      -0.596  12.075  17.883  0.00  0.00    +0.000 NA
ATOM     29  H   UNL     1      -0.986  12.942  18.321  0.00  0.00    +0.000 HD
ATOM     30  H   UNL     1      -0.567  12.189  16.845  0.00  0.00    +0.000 HD
ENDBRANCH  27  28
BRANCH  27  31
ATOM     31  C   UNL     1      -1.884  10.209  16.964  0.00  0.00    +0.000 C 
BRANCH  31  32
ATOM     32  C   UNL     1      -2.944  11.001  16.152  0.00  0.00    +0.000 C 
ATOM     33  C   UNL     1      -3.314  10.297  14.834  0.00  0.00    +0.000 C 
ATOM     34  C   UNL     1      -4.197  11.198  17.007  0.00  0.00    +0.000 C 
ENDBRANCH  31  32
ENDBRANCH  27  31
ENDBRANCH  26  27
ENDBRANCH  23  26
ENDBRANCH  22  23
ENDBRANCH  19  22
ENDBRANCH   1  18
BRANCH   1  35
ATOM     35  C   UNL     1       2.865   4.268  20.308  0.00  0.00    +0.000 C 
ATOM     36  C   UNL     1       1.544   4.043  21.074  0.00  0.00    +0.000 C 
ATOM     37  C   UNL     1       3.332   2.935  19.698  0.00  0.00    +0.000 C 
ENDBRANCH   1  35
TORSDOF 16
ENDMDL
MODEL 6
REMARK VINA RESULT:      -6.9      2.930      9.641
REMARK  Name = 
REMARK  21 active torsions:
REMARK  status: ('A' for Active; 'I' for Inactive)
REMARK    1  A    between atoms: C_1  and  O_2
REMARK    2  A    between atoms: O_2  and  C_3
REMARK    3  A    between atoms: C_3  and  C_5
REMARK    4  A    between atoms: C_5  and  C_6
REMARK    5  A    between atoms: C_5  and  N_13
REMARK    6  A    between atoms: C_6  and  C_7
REMARK    7  A    between atoms: C_14  and  C_16
REMARK    8  A    between atoms: C_16  and  N_17
REMARK    9  A    between atoms: C_16  and  C_30
REMARK   10  A    between atoms: C_18  and  C_20
REMARK   11  A    between atoms: C_20  and  C_21
REMARK   12  A    between atoms: C_21  and  O_22
REMARK   13  A    between atoms: C_21  and  C_23
REMARK   14  A    between atoms: C_23  and  C_24
REMARK   15  A    between atoms: C_24  and  N_25
REMARK   16  A    between atoms: C_24  and  C_26
REMARK   17  A    between atoms: C_26  and  C_27
REMARK   18  A    between atoms: C_27  and  C_28
REMARK   19  A    between atoms: C_27  and  C_29
REMARK   20  A    between atoms: C_30  and  C_31
REMARK   21  A    between atoms: C_30  and  C_32
REMARK                            x       y       z     vdW  Elec       q    Type
REMARK                         _______ _______ _______ _____ _____    ______ ____
ROOT
ATOM      1  C   UNL     1       1.575   8.244  19.060  0.00  0.00    +0.000 C 
ENDROOT
BRANCH   1   3
ATOM      2  N   UNL     1       3.270   6.608  18.152  0.00  0.00    +0.000 N 
ATOM      3  C   UNL     1       2.560   7.772  18.008  0.00  0.00    +0.000 C 
ATOM      4  O   UNL     1       2.760   8.497  17.044  0.00  0.00    +0.000 OA
ATOM      5  H   UNL     1       3.101   6.008  18.966  0.00  0.00    +0.000 HD
BRANCH   2   6
ATOM      6  C   UNL     1       4.285   6.185  17.190  0.00  0.00    +0.000 C 
BRANCH   6   7
ATOM      7  C   UNL     1       5.682   6.584  17.630  0.00  0.00    +0.000 C 
ATOM      8  O   UNL     1       6.270   7.499  17.070  0.00  0.00    +0.000 OA
BRANCH   7  10
ATOM      9  C   UNL     1       7.546   5.440  18.635  0.00  0.00    +0.000 C 
ATOM     10  O   UNL     1       6.261   5.939  18.677  0.00  0.00    +0.000 OA
ENDBRANCH   7  10
ENDBRANCH   6   7
BRANCH   6  11
ATOM     11  C   UNL     1       4.196   4.652  16.932  0.00  0.00    +0.000 C 
BRANCH  11  12
ATOM     12  C   UNL     1       3.336   3.888  17.931  0.00  0.00    +0.000 A 
ATOM     13  C   UNL     1       1.964   3.689  17.681  0.00  0.00    +0.000 A 
ATOM     14  C   UNL     1       1.168   2.994  18.600  0.00  0.00    +0.000 A 
ATOM     15  C   UNL     1       1.729   2.494  19.777  0.00  0.00    +0.000 A 
ATOM     16  C   UNL     1       3.088   2.671  20.030  0.00  0.00    +0.000 A 
ATOM     17  C   UNL     1       3.888   3.353  19.113  0.00  0.00    +0.000 A 
ENDBRANCH  11  12
ENDBRANCH   6  11
ENDBRANCH   2   6
ENDBRANCH   1   3
BRANCH   1  18
ATOM     18  N   UNL     1       1.516   9.693  19.056  0.00  0.00    +0.000 N 
ATOM     19  C   UNL     1       0.507  10.440  18.526  0.00  0.00    +0.000 C 
ATOM     20  O   UNL     1      -0.424   9.900  17.946  0.00  0.00    +0.000 OA
ATOM     21  H   UNL     1       2.299  10.159  19.511  0.00  0.00    +0.000 HD
BRANCH  19  22
ATOM     22  C   UNL     1       0.495  11.954  18.657  0.00  0.00    +0.000 C 
BRANCH  22  23
ATOM     23  C   UNL     1      -0.906  12.603  18.460  0.00  0.00    +0.000 C 
BRANCH  23  24
ATOM     24  O   UNL     1      -1.407  12.321  17.174  0.00  0.00    +0.000 OA
ATOM     25  H   UNL     1      -0.668  12.447  16.525  0.00  0.00    +0.000 HD
ENDBRANCH  23  24
BRANCH  23  26
ATOM     26  C   UNL     1      -1.956  12.187  19.495  0.00  0.00    +0.000 C 
BRANCH  26  27
ATOM     27  C   UNL     1      -2.158  13.187  20.662  0.00  0.00    +0.000 C 
BRANCH  27  28
ATOM     28  N   UNL     1      -2.891  14.382  20.227  0.00  0.00    +0.000 NA
ATOM     29  H   UNL     1      -3.722  14.117  19.650  0.00  0.00    +0.000 HD
ATOM     30  H   UNL     1      -2.269  15.016  19.675  0.00  0.00    +0.000 HD
ENDBRANCH  27  28
BRANCH  27  31
ATOM     31  C   UNL     1      -2.930  12.528  21.823  0.00  0.00    +0.000 C 
BRANCH  31  32
ATOM     32  C   UNL     1      -2.101  12.296  23.115  0.00  0.00    +0.000 C 
ATOM     33  C   UNL     1      -1.227  11.033  23.028  0.00  0.00    +0.000 C 
ATOM     34  C   UNL     1      -1.223  13.519  23.383  0.00  0.00    +0.000 C 
ENDBRANCH  31  32
ENDBRANCH  27  31
ENDBRANCH  26  27
ENDBRANCH  23  26
ENDBRANCH  22  23
ENDBRANCH  19  22
ENDBRANCH   1  18
BRANCH   1  35
ATOM     35  C   UNL     1       1.912   7.723  20.485  0.00  0.00    +0.000 C 
ATOM     36  C   UNL     1       1.322   8.582  21.623  0.00  0.00    +0.000 C 
ATOM     37  C   UNL     1       1.436   6.269  20.647  0.00  0.00    +0.000 C 
ENDBRANCH   1  35
TORSDOF 16
ENDMDL
MODEL 7
REMARK VINA RESULT:      -6.9      0.879      1.336
REMARK  Name = 
REMARK  21 active torsions:
REMARK  status: ('A' for Active; 'I' for Inactive)
REMARK    1  A    between atoms: C_1  and  O_2
REMARK    2  A    between atoms: O_2  and  C_3
REMARK    3  A    between atoms: C_3  and  C_5
REMARK    4  A    between atoms: C_5  and  C_6
REMARK    5  A    between atoms: C_5  and  N_13
REMARK    6  A    between atoms: C_6  and  C_7
REMARK    7  A    between atoms: C_14  and  C_16
REMARK    8  A    between atoms: C_16  and  N_17
REMARK    9  A    between atoms: C_16  and  C_30
REMARK   10  A    between atoms: C_18  and  C_20
REMARK   11  A    between atoms: C_20  and  C_21
REMARK   12  A    between atoms: C_21  and  O_22
REMARK   13  A    between atoms: C_21  and  C_23
REMARK   14  A    between atoms: C_23  and  C_24
REMARK   15  A    between atoms: C_24  and  N_25
REMARK   16  A    between atoms: C_24  and  C_26
REMARK   17  A    between atoms: C_26  and  C_27
REMARK   18  A    between atoms: C_27  and  C_28
REMARK   19  A    between atoms: C_27  and  C_29
REMARK   20  A    between atoms: C_30  and  C_31
REMARK   21  A    between atoms: C_30  and  C_32
REMARK                            x       y       z     vdW  Elec       q    Type
REMARK                         _______ _______ _______ _____ _____    ______ ____
ROOT
ATOM      1  C   UNL     1       3.165   5.205  19.989  0.00  0.00    +0.000 C 
ENDROOT
BRANCH   1   3
ATOM      2  N   UNL     1       2.178   7.529  20.039  0.00  0.00    +0.000 N 
ATOM      3  C   UNL     1       2.024   6.178  20.219  0.00  0.00    +0.000 C 
ATOM      4  O   UNL     1       0.968   5.731  20.641  0.00  0.00    +0.000 OA
ATOM      5  H   UNL     1       3.069   7.896  19.692  0.00  0.00    +0.000 HD
BRANCH   2   6
ATOM      6  C   UNL     1       1.115   8.485  20.341  0.00  0.00    +0.000 C 
BRANCH   6   7
ATOM      7  C   UNL     1       1.115   8.886  21.805  0.00  0.00    +0.000 C 
ATOM      8  O   UNL     1       2.138   9.299  22.335  0.00  0.00    +0.000 OA
BRANCH   7  10
ATOM      9  C   UNL     1      -0.578   9.894  23.189  0.00  0.00    +0.000 C 
ATOM     10  O   UNL     1      -0.042   8.816  22.515  0.00  0.00    +0.000 OA
ENDBRANCH   7  10
ENDBRANCH   6   7
BRANCH   6  11
ATOM     11  C   UNL     1       1.218   9.734  19.417  0.00  0.00    +0.000 C 
BRANCH  11  12
ATOM     12  C   UNL     1      -0.120  10.269  18.922  0.00  0.00    +0.000 A 
ATOM     13  C   UNL     1      -0.786  11.285  19.636  0.00  0.00    +0.000 A 
ATOM     14  C   UNL     1      -2.020  11.775  19.189  0.00  0.00    +0.000 A 
ATOM     15  C   UNL     1      -2.603  11.258  18.031  0.00  0.00    +0.000 A 
ATOM     16  C   UNL     1      -1.948  10.263  17.307  0.00  0.00    +0.000 A 
ATOM     17  C   UNL     1      -0.714   9.778  17.741  0.00  0.00    +0.000 A 
ENDBRANCH  11  12
ENDBRANCH   6  11
ENDBRANCH   2   6
ENDBRANCH   1   3
BRANCH   1  18
ATOM     18  N   UNL     1       4.047   5.723  18.961  0.00  0.00    +0.000 N 
ATOM     19  C   UNL     1       5.408   5.747  19.028  0.00  0.00    +0.000 C 
ATOM     20  O   UNL     1       5.985   5.363  20.035  0.00  0.00    +0.000 OA
ATOM     21  H   UNL     1       3.579   6.073  18.127  0.00  0.00    +0.000 HD
BRANCH  19  22
ATOM     22  C   UNL     1       6.246   6.226  17.855  0.00  0.00    +0.000 C 
BRANCH  22  23
ATOM     23  C   UNL     1       7.309   5.200  17.365  0.00  0.00    +0.000 C 
BRANCH  23  24
ATOM     24  O   UNL     1       7.189   3.987  18.070  0.00  0.00    +0.000 OA
ATOM     25  H   UNL     1       7.374   3.248  17.436  0.00  0.00    +0.000 HD
ENDBRANCH  23  24
BRANCH  23  26
ATOM     26  C   UNL     1       7.265   4.899  15.863  0.00  0.00    +0.000 C 
BRANCH  26  27
ATOM     27  C   UNL     1       5.843   4.744  15.268  0.00  0.00    +0.000 C 
BRANCH  27  28
ATOM     28  N   UNL     1       5.386   5.984  14.630  0.00  0.00    +0.000 NA
ATOM     29  H   UNL     1       6.031   6.260  13.854  0.00  0.00    +0.000 HD
ATOM     30  H   UNL     1       5.329   6.759  15.329  0.00  0.00    +0.000 HD
ENDBRANCH  27  28
BRANCH  27  31
ATOM     31  C   UNL     1       5.805   3.608  14.225  0.00  0.00    +0.000 C 
BRANCH  31  32
ATOM     32  C   UNL     1       5.767   4.073  12.745  0.00  0.00    +0.000 C 
ATOM     33  C   UNL     1       7.121   3.886  12.040  0.00  0.00    +0.000 C 
ATOM     34  C   UNL     1       4.679   3.301  11.997  0.00  0.00    +0.000 C 
ENDBRANCH  31  32
ENDBRANCH  27  31
ENDBRANCH  26  27
ENDBRANCH  23  26
ENDBRANCH  22  23
ENDBRANCH  19  22
ENDBRANCH   1  18
BRANCH   1  35
ATOM     35  C   UNL     1       2.680   3.777  19.613  0.00  0.00    +0.000 C 
ATOM     36  C   UNL     1       2.262   3.626  18.135  0.00  0.00    +0.000 C 
ATOM     37  C   UNL     1       3.769   2.741  19.942  0.00  0.00    +0.000 C 
ENDBRANCH   1  35
TORSDOF 16
ENDMDL
MODEL 8
REMARK VINA RESULT:      -6.8      4.564      6.724
REMARK  Name = 
REMARK  21 active torsions:
REMARK  status: ('A' for Active; 'I' for Inactive)
REMARK    1  A    between atoms: C_1  and  O_2
REMARK    2  A    between atoms: O_2  and  C_3
REMARK    3  A    between atoms: C_3  and  C_5
REMARK    4  A    between atoms: C_5  and  C_6
REMARK    5  A    between atoms: C_5  and  N_13
REMARK    6  A    between atoms: C_6  and  C_7
REMARK    7  A    between atoms: C_14  and  C_16
REMARK    8  A    between atoms: C_16  and  N_17
REMARK    9  A    between atoms: C_16  and  C_30
REMARK   10  A    between atoms: C_18  and  C_20
REMARK   11  A    between atoms: C_20  and  C_21
REMARK   12  A    between atoms: C_21  and  O_22
REMARK   13  A    between atoms: C_21  and  C_23
REMARK   14  A    between atoms: C_23  and  C_24
REMARK   15  A    between atoms: C_24  and  N_25
REMARK   16  A    between atoms: C_24  and  C_26
REMARK   17  A    between atoms: C_26  and  C_27
REMARK   18  A    between atoms: C_27  and  C_28
REMARK   19  A    between atoms: C_27  and  C_29
REMARK   20  A    between atoms: C_30  and  C_31
REMARK   21  A    between atoms: C_30  and  C_32
REMARK                            x       y       z     vdW  Elec       q    Type
REMARK                         _______ _______ _______ _____ _____    ______ ____
ROOT
ATOM      1  C   UNL     1       5.844   5.796  17.724  0.00  0.00    +0.000 C 
ENDROOT
BRANCH   1   3
ATOM      2  N   UNL     1       3.824   5.477  19.204  0.00  0.00    +0.000 N 
ATOM      3  C   UNL     1       4.391   6.034  18.086  0.00  0.00    +0.000 C 
ATOM      4  O   UNL     1       3.707   6.687  17.312  0.00  0.00    +0.000 OA
ATOM      5  H   UNL     1       4.402   4.925  19.846  0.00  0.00    +0.000 HD
BRANCH   2   6
ATOM      6  C   UNL     1       2.405   5.625  19.519  0.00  0.00    +0.000 C 
BRANCH   6   7
ATOM      7  C   UNL     1       1.736   4.283  19.758  0.00  0.00    +0.000 C 
ATOM      8  O   UNL     1       0.650   4.224  20.320  0.00  0.00    +0.000 OA
BRANCH   7  10
ATOM      9  C   UNL     1       1.788   2.339  18.341  0.00  0.00    +0.000 C 
ATOM     10  O   UNL     1       2.337   3.150  19.312  0.00  0.00    +0.000 OA
ENDBRANCH   7  10
ENDBRANCH   6   7
BRANCH   6  11
ATOM     11  C   UNL     1       2.205   6.576  20.736  0.00  0.00    +0.000 C 
BRANCH  11  12
ATOM     12  C   UNL     1       1.499   7.887  20.409  0.00  0.00    +0.000 A 
ATOM     13  C   UNL     1       0.635   8.480  21.351  0.00  0.00    +0.000 A 
ATOM     14  C   UNL     1      -0.023   9.680  21.053  0.00  0.00    +0.000 A 
ATOM     15  C   UNL     1       0.171  10.299  19.816  0.00  0.00    +0.000 A 
ATOM     16  C   UNL     1       1.036   9.730  18.882  0.00  0.00    +0.000 A 
ATOM     17  C   UNL     1       1.701   8.540  19.177  0.00  0.00    +0.000 A 
ENDBRANCH  11  12
ENDBRANCH   6  11
ENDBRANCH   2   6
ENDBRANCH   1   3
BRANCH   1  18
ATOM     18  N   UNL     1       6.469   7.055  17.368  0.00  0.00    +0.000 N 
ATOM     19  C   UNL     1       7.636   7.530  17.888  0.00  0.00    +0.000 C 
ATOM     20  O   UNL     1       8.218   6.914  18.769  0.00  0.00    +0.000 OA
ATOM     21  H   UNL     1       5.981   7.594  16.655  0.00  0.00    +0.000 HD
BRANCH  19  22
ATOM     22  C   UNL     1       8.257   8.820  17.379  0.00  0.00    +0.000 C 
BRANCH  22  23
ATOM     23  C   UNL     1       8.539   9.877  18.486  0.00  0.00    +0.000 C 
BRANCH  23  24
ATOM     24  O   UNL     1       9.233   9.294  19.564  0.00  0.00    +0.000 OA
ATOM     25  H   UNL     1       9.485  10.019  20.190  0.00  0.00    +0.000 HD
ENDBRANCH  23  24
BRANCH  23  26
ATOM     26  C   UNL     1       9.317  11.109  18.013  0.00  0.00    +0.000 C 
BRANCH  26  27
ATOM     27  C   UNL     1      10.165  11.808  19.105  0.00  0.00    +0.000 C 
BRANCH  27  28
ATOM     28  N   UNL     1      11.571  11.392  19.047  0.00  0.00    +0.000 NA
ATOM     29  H   UNL     1      11.645  10.364  18.867  0.00  0.00    +0.000 HD
ATOM     30  H   UNL     1      12.062  11.627  19.939  0.00  0.00    +0.000 HD
ENDBRANCH  27  28
BRANCH  27  31
ATOM     31  C   UNL     1      10.095  13.342  18.957  0.00  0.00    +0.000 C 
BRANCH  31  32
ATOM     32  C   UNL     1      11.406  14.016  18.470  0.00  0.00    +0.000 C 
ATOM     33  C   UNL     1      11.230  14.722  17.115  0.00  0.00    +0.000 C 
ATOM     34  C   UNL     1      11.882  15.020  19.522  0.00  0.00    +0.000 C 
ENDBRANCH  31  32
ENDBRANCH  27  31
ENDBRANCH  26  27
ENDBRANCH  23  26
ENDBRANCH  22  23
ENDBRANCH  19  22
ENDBRANCH   1  18
BRANCH   1  35
ATOM     35  C   UNL     1       6.023   4.763  16.576  0.00  0.00    +0.000 C 
ATOM     36  C   UNL     1       4.967   3.637  16.574  0.00  0.00    +0.000 C 
ATOM     37  C   UNL     1       6.009   5.474  15.212  0.00  0.00    +0.000 C 
ENDBRANCH   1  35
TORSDOF 16
ENDMDL
MODEL 9
REMARK VINA RESULT:      -6.7      2.545      8.971
REMARK  Name = 
REMARK  21 active torsions:
REMARK  status: ('A' for Active; 'I' for Inactive)
REMARK    1  A    between atoms: C_1  and  O_2
REMARK    2  A    between atoms: O_2  and  C_3
REMARK    3  A    between atoms: C_3  and  C_5
REMARK    4  A    between atoms: C_5  and  C_6
REMARK    5  A    between atoms: C_5  and  N_13
REMARK    6  A    between atoms: C_6  and  C_7
REMARK    7  A    between atoms: C_14  and  C_16
REMARK    8  A    between atoms: C_16  and  N_17
REMARK    9  A    between atoms: C_16  and  C_30
REMARK   10  A    between atoms: C_18  and  C_20
REMARK   11  A    between atoms: C_20  and  C_21
REMARK   12  A    between atoms: C_21  and  O_22
REMARK   13  A    between atoms: C_21  and  C_23
REMARK   14  A    between atoms: C_23  and  C_24
REMARK   15  A    between atoms: C_24  and  N_25
REMARK   16  A    between atoms: C_24  and  C_26
REMARK   17  A    between atoms: C_26  and  C_27
REMARK   18  A    between atoms: C_27  and  C_28
REMARK   19  A    between atoms: C_27  and  C_29
REMARK   20  A    between atoms: C_30  and  C_31
REMARK   21  A    between atoms: C_30  and  C_32
REMARK                            x       y       z     vdW  Elec       q    Type
REMARK                         _______ _______ _______ _____ _____    ______ ____
ROOT
ATOM      1  C   UNL     1       2.360   7.482  19.457  0.00  0.00    +0.000 C 
ENDROOT
BRANCH   1   3
ATOM      2  N   UNL     1       2.260   5.078  18.691  0.00  0.00    +0.000 N 
ATOM      3  C   UNL     1       2.788   6.029  19.527  0.00  0.00    +0.000 C 
ATOM      4  O   UNL     1       3.575   5.706  20.405  0.00  0.00    +0.000 OA
ATOM      5  H   UNL     1       1.595   5.356  17.962  0.00  0.00    +0.000 HD
BRANCH   2   6
ATOM      6  C   UNL     1       2.597   3.661  18.806  0.00  0.00    +0.000 C 
BRANCH   6   7
ATOM      7  C   UNL     1       1.383   2.817  19.148  0.00  0.00    +0.000 C 
ATOM      8  O   UNL     1       0.523   2.598  18.306  0.00  0.00    +0.000 OA
BRANCH   7  10
ATOM      9  C   UNL     1       1.670   2.938  21.535  0.00  0.00    +0.000 C 
ATOM     10  O   UNL     1       1.276   2.277  20.391  0.00  0.00    +0.000 OA
ENDBRANCH   7  10
ENDBRANCH   6   7
BRANCH   6  11
ATOM     11  C   UNL     1       3.286   3.151  17.505  0.00  0.00    +0.000 C 
BRANCH  11  12
ATOM     12  C   UNL     1       4.568   3.886  17.135  0.00  0.00    +0.000 A 
ATOM     13  C   UNL     1       5.570   4.096  18.103  0.00  0.00    +0.000 A 
ATOM     14  C   UNL     1       6.747   4.779  17.770  0.00  0.00    +0.000 A 
ATOM     15  C   UNL     1       6.936   5.260  16.472  0.00  0.00    +0.000 A 
ATOM     16  C   UNL     1       5.960   5.045  15.502  0.00  0.00    +0.000 A 
ATOM     17  C   UNL     1       4.790   4.358  15.825  0.00  0.00    +0.000 A 
ENDBRANCH  11  12
ENDBRANCH   6  11
ENDBRANCH   2   6
ENDBRANCH   1   3
BRANCH   1  18
ATOM     18  N   UNL     1       1.116   7.659  20.181  0.00  0.00    +0.000 N 
ATOM     19  C   UNL     1       0.857   8.658  21.072  0.00  0.00    +0.000 C 
ATOM     20  O   UNL     1       1.725   9.468  21.363  0.00  0.00    +0.000 OA
ATOM     21  H   UNL     1       0.391   6.975  19.970  0.00  0.00    +0.000 HD
BRANCH  19  22
ATOM     22  C   UNL     1      -0.514   8.809  21.708  0.00  0.00    +0.000 C 
BRANCH  22  23
ATOM     23  C   UNL     1      -0.513   9.590  23.055  0.00  0.00    +0.000 C 
BRANCH  23  24
ATOM     24  O   UNL     1       0.771   9.581  23.632  0.00  0.00    +0.000 OA
ATOM     25  H   UNL     1       1.101   8.646  23.626  0.00  0.00    +0.000 HD
ENDBRANCH  23  24
BRANCH  23  26
ATOM     26  C   UNL     1      -0.994  11.041  22.954  0.00  0.00    +0.000 C 
BRANCH  26  27
ATOM     27  C   UNL     1      -1.175  11.573  21.510  0.00  0.00    +0.000 C 
BRANCH  27  28
ATOM     28  N   UNL     1      -2.456  12.272  21.349  0.00  0.00    +0.000 NA
ATOM     29  H   UNL     1      -2.554  13.032  22.062  0.00  0.00    +0.000 HD
ATOM     30  H   UNL     1      -3.255  11.603  21.438  0.00  0.00    +0.000 HD
ENDBRANCH  27  28
BRANCH  27  31
ATOM     31  C   UNL     1      -0.033  12.539  21.133  0.00  0.00    +0.000 C 
BRANCH  31  32
ATOM     32  C   UNL     1       0.511  12.381  19.688  0.00  0.00    +0.000 C 
ATOM     33  C   UNL     1      -0.318  13.174  18.662  0.00  0.00    +0.000 C 
ATOM     34  C   UNL     1       1.971  12.836  19.642  0.00  0.00    +0.000 C 
ENDBRANCH  31  32
ENDBRANCH  27  31
ENDBRANCH  26  27
ENDBRANCH  23  26
ENDBRANCH  22  23
ENDBRANCH  19  22
ENDBRANCH   1  18
BRANCH   1  35
ATOM     35  C   UNL     1       2.213   8.003  18.000  0.00  0.00    +0.000 C 
ATOM     36  C   UNL     1       1.855   9.500  17.902  0.00  0.00    +0.000 C 
ATOM     37  C   UNL     1       3.504   7.736  17.206  0.00  0.00    +0.000 C 
ENDBRANCH   1  35
TORSDOF 16
ENDMDL
