MODEL 1
REMARK VINA RESULT:      -7.6      0.000      0.000
REMARK  Name = 
REMARK  8 active torsions:
REMARK  status: ('A' for Active; 'I' for Inactive)
REMARK    1  A    between atoms: C_1  and  C_2
REMARK    2  A    between atoms: C_2  and  O_3
REMARK    3  A    between atoms: O_3  and  C_4
REMARK    4  A    between atoms: C_9  and  N_10
REMARK    5  A    between atoms: C_11  and  C_13
REMARK    6  A    between atoms: C_13  and  C_14
REMARK    7  A    between atoms: C_14  and  C_15
REMARK    8  A    between atoms: C_15  and  C_17
REMARK                            x       y       z     vdW  Elec       q    Type
REMARK                         _______ _______ _______ _____ _____    ______ ____
ROOT
ATOM      1  N   UNL     1       6.893   6.685  17.453  0.00  0.00    +0.000 N 
ATOM      2  C   UNL     1       7.792   7.471  18.138  0.00  0.00    +0.000 C 
ATOM      3  O   UNL     1       8.499   7.049  19.047  0.00  0.00    +0.000 OA
ATOM      4  H   UNL     1       6.239   7.140  16.828  0.00  0.00    +0.000 HD
ENDROOT
BRANCH   1  10
ATOM      5  C   UNL     1       2.759   3.905  18.039  0.00  0.00    +0.000 C 
ATOM      6  O   UNL     1       2.206   3.374  17.083  0.00  0.00    +0.000 OA
ATOM      7  N   UNL     1       3.934   4.624  17.944  0.00  0.00    +0.000 N 
ATOM      8  C   UNL     1       4.501   4.878  16.632  0.00  0.00    +0.000 C 
ATOM      9  C   UNL     1       5.984   4.546  16.628  0.00  0.00    +0.000 C 
ATOM     10  C   UNL     1       6.731   5.266  17.756  0.00  0.00    +0.000 C 
ATOM     11  C   UNL     1       6.049   5.047  19.113  0.00  0.00    +0.000 C 
ATOM     12  C   UNL     1       4.552   5.336  19.060  0.00  0.00    +0.000 C 
BRANCH   5  13
ATOM     13  O   UNL     1       2.252   3.905  19.299  0.00  0.00    +0.000 OA
BRANCH  13  15
ATOM     14  C   UNL     1       1.370   2.792  21.219  0.00  0.00    +0.000 C 
ATOM     15  C   UNL     1       2.000   2.606  19.850  0.00  0.00    +0.000 C 
ENDBRANCH  13  15
ENDBRANCH   5  13
ENDBRANCH   1  10
BRANCH   2  16
ATOM     16  C   UNL     1       7.822   8.911  17.671  0.00  0.00    +0.000 C 
BRANCH  16  17
ATOM     17  C   UNL     1       8.894   9.669  18.443  0.00  0.00    +0.000 C 
BRANCH  17  18
ATOM     18  C   UNL     1       8.954  11.143  18.089  0.00  0.00    +0.000 C 
ATOM     19  O   UNL     1       8.072  11.694  17.440  0.00  0.00    +0.000 OA
BRANCH  18  20
ATOM     20  C   UNL     1      10.143  11.921  18.558  0.00  0.00    +0.000 A 
ATOM     21  C   UNL     1      11.134  11.349  19.369  0.00  0.00    +0.000 A 
ATOM     22  C   UNL     1      12.224  12.111  19.798  0.00  0.00    +0.000 A 
ATOM     23  C   UNL     1      12.333  13.448  19.420  0.00  0.00    +0.000 A 
ATOM     24  C   UNL     1      11.358  14.024  18.608  0.00  0.00    +0.000 A 
ATOM     25  C   UNL     1      10.267  13.264  18.176  0.00  0.00    +0.000 A 
ENDBRANCH  18  20
ENDBRANCH  17  18
ENDBRANCH  16  17
ENDBRANCH   2  16
TORSDOF 7
ENDMDL
MODEL 2
REMARK VINA RESULT:      -7.3      5.307      8.075
REMARK  Name = 
REMARK  8 active torsions:
REMARK  status: ('A' for Active; 'I' for Inactive)
REMARK    1  A    between atoms: C_1  and  C_2
REMARK    2  A    between atoms: C_2  and  O_3
REMARK    3  A    between atoms: O_3  and  C_4
REMARK    4  A    between atoms: C_9  and  N_10
REMARK    5  A    between atoms: C_11  and  C_13
REMARK    6  A    between atoms: C_13  and  C_14
REMARK    7  A    between atoms: C_14  and  C_15
REMARK    8  A    between atoms: C_15  and  C_17
REMARK                            x       y       z     vdW  Elec       q    Type
REMARK                         _______ _______ _______ _____ _____    ______ ____
ROOT
ATOM      1  N   UNL     1       3.180   6.266  19.131  0.00  0.00    +0.000 N 
ATOM      2  C   UNL     1       2.194   6.606  20.031  0.00  0.00    +0.000 C 
ATOM      3  O   UNL     1       1.791   5.848  20.906  0.00  0.00    +0.000 OA
ATOM      4  H   UNL     1       3.345   6.884  18.347  0.00  0.00    +0.000 HD
ENDROOT
BRANCH   1  10
ATOM      5  C   UNL     1       6.707   4.274  16.173  0.00  0.00    +0.000 C 
ATOM      6  O   UNL     1       7.899   4.456  16.390  0.00  0.00    +0.000 OA
ATOM      7  N   UNL     1       5.699   4.743  16.991  0.00  0.00    +0.000 N 
ATOM      8  C   UNL     1       6.039   5.600  18.112  0.00  0.00    +0.000 C 
ATOM      9  C   UNL     1       5.346   5.113  19.374  0.00  0.00    +0.000 C 
ATOM     10  C   UNL     1       3.835   4.962  19.171  0.00  0.00    +0.000 C 
ATOM     11  C   UNL     1       3.515   4.125  17.925  0.00  0.00    +0.000 C 
ATOM     12  C   UNL     1       4.273   4.610  16.694  0.00  0.00    +0.000 C 
BRANCH   5  13
ATOM     13  O   UNL     1       6.229   3.645  15.069  0.00  0.00    +0.000 OA
BRANCH  13  15
ATOM     14  C   UNL     1       5.695   3.651  12.741  0.00  0.00    +0.000 C 
ATOM     15  C   UNL     1       6.561   4.272  13.824  0.00  0.00    +0.000 C 
ENDBRANCH  13  15
ENDBRANCH   5  13
ENDBRANCH   1  10
BRANCH   2  16
ATOM     16  C   UNL     1       1.647   8.004  19.836  0.00  0.00    +0.000 C 
BRANCH  16  17
ATOM     17  C   UNL     1       1.864   8.433  18.390  0.00  0.00    +0.000 C 
BRANCH  17  18
ATOM     18  C   UNL     1       1.528   9.892  18.145  0.00  0.00    +0.000 C 
ATOM     19  O   UNL     1       2.386  10.719  17.856  0.00  0.00    +0.000 OA
BRANCH  18  20
ATOM     20  C   UNL     1       0.096  10.304  18.271  0.00  0.00    +0.000 A 
ATOM     21  C   UNL     1      -0.323  11.267  19.201  0.00  0.00    +0.000 A 
ATOM     22  C   UNL     1      -1.672  11.617  19.299  0.00  0.00    +0.000 A 
ATOM     23  C   UNL     1      -2.612  11.010  18.470  0.00  0.00    +0.000 A 
ATOM     24  C   UNL     1      -2.207  10.057  17.537  0.00  0.00    +0.000 A 
ATOM     25  C   UNL     1      -0.858   9.705  17.436  0.00  0.00    +0.000 A 
ENDBRANCH  18  20
ENDBRANCH  17  18
ENDBRANCH  16  17
ENDBRANCH   2  16
TORSDOF 7
ENDMDL
MODEL 3
REMARK VINA RESULT:      -7.2      5.520      7.791
REMARK  Name = 
REMARK  8 active torsions:
REMARK  status: ('A' for Active; 'I' for Inactive)
REMARK    1  A    between atoms: C_1  and  C_2
REMARK    2  A    between atoms: C_2  and  O_3
REMARK    3  A    between atoms: O_3  and  C_4
REMARK    4  A    between atoms: C_9  and  N_10
REMARK    5  A    between atoms: C_11  and  C_13
REMARK    6  A    between atoms: C_13  and  C_14
REMARK    7  A    between atoms: C_14  and  C_15
REMARK    8  A    between atoms: C_15  and  C_17
REMARK                            x       y       z     vdW  Elec       q    Type
REMARK                         _______ _______ _______ _____ _____    ______ ____
ROOT
ATOM      1  N   UNL     1       3.048   4.902  19.402  0.00  0.00    +0.000 N 
ATOM      2  C   UNL     1       2.278   4.930  20.543  0.00  0.00    +0.000 C 
ATOM      3  O   UNL     1       2.451   4.172  21.492  0.00  0.00    +0.000 OA
ATOM      4  H   UNL     1       2.744   5.449  18.606  0.00  0.00    +0.000 HD
ENDROOT
BRANCH   1  10
ATOM      5  C   UNL     1       6.501   4.458  15.791  0.00  0.00    +0.000 C 
ATOM      6  O   UNL     1       7.547   5.096  15.826  0.00  0.00    +0.000 OA
ATOM      7  N   UNL     1       5.548   4.492  16.789  0.00  0.00    +0.000 N 
ATOM      8  C   UNL     1       5.718   5.417  17.895  0.00  0.00    +0.000 C 
ATOM      9  C   UNL     1       5.499   4.699  19.218  0.00  0.00    +0.000 C 
ATOM     10  C   UNL     1       4.155   3.963  19.250  0.00  0.00    +0.000 C 
ATOM     11  C   UNL     1       3.975   3.065  18.019  0.00  0.00    +0.000 C 
ATOM     12  C   UNL     1       4.259   3.807  16.716  0.00  0.00    +0.000 C 
BRANCH   5  13
ATOM     13  O   UNL     1       6.122   3.689  14.738  0.00  0.00    +0.000 OA
BRANCH  13  15
ATOM     14  C   UNL     1       5.913   3.292  12.393  0.00  0.00    +0.000 C 
ATOM     15  C   UNL     1       6.572   4.150  13.458  0.00  0.00    +0.000 C 
ENDBRANCH  13  15
ENDBRANCH   5  13
ENDBRANCH   1  10
BRANCH   2  16
ATOM     16  C   UNL     1       1.188   5.981  20.517  0.00  0.00    +0.000 C 
BRANCH  16  17
ATOM     17  C   UNL     1       1.800   7.350  20.786  0.00  0.00    +0.000 C 
BRANCH  17  18
ATOM     18  C   UNL     1       1.756   8.270  19.581  0.00  0.00    +0.000 C 
ATOM     19  O   UNL     1       2.459   8.086  18.594  0.00  0.00    +0.000 OA
BRANCH  18  20
ATOM     20  C   UNL     1       0.818   9.435  19.632  0.00  0.00    +0.000 A 
ATOM     21  C   UNL     1       0.481  10.066  20.838  0.00  0.00    +0.000 A 
ATOM     22  C   UNL     1      -0.410  11.143  20.847  0.00  0.00    +0.000 A 
ATOM     23  C   UNL     1      -0.968  11.598  19.655  0.00  0.00    +0.000 A 
ATOM     24  C   UNL     1      -0.634  10.983  18.450  0.00  0.00    +0.000 A 
ATOM     25  C   UNL     1       0.257   9.905  18.437  0.00  0.00    +0.000 A 
ENDBRANCH  18  20
ENDBRANCH  17  18
ENDBRANCH  16  17
ENDBRANCH   2  16
TORSDOF 7
ENDMDL
MODEL 4
REMARK VINA RESULT:      -7.2      5.378      7.916
REMARK  Name = 
REMARK  8 active torsions:
REMARK  status: ('A' for Active; 'I' for Inactive)
REMARK    1  A    between atoms: C_1  and  C_2
REMARK    2  A    between atoms: C_2  and  O_3
REMARK    3  A    between atoms: O_3  and  C_4
REMARK    4  A    between atoms: C_9  and  N_10
REMARK    5  A    between atoms: C_11  and  C_13
REMARK    6  A    between atoms: C_13  and  C_14
REMARK    7  A    between atoms: C_14  and  C_15
REMARK    8  A    between atoms: C_15  and  C_17
REMARK                            x       y       z     vdW  Elec       q    Type
REMARK                         _______ _______ _______ _____ _____    ______ ____
ROOT
ATOM      1  N   UNL     1       3.419   4.694  19.458  0.00  0.00    +0.000 N 
ATOM      2  C   UNL     1       2.394   4.193  20.228  0.00  0.00    +0.000 C 
ATOM      3  O   UNL     1       2.329   3.021  20.584  0.00  0.00    +0.000 OA
ATOM      4  H   UNL     1       3.319   5.627  19.077  0.00  0.00    +0.000 HD
ENDROOT
BRANCH   1  10
ATOM      5  C   UNL     1       6.298   4.933  15.358  0.00  0.00    +0.000 C 
ATOM      6  O   UNL     1       7.310   5.625  15.327  0.00  0.00    +0.000 OA
ATOM      7  N   UNL     1       5.508   4.780  16.479  0.00  0.00    +0.000 N 
ATOM      8  C   UNL     1       5.805   5.562  17.664  0.00  0.00    +0.000 C 
ATOM      9  C   UNL     1       5.819   4.668  18.893  0.00  0.00    +0.000 C 
ATOM     10  C   UNL     1       4.528   3.853  19.019  0.00  0.00    +0.000 C 
ATOM     11  C   UNL     1       4.200   3.112  17.716  0.00  0.00    +0.000 C 
ATOM     12  C   UNL     1       4.252   4.032  16.500  0.00  0.00    +0.000 C 
BRANCH   5  13
ATOM     13  O   UNL     1       5.796   4.284  14.275  0.00  0.00    +0.000 OA
BRANCH  13  15
ATOM     14  C   UNL     1       6.074   3.206  12.163  0.00  0.00    +0.000 C 
ATOM     15  C   UNL     1       6.707   4.141  13.179  0.00  0.00    +0.000 C 
ENDBRANCH  13  15
ENDBRANCH   5  13
ENDBRANCH   1  10
BRANCH   2  16
ATOM     16  C   UNL     1       1.345   5.224  20.592  0.00  0.00    +0.000 C 
BRANCH  16  17
ATOM     17  C   UNL     1       2.033   6.497  21.067  0.00  0.00    +0.000 C 
BRANCH  17  18
ATOM     18  C   UNL     1       1.726   7.700  20.196  0.00  0.00    +0.000 C 
ATOM     19  O   UNL     1       2.106   7.778  19.033  0.00  0.00    +0.000 OA
BRANCH  18  20
ATOM     20  C   UNL     1       0.937   8.815  20.807  0.00  0.00    +0.000 A 
ATOM     21  C   UNL     1       0.617   8.840  22.172  0.00  0.00    +0.000 A 
ATOM     22  C   UNL     1      -0.134   9.891  22.704  0.00  0.00    +0.000 A 
ATOM     23  C   UNL     1      -0.569  10.926  21.879  0.00  0.00    +0.000 A 
ATOM     24  C   UNL     1      -0.250  10.916  20.522  0.00  0.00    +0.000 A 
ATOM     25  C   UNL     1       0.501   9.865  19.987  0.00  0.00    +0.000 A 
ENDBRANCH  18  20
ENDBRANCH  17  18
ENDBRANCH  16  17
ENDBRANCH   2  16
TORSDOF 7
ENDMDL
MODEL 5
REMARK VINA RESULT:      -7.1      5.299      7.747
REMARK  Name = 
REMARK  8 active torsions:
REMARK  status: ('A' for Active; 'I' for Inactive)
REMARK    1  A    between atoms: C_1  and  C_2
REMARK    2  A    between atoms: C_2  and  O_3
REMARK    3  A    between atoms: O_3  and  C_4
REMARK    4  A    between atoms: C_9  and  N_10
REMARK    5  A    between atoms: C_11  and  C_13
REMARK    6  A    between atoms: C_13  and  C_14
REMARK    7  A    between atoms: C_14  and  C_15
REMARK    8  A    between atoms: C_15  and  C_17
REMARK                            x       y       z     vdW  Elec       q    Type
REMARK                         _______ _______ _______ _____ _____    ______ ____
ROOT
ATOM      1  N   UNL     1       3.514   5.049  19.496  0.00  0.00    +0.000 N 
ATOM      2  C   UNL     1       2.572   4.725  20.447  0.00  0.00    +0.000 C 
ATOM      3  O   UNL     1       2.668   3.750  21.185  0.00  0.00    +0.000 OA
ATOM      4  H   UNL     1       3.286   5.773  18.826  0.00  0.00    +0.000 HD
ENDROOT
BRANCH   1  10
ATOM      5  C   UNL     1       6.632   4.671  15.586  0.00  0.00    +0.000 C 
ATOM      6  O   UNL     1       7.577   5.438  15.447  0.00  0.00    +0.000 OA
ATOM      7  N   UNL     1       5.784   4.688  16.675  0.00  0.00    +0.000 N 
ATOM      8  C   UNL     1       5.928   5.739  17.665  0.00  0.00    +0.000 C 
ATOM      9  C   UNL     1       5.940   5.145  19.064  0.00  0.00    +0.000 C 
ATOM     10  C   UNL     1       4.721   4.250  19.311  0.00  0.00    +0.000 C 
ATOM     11  C   UNL     1       4.550   3.209  18.197  0.00  0.00    +0.000 C 
ATOM     12  C   UNL     1       4.602   3.838  16.808  0.00  0.00    +0.000 C 
BRANCH   5  13
ATOM     13  O   UNL     1       6.265   3.750  14.657  0.00  0.00    +0.000 OA
BRANCH  13  15
ATOM     14  C   UNL     1       5.994   3.112  12.372  0.00  0.00    +0.000 C 
ATOM     15  C   UNL     1       6.023   4.277  13.346  0.00  0.00    +0.000 C 
ENDBRANCH  13  15
ENDBRANCH   5  13
ENDBRANCH   1  10
BRANCH   2  16
ATOM     16  C   UNL     1       1.399   5.681  20.494  0.00  0.00    +0.000 C 
BRANCH  16  17
ATOM     17  C   UNL     1       1.905   7.086  20.792  0.00  0.00    +0.000 C 
BRANCH  17  18
ATOM     18  C   UNL     1       1.825   8.015  19.596  0.00  0.00    +0.000 C 
ATOM     19  O   UNL     1       2.449   7.804  18.562  0.00  0.00    +0.000 OA
BRANCH  18  20
ATOM     20  C   UNL     1       0.951   9.224  19.715  0.00  0.00    +0.000 A 
ATOM     21  C   UNL     1       0.721  10.085  18.632  0.00  0.00    +0.000 A 
ATOM     22  C   UNL     1      -0.090  11.213  18.784  0.00  0.00    +0.000 A 
ATOM     23  C   UNL     1      -0.678  11.488  20.017  0.00  0.00    +0.000 A 
ATOM     24  C   UNL     1      -0.462  10.636  21.098  0.00  0.00    +0.000 A 
ATOM     25  C   UNL     1       0.349   9.507  20.949  0.00  0.00    +0.000 A 
ENDBRANCH  18  20
ENDBRANCH  17  18
ENDBRANCH  16  17
ENDBRANCH   2  16
TORSDOF 7
ENDMDL
MODEL 6
REMARK VINA RESULT:      -7.0      5.478      7.859
REMARK  Name = 
REMARK  8 active torsions:
REMARK  status: ('A' for Active; 'I' for Inactive)
REMARK    1  A    between atoms: C_1  and  C_2
REMARK    2  A    between atoms: C_2  and  O_3
REMARK    3  A    between atoms: O_3  and  C_4
REMARK    4  A    between atoms: C_9  and  N_10
REMARK    5  A    between atoms: C_11  and  C_13
REMARK    6  A    between atoms: C_13  and  C_14
REMARK    7  A    between atoms: C_14  and  C_15
REMARK    8  A    between atoms: C_15  and  C_17
REMARK                            x       y       z     vdW  Elec       q    Type
REMARK                         _______ _______ _______ _____ _____    ______ ____
ROOT
ATOM      1  N   UNL     1       3.148   6.077  19.164  0.00  0.00    +0.000 N 
ATOM      2  C   UNL     1       2.264   6.409  20.166  0.00  0.00    +0.000 C 
ATOM      3  O   UNL     1       1.913   5.625  21.042  0.00  0.00    +0.000 OA
ATOM      4  H   UNL     1       3.265   6.725  18.395  0.00  0.00    +0.000 HD
ENDROOT
BRANCH   1  10
ATOM      5  C   UNL     1       6.716   4.270  16.137  0.00  0.00    +0.000 C 
ATOM      6  O   UNL     1       7.905   4.379  16.416  0.00  0.00    +0.000 OA
ATOM      7  N   UNL     1       5.694   4.689  16.964  0.00  0.00    +0.000 N 
ATOM      8  C   UNL     1       6.020   5.407  18.183  0.00  0.00    +0.000 C 
ATOM      9  C   UNL     1       5.260   4.818  19.359  0.00  0.00    +0.000 C 
ATOM     10  C   UNL     1       3.753   4.751  19.086  0.00  0.00    +0.000 C 
ATOM     11  C   UNL     1       3.453   4.065  17.747  0.00  0.00    +0.000 C 
ATOM     12  C   UNL     1       4.278   4.648  16.603  0.00  0.00    +0.000 C 
BRANCH   5  13
ATOM     13  O   UNL     1       6.260   3.782  14.954  0.00  0.00    +0.000 OA
BRANCH  13  15
ATOM     14  C   UNL     1       6.387   3.624  12.575  0.00  0.00    +0.000 C 
ATOM     15  C   UNL     1       6.752   4.459  13.791  0.00  0.00    +0.000 C 
ENDBRANCH  13  15
ENDBRANCH   5  13
ENDBRANCH   1  10
BRANCH   2  16
ATOM     16  C   UNL     1       1.756   7.833  20.083  0.00  0.00    +0.000 C 
BRANCH  16  17
ATOM     17  C   UNL     1       0.801   8.096  21.240  0.00  0.00    +0.000 C 
BRANCH  17  18
ATOM     18  C   UNL     1       0.728   9.559  21.633  0.00  0.00    +0.000 C 
ATOM     19  O   UNL     1       0.961   9.940  22.775  0.00  0.00    +0.000 OA
BRANCH  18  20
ATOM     20  C   UNL     1       0.353  10.544  20.572  0.00  0.00    +0.000 A 
ATOM     21  C   UNL     1       1.107  11.702  20.331  0.00  0.00    +0.000 A 
ATOM     22  C   UNL     1       0.717  12.607  19.341  0.00  0.00    +0.000 A 
ATOM     23  C   UNL     1      -0.426  12.363  18.582  0.00  0.00    +0.000 A 
ATOM     24  C   UNL     1      -1.179  11.212  18.808  0.00  0.00    +0.000 A 
ATOM     25  C   UNL     1      -0.791  10.304  19.798  0.00  0.00    +0.000 A 
ENDBRANCH  18  20
ENDBRANCH  17  18
ENDBRANCH  16  17
ENDBRANCH   2  16
TORSDOF 7
ENDMDL
MODEL 7
REMARK VINA RESULT:      -7.0      1.535      1.738
REMARK  Name = 
REMARK  8 active torsions:
REMARK  status: ('A' for Active; 'I' for Inactive)
REMARK    1  A    between atoms: C_1  and  C_2
REMARK    2  A    between atoms: C_2  and  O_3
REMARK    3  A    between atoms: O_3  and  C_4
REMARK    4  A    between atoms: C_9  and  N_10
REMARK    5  A    between atoms: C_11  and  C_13
REMARK    6  A    between atoms: C_13  and  C_14
REMARK    7  A    between atoms: C_14  and  C_15
REMARK    8  A    between atoms: C_15  and  C_17
REMARK                            x       y       z     vdW  Elec       q    Type
REMARK                         _______ _______ _______ _____ _____    ______ ____
ROOT
ATOM      1  N   UNL     1       7.252   7.297  17.046  0.00  0.00    +0.000 N 
ATOM      2  C   UNL     1       8.048   7.848  18.025  0.00  0.00    +0.000 C 
ATOM      3  O   UNL     1       8.623   7.182  18.880  0.00  0.00    +0.000 OA
ATOM      4  H   UNL     1       6.691   7.920  16.479  0.00  0.00    +0.000 HD
ENDROOT
BRANCH   1  10
ATOM      5  C   UNL     1       3.317   4.445  18.286  0.00  0.00    +0.000 C 
ATOM      6  O   UNL     1       2.399   4.245  17.498  0.00  0.00    +0.000 OA
ATOM      7  N   UNL     1       4.452   5.165  17.974  0.00  0.00    +0.000 N 
ATOM      8  C   UNL     1       4.535   5.831  16.688  0.00  0.00    +0.000 C 
ATOM      9  C   UNL     1       5.869   5.529  16.025  0.00  0.00    +0.000 C 
ATOM     10  C   UNL     1       7.048   5.855  16.947  0.00  0.00    +0.000 C 
ATOM     11  C   UNL     1       6.880   5.207  18.328  0.00  0.00    +0.000 C 
ATOM     12  C   UNL     1       5.508   5.486  18.933  0.00  0.00    +0.000 C 
BRANCH   5  13
ATOM     13  O   UNL     1       3.300   4.037  19.581  0.00  0.00    +0.000 OA
BRANCH  13  15
ATOM     14  C   UNL     1       1.242   3.637  20.725  0.00  0.00    +0.000 C 
ATOM     15  C   UNL     1       2.341   3.015  19.881  0.00  0.00    +0.000 C 
ENDBRANCH  13  15
ENDBRANCH   5  13
ENDBRANCH   1  10
BRANCH   2  16
ATOM     16  C   UNL     1       8.145   9.357  17.954  0.00  0.00    +0.000 C 
BRANCH  16  17
ATOM     17  C   UNL     1       9.037   9.859  19.083  0.00  0.00    +0.000 C 
BRANCH  17  18
ATOM     18  C   UNL     1       9.779  11.134  18.733  0.00  0.00    +0.000 C 
ATOM     19  O   UNL     1      10.314  11.300  17.643  0.00  0.00    +0.000 OA
BRANCH  18  20
ATOM     20  C   UNL     1       9.849  12.204  19.777  0.00  0.00    +0.000 A 
ATOM     21  C   UNL     1      10.551  13.401  19.570  0.00  0.00    +0.000 A 
ATOM     22  C   UNL     1      10.605  14.371  20.574  0.00  0.00    +0.000 A 
ATOM     23  C   UNL     1       9.960  14.156  21.789  0.00  0.00    +0.000 A 
ATOM     24  C   UNL     1       9.253  12.974  22.003  0.00  0.00    +0.000 A 
ATOM     25  C   UNL     1       9.197  12.000  21.001  0.00  0.00    +0.000 A 
ENDBRANCH  18  20
ENDBRANCH  17  18
ENDBRANCH  16  17
ENDBRANCH   2  16
TORSDOF 7
ENDMDL
MODEL 8
REMARK VINA RESULT:      -7.0      1.173      1.378
REMARK  Name = 
REMARK  8 active torsions:
REMARK  status: ('A' for Active; 'I' for Inactive)
REMARK    1  A    between atoms: C_1  and  C_2
REMARK    2  A    between atoms: C_2  and  O_3
REMARK    3  A    between atoms: O_3  and  C_4
REMARK    4  A    between atoms: C_9  and  N_10
REMARK    5  A    between atoms: C_11  and  C_13
REMARK    6  A    between atoms: C_13  and  C_14
REMARK    7  A    between atoms: C_14  and  C_15
REMARK    8  A    between atoms: C_15  and  C_17
REMARK                            x       y       z     vdW  Elec       q    Type
REMARK                         _______ _______ _______ _____ _____    ______ ____
ROOT
ATOM      1  N   UNL     1       5.947   6.573  17.625  0.00  0.00    +0.000 N 
ATOM      2  C   UNL     1       7.080   7.261  17.251  0.00  0.00    +0.000 C 
ATOM      3  O   UNL     1       8.044   6.729  16.710  0.00  0.00    +0.000 OA
ATOM      4  H   UNL     1       5.267   7.050  18.203  0.00  0.00    +0.000 HD
ENDROOT
BRANCH   1  10
ATOM      5  C   UNL     1       2.190   3.418  18.668  0.00  0.00    +0.000 C 
ATOM      6  O   UNL     1       1.258   3.255  17.890  0.00  0.00    +0.000 OA
ATOM      7  N   UNL     1       3.281   4.222  18.403  0.00  0.00    +0.000 N 
ATOM      8  C   UNL     1       3.290   5.020  17.190  0.00  0.00    +0.000 C 
ATOM      9  C   UNL     1       4.615   4.854  16.463  0.00  0.00    +0.000 C 
ATOM     10  C   UNL     1       5.807   5.141  17.381  0.00  0.00    +0.000 C 
ATOM     11  C   UNL     1       5.715   4.347  18.691  0.00  0.00    +0.000 C 
ATOM     12  C   UNL     1       4.351   4.494  19.360  0.00  0.00    +0.000 C 
BRANCH   5  13
ATOM     13  O   UNL     1       2.235   2.879  19.914  0.00  0.00    +0.000 OA
BRANCH  13  15
ATOM     14  C   UNL     1       1.297   2.508  22.079  0.00  0.00    +0.000 C 
ATOM     15  C   UNL     1       1.218   3.342  20.811  0.00  0.00    +0.000 C 
ENDBRANCH  13  15
ENDBRANCH   5  13
ENDBRANCH   1  10
BRANCH   2  16
ATOM     16  C   UNL     1       7.030   8.739  17.577  0.00  0.00    +0.000 C 
BRANCH  16  17
ATOM     17  C   UNL     1       8.376   9.177  18.139  0.00  0.00    +0.000 C 
BRANCH  17  18
ATOM     18  C   UNL     1       8.620  10.669  18.010  0.00  0.00    +0.000 C 
ATOM     19  O   UNL     1       7.832  11.411  17.433  0.00  0.00    +0.000 OA
BRANCH  18  20
ATOM     20  C   UNL     1       9.873  11.221  18.611  0.00  0.00    +0.000 A 
ATOM     21  C   UNL     1      10.997  11.535  17.833  0.00  0.00    +0.000 A 
ATOM     22  C   UNL     1      12.155  12.036  18.432  0.00  0.00    +0.000 A 
ATOM     23  C   UNL     1      12.200  12.231  19.810  0.00  0.00    +0.000 A 
ATOM     24  C   UNL     1      11.087  11.930  20.593  0.00  0.00    +0.000 A 
ATOM     25  C   UNL     1       9.926  11.428  19.997  0.00  0.00    +0.000 A 
ENDBRANCH  18  20
ENDBRANCH  17  18
ENDBRANCH  16  17
ENDBRANCH   2  16
TORSDOF 7
ENDMDL
MODEL 9
REMARK VINA RESULT:      -7.0      5.129      7.921
REMARK  Name = 
REMARK  8 active torsions:
REMARK  status: ('A' for Active; 'I' for Inactive)
REMARK    1  A    between atoms: C_1  and  C_2
REMARK    2  A    between atoms: C_2  and  O_3
REMARK    3  A    between atoms: O_3  and  C_4
REMARK    4  A    between atoms: C_9  and  N_10
REMARK    5  A    between atoms: C_11  and  C_13
REMARK    6  A    between atoms: C_13  and  C_14
REMARK    7  A    between atoms: C_14  and  C_15
REMARK    8  A    between atoms: C_15  and  C_17
REMARK                            x       y       z     vdW  Elec       q    Type
REMARK                         _______ _______ _______ _____ _____    ______ ____
ROOT
ATOM      1  N   UNL     1       3.896   6.143  18.257  0.00  0.00    +0.000 N 
ATOM      2  C   UNL     1       2.968   6.017  19.267  0.00  0.00    +0.000 C 
ATOM      3  O   UNL     1       3.102   5.248  20.212  0.00  0.00    +0.000 OA
ATOM      4  H   UNL     1       3.640   6.680  17.437  0.00  0.00    +0.000 HD
ENDROOT
BRANCH   1  10
ATOM      5  C   UNL     1       6.891   4.761  14.479  0.00  0.00    +0.000 C 
ATOM      6  O   UNL     1       7.793   5.488  14.080  0.00  0.00    +0.000 OA
ATOM      7  N   UNL     1       6.081   5.062  15.555  0.00  0.00    +0.000 N 
ATOM      8  C   UNL     1       6.210   6.360  16.193  0.00  0.00    +0.000 C 
ATOM      9  C   UNL     1       6.298   6.196  17.702  0.00  0.00    +0.000 C 
ATOM     10  C   UNL     1       5.132   5.368  18.253  0.00  0.00    +0.000 C 
ATOM     11  C   UNL     1       4.973   4.044  17.493  0.00  0.00    +0.000 C 
ATOM     12  C   UNL     1       4.946   4.246  15.982  0.00  0.00    +0.000 C 
BRANCH   5  13
ATOM     13  O   UNL     1       6.536   3.599  13.871  0.00  0.00    +0.000 OA
BRANCH  13  15
ATOM     14  C   UNL     1       5.062   3.303  12.016  0.00  0.00    +0.000 C 
ATOM     15  C   UNL     1       6.477   3.657  12.441  0.00  0.00    +0.000 C 
ENDBRANCH  13  15
ENDBRANCH   5  13
ENDBRANCH   1  10
BRANCH   2  16
ATOM     16  C   UNL     1       1.759   6.914  19.099  0.00  0.00    +0.000 C 
BRANCH  16  17
ATOM     17  C   UNL     1       2.171   8.363  19.324  0.00  0.00    +0.000 C 
BRANCH  17  18
ATOM     18  C   UNL     1       1.003   9.329  19.277  0.00  0.00    +0.000 C 
ATOM     19  O   UNL     1       0.561   9.767  18.221  0.00  0.00    +0.000 OA
BRANCH  18  20
ATOM     20  C   UNL     1       0.394   9.745  20.579  0.00  0.00    +0.000 A 
ATOM     21  C   UNL     1       0.066   8.817  21.578  0.00  0.00    +0.000 A 
ATOM     22  C   UNL     1      -0.514   9.242  22.776  0.00  0.00    +0.000 A 
ATOM     23  C   UNL     1      -0.768  10.596  22.987  0.00  0.00    +0.000 A 
ATOM     24  C   UNL     1      -0.440  11.528  22.004  0.00  0.00    +0.000 A 
ATOM     25  C   UNL     1       0.141  11.106  20.804  0.00  0.00    +0.000 A 
ENDBRANCH  18  20
ENDBRANCH  17  18
ENDBRANCH  16  17
ENDBRANCH   2  16
TORSDOF 7
ENDMDL
