MODEL 1
REMARK VINA RESULT:      -7.9      0.000      0.000
REMARK  Name = 
REMARK  11 active torsions:
REMARK  status: ('A' for Active; 'I' for Inactive)
REMARK    1  A    between atoms: C_1  and  O_2
REMARK    2  A    between atoms: O_2  and  C_3
REMARK    3  A    between atoms: C_5  and  C_6
REMARK    4  A    between atoms: N_8  and  S_9
REMARK    5  A    between atoms: S_9  and  C_10
REMARK    6  A    between atoms: C_15  and  C_16
REMARK    7  A    between atoms: C_19  and  O_20
REMARK    8  A    between atoms: O_20  and  C_21
REMARK    9  A    between atoms: C_21  and  C_22
REMARK   10  A    between atoms: C_22  and  C_23
REMARK   11  A    between atoms: C_22  and  C_24
REMARK                            x       y       z     vdW  Elec       q    Type
REMARK                         _______ _______ _______ _____ _____    ______ ____
ROOT
ATOM      1  C   UNL     1       2.291   6.374  19.712  0.00  0.00    +0.000 A 
ATOM      2  C   UNL     1       3.062   5.563  18.884  0.00  0.00    +0.000 A 
ATOM      3  C   UNL     1       3.736   6.074  17.771  0.00  0.00    +0.000 A 
ATOM      4  C   UNL     1       3.544   7.406  17.423  0.00  0.00    +0.000 A 
ATOM      5  C   UNL     1       2.720   8.212  18.197  0.00  0.00    +0.000 A 
ATOM      6  C   UNL     1       2.091   7.738  19.370  0.00  0.00    +0.000 A 
ENDROOT
BRANCH   6   7
ATOM      7  C   UNL     1       1.367   8.700  20.219  0.00  0.00    +0.000 A 
ATOM      8  C   UNL     1       1.382   8.651  21.607  0.00  0.00    +0.000 A 
ATOM      9  N   UNL     1       0.804   9.566  22.412  0.00  0.00    +0.000 NA
ATOM     10  C   UNL     1       0.187  10.626  21.837  0.00  0.00    +0.000 A 
ATOM     11  C   UNL     1       0.063  10.752  20.456  0.00  0.00    +0.000 A 
ATOM     12 CL   UNL     1      -0.667  12.092  19.661  0.00  0.00    +0.000 Cl
ATOM     13  C   UNL     1       0.644   9.766  19.652  0.00  0.00    +0.000 A 
BRANCH  10  14
ATOM     14  O   UNL     1      -0.324  11.583  22.693  0.00  0.00    +0.000 OA
BRANCH  14  15
ATOM     15  C   UNL     1      -1.671  11.255  23.089  0.00  0.00    +0.000 C 
BRANCH  15  16
ATOM     16  C   UNL     1      -2.586  12.487  23.056  0.00  0.00    +0.000 C 
ATOM     17  C   UNL     1      -3.264  12.644  21.695  0.00  0.00    +0.000 C 
ATOM     18  C   UNL     1      -3.638  12.370  24.163  0.00  0.00    +0.000 C 
ENDBRANCH  15  16
ENDBRANCH  14  15
ENDBRANCH  10  14
ENDBRANCH   6   7
BRANCH   3  19
ATOM     19  C   UNL     1       4.698   5.157  17.098  0.00  0.00    +0.000 C 
ATOM     20  O   UNL     1       4.557   3.940  17.185  0.00  0.00    +0.000 OA
ATOM     21  N   UNL     1       5.796   5.753  16.492  0.00  0.00    +0.000 N 
ATOM     22  H   UNL     1       5.937   6.750  16.429  0.00  0.00    +0.000 HD
BRANCH  21  23
ATOM     23  S   UNL     1       7.036   4.915  15.764  0.00  0.00    +0.000 S 
ATOM     24  C   UNL     1       6.176   3.706  14.778  0.00  0.00    +0.000 C 
ATOM     25  O   UNL     1       7.782   5.814  14.924  0.00  0.00    +0.000 OA
ATOM     26  O   UNL     1       7.680   4.215  16.861  0.00  0.00    +0.000 OA
ENDBRANCH  21  23
ENDBRANCH   3  19
BRANCH   1  28
ATOM     27  C   UNL     1       1.848   4.431  21.002  0.00  0.00    +0.000 C 
ATOM     28  O   UNL     1       1.744   5.858  20.868  0.00  0.00    +0.000 OA
ENDBRANCH   1  28
TORSDOF 7
ENDMDL
MODEL 2
REMARK VINA RESULT:      -7.7      0.827      1.142
REMARK  Name = 
REMARK  11 active torsions:
REMARK  status: ('A' for Active; 'I' for Inactive)
REMARK    1  A    between atoms: C_1  and  O_2
REMARK    2  A    between atoms: O_2  and  C_3
REMARK    3  A    between atoms: C_5  and  C_6
REMARK    4  A    between atoms: N_8  and  S_9
REMARK    5  A    between atoms: S_9  and  C_10
REMARK    6  A    between atoms: C_15  and  C_16
REMARK    7  A    between atoms: C_19  and  O_20
REMARK    8  A    between atoms: O_20  and  C_21
REMARK    9  A    between atoms: C_21  and  C_22
REMARK   10  A    between atoms: C_22  and  C_23
REMARK   11  A    between atoms: C_22  and  C_24
REMARK                            x       y       z     vdW  Elec       q    Type
REMARK                         _______ _______ _______ _____ _____    ______ ____
ROOT
ATOM      1  C   UNL     1       2.083   6.428  19.694  0.00  0.00    +0.000 A 
ATOM      2  C   UNL     1       2.841   5.581  18.892  0.00  0.00    +0.000 A 
ATOM      3  C   UNL     1       3.584   6.058  17.809  0.00  0.00    +0.000 A 
ATOM      4  C   UNL     1       3.475   7.400  17.459  0.00  0.00    +0.000 A 
ATOM      5  C   UNL     1       2.664   8.245  18.205  0.00  0.00    +0.000 A 
ATOM      6  C   UNL     1       1.967   7.801  19.351  0.00  0.00    +0.000 A 
ENDROOT
BRANCH   6   7
ATOM      7  C   UNL     1       1.261   8.798  20.176  0.00  0.00    +0.000 A 
ATOM      8  C   UNL     1       1.440   8.912  21.548  0.00  0.00    +0.000 A 
ATOM      9  N   UNL     1       0.878   9.868  22.316  0.00  0.00    +0.000 NA
ATOM     10  C   UNL     1       0.106  10.803  21.713  0.00  0.00    +0.000 A 
ATOM     11  C   UNL     1      -0.188  10.757  20.352  0.00  0.00    +0.000 A 
ATOM     12 CL   UNL     1      -1.123  11.935  19.516  0.00  0.00    +0.000 Cl
ATOM     13  C   UNL     1       0.384   9.731  19.593  0.00  0.00    +0.000 A 
BRANCH  10  14
ATOM     14  O   UNL     1      -0.388  11.812  22.518  0.00  0.00    +0.000 OA
BRANCH  14  15
ATOM     15  C   UNL     1      -1.655  11.438  23.096  0.00  0.00    +0.000 C 
BRANCH  15  16
ATOM     16  C   UNL     1      -2.614  12.634  23.175  0.00  0.00    +0.000 C 
ATOM     17  C   UNL     1      -3.787  12.349  24.113  0.00  0.00    +0.000 C 
ATOM     18  C   UNL     1      -1.846  13.873  23.646  0.00  0.00    +0.000 C 
ENDBRANCH  15  16
ENDBRANCH  14  15
ENDBRANCH  10  14
ENDBRANCH   6   7
BRANCH   3  19
ATOM     19  C   UNL     1       4.522   5.095  17.169  0.00  0.00    +0.000 C 
ATOM     20  O   UNL     1       4.378   3.887  17.337  0.00  0.00    +0.000 OA
ATOM     21  N   UNL     1       5.605   5.644  16.495  0.00  0.00    +0.000 N 
ATOM     22  H   UNL     1       5.749   6.634  16.365  0.00  0.00    +0.000 HD
BRANCH  21  23
ATOM     23  S   UNL     1       6.821   4.754  15.788  0.00  0.00    +0.000 S 
ATOM     24  C   UNL     1       7.824   4.273  17.180  0.00  0.00    +0.000 C 
ATOM     25  O   UNL     1       6.249   3.596  15.154  0.00  0.00    +0.000 OA
ATOM     26  O   UNL     1       7.570   5.730  15.018  0.00  0.00    +0.000 OA
ENDBRANCH  21  23
ENDBRANCH   3  19
BRANCH   1  28
ATOM     27  C   UNL     1       1.457   4.506  20.938  0.00  0.00    +0.000 C 
ATOM     28  O   UNL     1       1.465   5.938  20.825  0.00  0.00    +0.000 OA
ENDBRANCH   1  28
TORSDOF 7
ENDMDL
MODEL 3
REMARK VINA RESULT:      -7.6      3.684      9.793
REMARK  Name = 
REMARK  11 active torsions:
REMARK  status: ('A' for Active; 'I' for Inactive)
REMARK    1  A    between atoms: C_1  and  O_2
REMARK    2  A    between atoms: O_2  and  C_3
REMARK    3  A    between atoms: C_5  and  C_6
REMARK    4  A    between atoms: N_8  and  S_9
REMARK    5  A    between atoms: S_9  and  C_10
REMARK    6  A    between atoms: C_15  and  C_16
REMARK    7  A    between atoms: C_19  and  O_20
REMARK    8  A    between atoms: O_20  and  C_21
REMARK    9  A    between atoms: C_21  and  C_22
REMARK   10  A    between atoms: C_22  and  C_23
REMARK   11  A    between atoms: C_22  and  C_24
REMARK                            x       y       z     vdW  Elec       q    Type
REMARK                         _______ _______ _______ _____ _____    ______ ____
ROOT
ATOM      1  C   UNL     1       1.562   8.837  18.988  0.00  0.00    +0.000 A 
ATOM      2  C   UNL     1       0.879   9.597  19.933  0.00  0.00    +0.000 A 
ATOM      3  C   UNL     1       0.653   9.131  21.232  0.00  0.00    +0.000 A 
ATOM      4  C   UNL     1       1.028   7.831  21.553  0.00  0.00    +0.000 A 
ATOM      5  C   UNL     1       1.645   7.033  20.599  0.00  0.00    +0.000 A 
ATOM      6  C   UNL     1       1.954   7.510  19.305  0.00  0.00    +0.000 A 
ENDROOT
BRANCH   6   7
ATOM      7  C   UNL     1       2.754   6.654  18.411  0.00  0.00    +0.000 A 
ATOM      8  C   UNL     1       3.930   7.076  17.807  0.00  0.00    +0.000 A 
ATOM      9  N   UNL     1       4.730   6.291  17.056  0.00  0.00    +0.000 NA
ATOM     10  C   UNL     1       4.385   4.990  16.897  0.00  0.00    +0.000 A 
ATOM     11  C   UNL     1       3.201   4.469  17.413  0.00  0.00    +0.000 A 
ATOM     12 CL   UNL     1       2.725   2.820  17.287  0.00  0.00    +0.000 Cl
ATOM     13  C   UNL     1       2.378   5.322  18.156  0.00  0.00    +0.000 A 
BRANCH  10  14
ATOM     14  O   UNL     1       5.268   4.198  16.189  0.00  0.00    +0.000 OA
BRANCH  14  15
ATOM     15  C   UNL     1       6.266   5.000  15.527  0.00  0.00    +0.000 C 
BRANCH  15  16
ATOM     16  C   UNL     1       6.811   4.304  14.273  0.00  0.00    +0.000 C 
ATOM     17  C   UNL     1       5.682   3.731  13.415  0.00  0.00    +0.000 C 
ATOM     18  C   UNL     1       7.644   5.298  13.459  0.00  0.00    +0.000 C 
ENDBRANCH  15  16
ENDBRANCH  14  15
ENDBRANCH  10  14
ENDBRANCH   6   7
BRANCH   3  19
ATOM     19  C   UNL     1       0.110  10.117  22.208  0.00  0.00    +0.000 C 
ATOM     20  O   UNL     1       0.285   9.955  23.412  0.00  0.00    +0.000 OA
ATOM     21  N   UNL     1      -0.686  11.127  21.685  0.00  0.00    +0.000 N 
ATOM     22  H   UNL     1      -0.857  11.262  20.700  0.00  0.00    +0.000 HD
BRANCH  21  23
ATOM     23  S   UNL     1      -1.467  12.276  22.601  0.00  0.00    +0.000 S 
ATOM     24  C   UNL     1      -2.255  13.297  21.371  0.00  0.00    +0.000 C 
ATOM     25  O   UNL     1      -2.451  11.631  23.428  0.00  0.00    +0.000 OA
ATOM     26  O   UNL     1      -0.388  13.048  23.191  0.00  0.00    +0.000 OA
ENDBRANCH  21  23
ENDBRANCH   3  19
BRANCH   1  28
ATOM     27  C   UNL     1       2.217  10.775  17.784  0.00  0.00    +0.000 C 
ATOM     28  O   UNL     1       1.872   9.381  17.759  0.00  0.00    +0.000 OA
ENDBRANCH   1  28
TORSDOF 7
ENDMDL
MODEL 4
REMARK VINA RESULT:      -7.6      0.776      1.046
REMARK  Name = 
REMARK  11 active torsions:
REMARK  status: ('A' for Active; 'I' for Inactive)
REMARK    1  A    between atoms: C_1  and  O_2
REMARK    2  A    between atoms: O_2  and  C_3
REMARK    3  A    between atoms: C_5  and  C_6
REMARK    4  A    between atoms: N_8  and  S_9
REMARK    5  A    between atoms: S_9  and  C_10
REMARK    6  A    between atoms: C_15  and  C_16
REMARK    7  A    between atoms: C_19  and  O_20
REMARK    8  A    between atoms: O_20  and  C_21
REMARK    9  A    between atoms: C_21  and  C_22
REMARK   10  A    between atoms: C_22  and  C_23
REMARK   11  A    between atoms: C_22  and  C_24
REMARK                            x       y       z     vdW  Elec       q    Type
REMARK                         _______ _______ _______ _____ _____    ______ ____
ROOT
ATOM      1  C   UNL     1       2.240   6.162  19.775  0.00  0.00    +0.000 A 
ATOM      2  C   UNL     1       2.996   5.313  18.973  0.00  0.00    +0.000 A 
ATOM      3  C   UNL     1       3.740   5.789  17.889  0.00  0.00    +0.000 A 
ATOM      4  C   UNL     1       3.635   7.131  17.541  0.00  0.00    +0.000 A 
ATOM      5  C   UNL     1       2.827   7.978  18.287  0.00  0.00    +0.000 A 
ATOM      6  C   UNL     1       2.129   7.536  19.433  0.00  0.00    +0.000 A 
ENDROOT
BRANCH   6   7
ATOM      7  C   UNL     1       1.426   8.534  20.259  0.00  0.00    +0.000 A 
ATOM      8  C   UNL     1       1.526   8.581  21.643  0.00  0.00    +0.000 A 
ATOM      9  N   UNL     1       0.969   9.533  22.419  0.00  0.00    +0.000 NA
ATOM     10  C   UNL     1       0.285  10.534  21.814  0.00  0.00    +0.000 A 
ATOM     11  C   UNL     1       0.075  10.562  20.437  0.00  0.00    +0.000 A 
ATOM     12 CL   UNL     1      -0.744  11.823  19.601  0.00  0.00    +0.000 Cl
ATOM     13  C   UNL     1       0.638   9.538  19.668  0.00  0.00    +0.000 A 
BRANCH  10  14
ATOM     14  O   UNL     1      -0.204  11.533  22.634  0.00  0.00    +0.000 OA
BRANCH  14  15
ATOM     15  C   UNL     1      -1.531  11.218  23.098  0.00  0.00    +0.000 C 
BRANCH  15  16
ATOM     16  C   UNL     1      -2.386  12.480  23.267  0.00  0.00    +0.000 C 
ATOM     17  C   UNL     1      -1.517  13.728  23.428  0.00  0.00    +0.000 C 
ATOM     18  C   UNL     1      -3.314  12.633  22.057  0.00  0.00    +0.000 C 
ENDBRANCH  15  16
ENDBRANCH  14  15
ENDBRANCH  10  14
ENDBRANCH   6   7
BRANCH   3  19
ATOM     19  C   UNL     1       4.675   4.823  17.248  0.00  0.00    +0.000 C 
ATOM     20  O   UNL     1       4.684   3.646  17.599  0.00  0.00    +0.000 OA
ATOM     21  N   UNL     1       5.588   5.354  16.347  0.00  0.00    +0.000 N 
ATOM     22  H   UNL     1       5.606   6.322  16.063  0.00  0.00    +0.000 HD
BRANCH  21  23
ATOM     23  S   UNL     1       6.778   4.473  15.587  0.00  0.00    +0.000 S 
ATOM     24  C   UNL     1       7.207   5.501  14.196  0.00  0.00    +0.000 C 
ATOM     25  O   UNL     1       7.900   4.333  16.476  0.00  0.00    +0.000 OA
ATOM     26  O   UNL     1       6.082   3.306  15.078  0.00  0.00    +0.000 OA
ENDBRANCH  21  23
ENDBRANCH   3  19
BRANCH   1  28
ATOM     27  C   UNL     1       1.964   4.321  21.247  0.00  0.00    +0.000 C 
ATOM     28  O   UNL     1       1.621   5.674  20.906  0.00  0.00    +0.000 OA
ENDBRANCH   1  28
TORSDOF 7
ENDMDL
MODEL 5
REMARK VINA RESULT:      -7.6      3.607      9.678
REMARK  Name = 
REMARK  11 active torsions:
REMARK  status: ('A' for Active; 'I' for Inactive)
REMARK    1  A    between atoms: C_1  and  O_2
REMARK    2  A    between atoms: O_2  and  C_3
REMARK    3  A    between atoms: C_5  and  C_6
REMARK    4  A    between atoms: N_8  and  S_9
REMARK    5  A    between atoms: S_9  and  C_10
REMARK    6  A    between atoms: C_15  and  C_16
REMARK    7  A    between atoms: C_19  and  O_20
REMARK    8  A    between atoms: O_20  and  C_21
REMARK    9  A    between atoms: C_21  and  C_22
REMARK   10  A    between atoms: C_22  and  C_23
REMARK   11  A    between atoms: C_22  and  C_24
REMARK                            x       y       z     vdW  Elec       q    Type
REMARK                         _______ _______ _______ _____ _____    ______ ____
ROOT
ATOM      1  C   UNL     1       2.405   6.039  20.259  0.00  0.00    +0.000 A 
ATOM      2  C   UNL     1       1.612   6.938  20.967  0.00  0.00    +0.000 A 
ATOM      3  C   UNL     1       1.291   8.199  20.458  0.00  0.00    +0.000 A 
ATOM      4  C   UNL     1       1.870   8.607  19.260  0.00  0.00    +0.000 A 
ATOM      5  C   UNL     1       2.722   7.751  18.577  0.00  0.00    +0.000 A 
ATOM      6  C   UNL     1       2.998   6.442  19.033  0.00  0.00    +0.000 A 
ENDROOT
BRANCH   6   7
ATOM      7  C   UNL     1       3.782   5.544  18.166  0.00  0.00    +0.000 A 
ATOM      8  C   UNL     1       3.213   4.761  17.171  0.00  0.00    +0.000 A 
ATOM      9  N   UNL     1       3.910   3.998  16.304  0.00  0.00    +0.000 NA
ATOM     10  C   UNL     1       5.262   4.011  16.383  0.00  0.00    +0.000 A 
ATOM     11  C   UNL     1       5.940   4.717  17.374  0.00  0.00    +0.000 A 
ATOM     12 CL   UNL     1       7.653   4.813  17.505  0.00  0.00    +0.000 Cl
ATOM     13  C   UNL     1       5.182   5.469  18.278  0.00  0.00    +0.000 A 
BRANCH  10  14
ATOM     14  O   UNL     1       5.945   3.281  15.429  0.00  0.00    +0.000 OA
BRANCH  14  15
ATOM     15  C   UNL     1       6.362   4.122  14.336  0.00  0.00    +0.000 C 
BRANCH  15  16
ATOM     16  C   UNL     1       6.219   3.407  12.986  0.00  0.00    +0.000 C 
ATOM     17  C   UNL     1       4.791   3.508  12.447  0.00  0.00    +0.000 C 
ATOM     18  C   UNL     1       7.208   4.009  11.982  0.00  0.00    +0.000 C 
ENDBRANCH  15  16
ENDBRANCH  14  15
ENDBRANCH  10  14
ENDBRANCH   6   7
BRANCH   3  19
ATOM     19  C   UNL     1       0.262   8.976  21.204  0.00  0.00    +0.000 C 
ATOM     20  O   UNL     1      -0.765   8.427  21.592  0.00  0.00    +0.000 OA
ATOM     21  N   UNL     1       0.482  10.342  21.315  0.00  0.00    +0.000 N 
ATOM     22  H   UNL     1       1.312  10.812  20.984  0.00  0.00    +0.000 HD
BRANCH  21  23
ATOM     23  S   UNL     1      -0.579  11.410  22.025  0.00  0.00    +0.000 S 
ATOM     24  C   UNL     1      -1.780  11.692  20.740  0.00  0.00    +0.000 C 
ATOM     25  O   UNL     1      -1.194  10.777  23.161  0.00  0.00    +0.000 OA
ATOM     26  O   UNL     1       0.197  12.627  22.181  0.00  0.00    +0.000 OA
ENDBRANCH  21  23
ENDBRANCH   3  19
BRANCH   1  28
ATOM     27  C   UNL     1       1.442   3.908  20.664  0.00  0.00    +0.000 C 
ATOM     28  O   UNL     1       2.596   4.761  20.739  0.00  0.00    +0.000 OA
ENDBRANCH   1  28
TORSDOF 7
ENDMDL
MODEL 6
REMARK VINA RESULT:      -7.5      3.635      9.698
REMARK  Name = 
REMARK  11 active torsions:
REMARK  status: ('A' for Active; 'I' for Inactive)
REMARK    1  A    between atoms: C_1  and  O_2
REMARK    2  A    between atoms: O_2  and  C_3
REMARK    3  A    between atoms: C_5  and  C_6
REMARK    4  A    between atoms: N_8  and  S_9
REMARK    5  A    between atoms: S_9  and  C_10
REMARK    6  A    between atoms: C_15  and  C_16
REMARK    7  A    between atoms: C_19  and  O_20
REMARK    8  A    between atoms: O_20  and  C_21
REMARK    9  A    between atoms: C_21  and  C_22
REMARK   10  A    between atoms: C_22  and  C_23
REMARK   11  A    between atoms: C_22  and  C_24
REMARK                            x       y       z     vdW  Elec       q    Type
REMARK                         _______ _______ _______ _____ _____    ______ ____
ROOT
ATOM      1  C   UNL     1       2.305   6.465  20.175  0.00  0.00    +0.000 A 
ATOM      2  C   UNL     1       1.506   7.357  20.883  0.00  0.00    +0.000 A 
ATOM      3  C   UNL     1       1.130   8.594  20.351  0.00  0.00    +0.000 A 
ATOM      4  C   UNL     1       1.657   8.986  19.126  0.00  0.00    +0.000 A 
ATOM      5  C   UNL     1       2.515   8.138  18.439  0.00  0.00    +0.000 A 
ATOM      6  C   UNL     1       2.846   6.851  18.920  0.00  0.00    +0.000 A 
ENDROOT
BRANCH   6   7
ATOM      7  C   UNL     1       3.631   5.955  18.053  0.00  0.00    +0.000 A 
ATOM      8  C   UNL     1       3.096   4.830  17.440  0.00  0.00    +0.000 A 
ATOM      9  N   UNL     1       3.762   4.040  16.572  0.00  0.00    +0.000 NA
ATOM     10  C   UNL     1       5.033   4.376  16.247  0.00  0.00    +0.000 A 
ATOM     11  C   UNL     1       5.691   5.451  16.839  0.00  0.00    +0.000 A 
ATOM     12 CL   UNL     1       7.286   5.958  16.439  0.00  0.00    +0.000 Cl
ATOM     13  C   UNL     1       4.980   6.227  17.761  0.00  0.00    +0.000 A 
BRANCH  10  14
ATOM     14  O   UNL     1       5.656   3.591  15.295  0.00  0.00    +0.000 OA
BRANCH  14  15
ATOM     15  C   UNL     1       5.425   4.106  13.969  0.00  0.00    +0.000 C 
BRANCH  15  16
ATOM     16  C   UNL     1       6.421   3.527  12.956  0.00  0.00    +0.000 C 
ATOM     17  C   UNL     1       5.704   2.811  11.811  0.00  0.00    +0.000 C 
ATOM     18  C   UNL     1       7.303   4.653  12.408  0.00  0.00    +0.000 C 
ENDBRANCH  15  16
ENDBRANCH  14  15
ENDBRANCH  10  14
ENDBRANCH   6   7
BRANCH   3  19
ATOM     19  C   UNL     1       0.100   9.359  21.109  0.00  0.00    +0.000 C 
ATOM     20  O   UNL     1      -0.862   8.778  21.603  0.00  0.00    +0.000 OA
ATOM     21  N   UNL     1       0.236  10.740  21.110  0.00  0.00    +0.000 N 
ATOM     22  H   UNL     1       1.010  11.234  20.692  0.00  0.00    +0.000 HD
BRANCH  21  23
ATOM     23  S   UNL     1      -0.847  11.790  21.814  0.00  0.00    +0.000 S 
ATOM     24  C   UNL     1       0.004  13.353  21.735  0.00  0.00    +0.000 C 
ATOM     25  O   UNL     1      -2.048  11.828  21.022  0.00  0.00    +0.000 OA
ATOM     26  O   UNL     1      -0.885  11.376  23.205  0.00  0.00    +0.000 OA
ENDBRANCH  21  23
ENDBRANCH   3  19
BRANCH   1  28
ATOM     27  C   UNL     1       1.415   4.326  20.694  0.00  0.00    +0.000 C 
ATOM     28  O   UNL     1       2.551   5.206  20.682  0.00  0.00    +0.000 OA
ENDBRANCH   1  28
TORSDOF 7
ENDMDL
MODEL 7
REMARK VINA RESULT:      -7.4      3.528      9.705
REMARK  Name = 
REMARK  11 active torsions:
REMARK  status: ('A' for Active; 'I' for Inactive)
REMARK    1  A    between atoms: C_1  and  O_2
REMARK    2  A    between atoms: O_2  and  C_3
REMARK    3  A    between atoms: C_5  and  C_6
REMARK    4  A    between atoms: N_8  and  S_9
REMARK    5  A    between atoms: S_9  and  C_10
REMARK    6  A    between atoms: C_15  and  C_16
REMARK    7  A    between atoms: C_19  and  O_20
REMARK    8  A    between atoms: O_20  and  C_21
REMARK    9  A    between atoms: C_21  and  C_22
REMARK   10  A    between atoms: C_22  and  C_23
REMARK   11  A    between atoms: C_22  and  C_24
REMARK                            x       y       z     vdW  Elec       q    Type
REMARK                         _______ _______ _______ _____ _____    ______ ____
ROOT
ATOM      1  C   UNL     1       2.458   6.767  19.778  0.00  0.00    +0.000 A 
ATOM      2  C   UNL     1       1.699   7.680  20.504  0.00  0.00    +0.000 A 
ATOM      3  C   UNL     1       1.227   8.866  19.935  0.00  0.00    +0.000 A 
ATOM      4  C   UNL     1       1.618   9.192  18.641  0.00  0.00    +0.000 A 
ATOM      5  C   UNL     1       2.436   8.327  17.927  0.00  0.00    +0.000 A 
ATOM      6  C   UNL     1       2.860   7.086  18.454  0.00  0.00    +0.000 A 
ENDROOT
BRANCH   6   7
ATOM      7  C   UNL     1       3.589   6.158  17.571  0.00  0.00    +0.000 A 
ATOM      8  C   UNL     1       4.559   6.573  16.669  0.00  0.00    +0.000 A 
ATOM      9  N   UNL     1       5.306   5.742  15.911  0.00  0.00    +0.000 NA
ATOM     10  C   UNL     1       5.123   4.408  16.054  0.00  0.00    +0.000 A 
ATOM     11  C   UNL     1       4.142   3.878  16.889  0.00  0.00    +0.000 A 
ATOM     12 CL   UNL     1       3.888   2.197  17.150  0.00  0.00    +0.000 Cl
ATOM     13  C   UNL     1       3.363   4.771  17.632  0.00  0.00    +0.000 A 
BRANCH  10  14
ATOM     14  O   UNL     1       5.960   3.587  15.321  0.00  0.00    +0.000 OA
BRANCH  14  15
ATOM     15  C   UNL     1       6.558   4.306  14.224  0.00  0.00    +0.000 C 
BRANCH  15  16
ATOM     16  C   UNL     1       6.370   3.565  12.894  0.00  0.00    +0.000 C 
ATOM     17  C   UNL     1       4.907   3.578  12.447  0.00  0.00    +0.000 C 
ATOM     18  C   UNL     1       7.258   4.207  11.823  0.00  0.00    +0.000 C 
ENDBRANCH  15  16
ENDBRANCH  14  15
ENDBRANCH  10  14
ENDBRANCH   6   7
BRANCH   3  19
ATOM     19  C   UNL     1       0.249   9.648  20.742  0.00  0.00    +0.000 C 
ATOM     20  O   UNL     1      -0.764   9.108  21.179  0.00  0.00    +0.000 OA
ATOM     21  N   UNL     1       0.491  11.010  20.854  0.00  0.00    +0.000 N 
ATOM     22  H   UNL     1       1.308  11.473  20.484  0.00  0.00    +0.000 HD
BRANCH  21  23
ATOM     23  S   UNL     1      -0.518  12.083  21.628  0.00  0.00    +0.000 S 
ATOM     24  C   UNL     1      -1.052  11.165  23.059  0.00  0.00    +0.000 C 
ATOM     25  O   UNL     1       0.240  13.240  22.025  0.00  0.00    +0.000 OA
ATOM     26  O   UNL     1      -1.654  12.208  20.733  0.00  0.00    +0.000 OA
ENDBRANCH  21  23
ENDBRANCH   3  19
BRANCH   1  28
ATOM     27  C   UNL     1       1.700   4.816  20.898  0.00  0.00    +0.000 C 
ATOM     28  O   UNL     1       2.798   5.553  20.336  0.00  0.00    +0.000 OA
ENDBRANCH   1  28
TORSDOF 7
ENDMDL
MODEL 8
REMARK VINA RESULT:      -7.4      1.424      1.705
REMARK  Name = 
REMARK  11 active torsions:
REMARK  status: ('A' for Active; 'I' for Inactive)
REMARK    1  A    between atoms: C_1  and  O_2
REMARK    2  A    between atoms: O_2  and  C_3
REMARK    3  A    between atoms: C_5  and  C_6
REMARK    4  A    between atoms: N_8  and  S_9
REMARK    5  A    between atoms: S_9  and  C_10
REMARK    6  A    between atoms: C_15  and  C_16
REMARK    7  A    between atoms: C_19  and  O_20
REMARK    8  A    between atoms: O_20  and  C_21
REMARK    9  A    between atoms: C_21  and  C_22
REMARK   10  A    between atoms: C_22  and  C_23
REMARK   11  A    between atoms: C_22  and  C_24
REMARK                            x       y       z     vdW  Elec       q    Type
REMARK                         _______ _______ _______ _____ _____    ______ ____
ROOT
ATOM      1  C   UNL     1       2.281   6.511  19.565  0.00  0.00    +0.000 A 
ATOM      2  C   UNL     1       3.131   5.665  18.859  0.00  0.00    +0.000 A 
ATOM      3  C   UNL     1       3.886   6.116  17.772  0.00  0.00    +0.000 A 
ATOM      4  C   UNL     1       3.700   7.417  17.319  0.00  0.00    +0.000 A 
ATOM      5  C   UNL     1       2.801   8.253  17.966  0.00  0.00    +0.000 A 
ATOM      6  C   UNL     1       2.086   7.844  19.115  0.00  0.00    +0.000 A 
ENDROOT
BRANCH   6   7
ATOM      7  C   UNL     1       1.277   8.844  19.834  0.00  0.00    +0.000 A 
ATOM      8  C   UNL     1       0.582   9.861  19.195  0.00  0.00    +0.000 A 
ATOM      9  N   UNL     1      -0.236  10.737  19.815  0.00  0.00    +0.000 NA
ATOM     10  C   UNL     1      -0.422  10.605  21.150  0.00  0.00    +0.000 A 
ATOM     11  C   UNL     1       0.264   9.656  21.904  0.00  0.00    +0.000 A 
ATOM     12 CL   UNL     1       0.042   9.406  23.592  0.00  0.00    +0.000 Cl
ATOM     13  C   UNL     1       1.131   8.788  21.233  0.00  0.00    +0.000 A 
BRANCH  10  14
ATOM     14  O   UNL     1      -1.327  11.469  21.737  0.00  0.00    +0.000 OA
BRANCH  14  15
ATOM     15  C   UNL     1      -0.967  12.842  21.489  0.00  0.00    +0.000 C 
BRANCH  15  16
ATOM     16  C   UNL     1      -1.735  13.802  22.407  0.00  0.00    +0.000 C 
ATOM     17  C   UNL     1      -2.606  13.044  23.408  0.00  0.00    +0.000 C 
ATOM     18  C   UNL     1      -0.742  14.705  23.146  0.00  0.00    +0.000 C 
ENDBRANCH  15  16
ENDBRANCH  14  15
ENDBRANCH  10  14
ENDBRANCH   6   7
BRANCH   3  19
ATOM     19  C   UNL     1       4.916   5.178  17.244  0.00  0.00    +0.000 C 
ATOM     20  O   UNL     1       5.007   4.040  17.695  0.00  0.00    +0.000 OA
ATOM     21  N   UNL     1       5.815   5.705  16.326  0.00  0.00    +0.000 N 
ATOM     22  H   UNL     1       5.767   6.644  15.960  0.00  0.00    +0.000 HD
BRANCH  21  23
ATOM     23  S   UNL     1       7.097   4.864  15.679  0.00  0.00    +0.000 S 
ATOM     24  C   UNL     1       6.300   3.520  14.821  0.00  0.00    +0.000 C 
ATOM     25  O   UNL     1       7.796   5.712  14.750  0.00  0.00    +0.000 OA
ATOM     26  O   UNL     1       7.776   4.309  16.836  0.00  0.00    +0.000 OA
ENDBRANCH  21  23
ENDBRANCH   3  19
BRANCH   1  28
ATOM     27  C   UNL     1       1.415   4.645  20.748  0.00  0.00    +0.000 C 
ATOM     28  O   UNL     1       1.650   6.061  20.705  0.00  0.00    +0.000 OA
ENDBRANCH   1  28
TORSDOF 7
ENDMDL
MODEL 9
REMARK VINA RESULT:      -7.4      1.302      1.556
REMARK  Name = 
REMARK  11 active torsions:
REMARK  status: ('A' for Active; 'I' for Inactive)
REMARK    1  A    between atoms: C_1  and  O_2
REMARK    2  A    between atoms: O_2  and  C_3
REMARK    3  A    between atoms: C_5  and  C_6
REMARK    4  A    between atoms: N_8  and  S_9
REMARK    5  A    between atoms: S_9  and  C_10
REMARK    6  A    between atoms: C_15  and  C_16
REMARK    7  A    between atoms: C_19  and  O_20
REMARK    8  A    between atoms: O_20  and  C_21
REMARK    9  A    between atoms: C_21  and  C_22
REMARK   10  A    between atoms: C_22  and  C_23
REMARK   11  A    between atoms: C_22  and  C_24
REMARK                            x       y       z     vdW  Elec       q    Type
REMARK                         _______ _______ _______ _____ _____    ______ ____
ROOT
ATOM      1  C   UNL     1       2.296   6.607  19.535  0.00  0.00    +0.000 A 
ATOM      2  C   UNL     1       3.113   5.738  18.819  0.00  0.00    +0.000 A 
ATOM      3  C   UNL     1       3.860   6.166  17.717  0.00  0.00    +0.000 A 
ATOM      4  C   UNL     1       3.697   7.469  17.261  0.00  0.00    +0.000 A 
ATOM      5  C   UNL     1       2.829   8.329  17.920  0.00  0.00    +0.000 A 
ATOM      6  C   UNL     1       2.125   7.942  19.082  0.00  0.00    +0.000 A 
ENDROOT
BRANCH   6   7
ATOM      7  C   UNL     1       1.352   8.964  19.810  0.00  0.00    +0.000 A 
ATOM      8  C   UNL     1       0.753  10.051  19.188  0.00  0.00    +0.000 A 
ATOM      9  N   UNL     1      -0.032  10.953  19.811  0.00  0.00    +0.000 NA
ATOM     10  C   UNL     1      -0.284  10.781  21.131  0.00  0.00    +0.000 A 
ATOM     11  C   UNL     1       0.305   9.758  21.871  0.00  0.00    +0.000 A 
ATOM     12 CL   UNL     1      -0.005   9.456  23.536  0.00  0.00    +0.000 Cl
ATOM     13  C   UNL     1       1.143   8.862  21.198  0.00  0.00    +0.000 A 
BRANCH  10  14
ATOM     14  O   UNL     1      -1.156  11.678  21.717  0.00  0.00    +0.000 OA
BRANCH  14  15
ATOM     15  C   UNL     1      -2.132  12.146  20.766  0.00  0.00    +0.000 C 
BRANCH  15  16
ATOM     16  C   UNL     1      -3.143  13.100  21.417  0.00  0.00    +0.000 C 
ATOM     17  C   UNL     1      -4.366  13.315  20.523  0.00  0.00    +0.000 C 
ATOM     18  C   UNL     1      -3.572  12.537  22.776  0.00  0.00    +0.000 C 
ENDBRANCH  15  16
ENDBRANCH  14  15
ENDBRANCH  10  14
ENDBRANCH   6   7
BRANCH   3  19
ATOM     19  C   UNL     1       4.858   5.202  17.175  0.00  0.00    +0.000 C 
ATOM     20  O   UNL     1       4.929   4.063  17.630  0.00  0.00    +0.000 OA
ATOM     21  N   UNL     1       5.754   5.703  16.240  0.00  0.00    +0.000 N 
ATOM     22  H   UNL     1       5.722   6.641  15.871  0.00  0.00    +0.000 HD
BRANCH  21  23
ATOM     23  S   UNL     1       7.004   4.829  15.576  0.00  0.00    +0.000 S 
ATOM     24  C   UNL     1       6.161   3.506  14.732  0.00  0.00    +0.000 C 
ATOM     25  O   UNL     1       7.711   5.658  14.635  0.00  0.00    +0.000 OA
ATOM     26  O   UNL     1       7.686   4.259  16.724  0.00  0.00    +0.000 OA
ENDBRANCH  21  23
ENDBRANCH   3  19
BRANCH   1  28
ATOM     27  C   UNL     1       1.515   4.754  20.795  0.00  0.00    +0.000 C 
ATOM     28  O   UNL     1       1.674   6.177  20.688  0.00  0.00    +0.000 OA
ENDBRANCH   1  28
TORSDOF 7
ENDMDL
