MODEL 1
REMARK VINA RESULT:      -4.5      0.000      0.000
REMARK  Name = 
REMARK  6 active torsions:
REMARK  status: ('A' for Active; 'I' for Inactive)
REMARK    1  A    between atoms: C_1  and  N_2
REMARK    2  A    between atoms: C_3  and  C_5
REMARK    3  A    between atoms: C_5  and  C_6
REMARK    4  A    between atoms: C_6  and  C_7
REMARK    5  A    between atoms: C_7  and  C_8
REMARK    6  A    between atoms: C_8  and  N_9
REMARK                            x       y       z     vdW  Elec       q    Type
REMARK                         _______ _______ _______ _____ _____    ______ ____
ROOT
ATOM      1  C   UNL     1       6.277   4.109  15.950  0.00  0.00    +0.000 C 
ENDROOT
BRANCH   1   4
ATOM      2  C   UNL     1       6.614   3.650  12.216  0.00  0.00    +0.000 C 
ATOM      3  N   UNL     1       6.227   3.538  13.599  0.00  0.00    +0.000 N 
ATOM      4  C   UNL     1       6.776   4.379  14.543  0.00  0.00    +0.000 C 
ATOM      5  O   UNL     1       7.596   5.248  14.269  0.00  0.00    +0.000 OA
ATOM      6  H   UNL     1       5.556   2.834  13.871  0.00  0.00    +0.000 HD
ENDBRANCH   1   4
BRANCH   1   7
ATOM      7  C   UNL     1       5.109   5.028  16.314  0.00  0.00    +0.000 C 
BRANCH   7   8
ATOM      8  C   UNL     1       5.381   5.943  17.510  0.00  0.00    +0.000 C 
BRANCH   8   9
ATOM      9  C   UNL     1       6.861   6.268  17.696  0.00  0.00    +0.000 C 
BRANCH   9  10
ATOM     10  N   UNL     1       7.171   7.494  16.947  0.00  0.00    +0.000 NA
ATOM     11  C   UNL     1       7.774   8.297  17.553  0.00  0.00    +0.000 C 
ATOM     12  S   UNL     1       8.585   9.390  18.379  0.00  0.00    +0.000 S 
ENDBRANCH   9  10
ENDBRANCH   8   9
ENDBRANCH   7   8
ENDBRANCH   1   7
TORSDOF 5
ENDMDL
MODEL 2
REMARK VINA RESULT:      -4.5      3.802      4.520
REMARK  Name = 
REMARK  6 active torsions:
REMARK  status: ('A' for Active; 'I' for Inactive)
REMARK    1  A    between atoms: C_1  and  N_2
REMARK    2  A    between atoms: C_3  and  C_5
REMARK    3  A    between atoms: C_5  and  C_6
REMARK    4  A    between atoms: C_6  and  C_7
REMARK    5  A    between atoms: C_7  and  C_8
REMARK    6  A    between atoms: C_8  and  N_9
REMARK                            x       y       z     vdW  Elec       q    Type
REMARK                         _______ _______ _______ _____ _____    ______ ____
ROOT
ATOM      1  C   UNL     1       5.764   3.832  15.846  0.00  0.00    +0.000 C 
ENDROOT
BRANCH   1   4
ATOM      2  C   UNL     1       6.726   3.728  12.194  0.00  0.00    +0.000 C 
ATOM      3  N   UNL     1       6.222   3.414  13.507  0.00  0.00    +0.000 N 
ATOM      4  C   UNL     1       6.322   4.334  14.527  0.00  0.00    +0.000 C 
ATOM      5  O   UNL     1       6.826   5.442  14.382  0.00  0.00    +0.000 OA
ATOM      6  H   UNL     1       5.800   2.511  13.673  0.00  0.00    +0.000 HD
ENDBRANCH   1   4
BRANCH   1   7
ATOM      7  C   UNL     1       4.863   4.877  16.506  0.00  0.00    +0.000 C 
BRANCH   7   8
ATOM      8  C   UNL     1       3.987   4.328  17.633  0.00  0.00    +0.000 C 
BRANCH   8   9
ATOM      9  C   UNL     1       2.938   3.329  17.150  0.00  0.00    +0.000 C 
BRANCH   9  10
ATOM     10  N   UNL     1       1.607   3.832  17.518  0.00  0.00    +0.000 NA
ATOM     11  C   UNL     1       1.408   3.887  18.673  0.00  0.00    +0.000 C 
ATOM     12  S   UNL     1       1.135   3.953  20.240  0.00  0.00    +0.000 S 
ENDBRANCH   9  10
ENDBRANCH   8   9
ENDBRANCH   7   8
ENDBRANCH   1   7
TORSDOF 5
ENDMDL
MODEL 3
REMARK VINA RESULT:      -4.5      4.471      5.747
REMARK  Name = 
REMARK  6 active torsions:
REMARK  status: ('A' for Active; 'I' for Inactive)
REMARK    1  A    between atoms: C_1  and  N_2
REMARK    2  A    between atoms: C_3  and  C_5
REMARK    3  A    between atoms: C_5  and  C_6
REMARK    4  A    between atoms: C_6  and  C_7
REMARK    5  A    between atoms: C_7  and  C_8
REMARK    6  A    between atoms: C_8  and  N_9
REMARK                            x       y       z     vdW  Elec       q    Type
REMARK                         _______ _______ _______ _____ _____    ______ ____
ROOT
ATOM      1  C   UNL     1       5.600   3.860  16.379  0.00  0.00    +0.000 C 
ENDROOT
BRANCH   1   4
ATOM      2  C   UNL     1       7.706   5.505  19.050  0.00  0.00    +0.000 C 
ATOM      3  N   UNL     1       6.638   4.876  18.315  0.00  0.00    +0.000 N 
ATOM      4  C   UNL     1       6.833   4.482  17.009  0.00  0.00    +0.000 C 
ATOM      5  O   UNL     1       7.895   4.633  16.416  0.00  0.00    +0.000 OA
ATOM      6  H   UNL     1       5.744   4.734  18.763  0.00  0.00    +0.000 HD
ENDBRANCH   1   4
BRANCH   1   7
ATOM      7  C   UNL     1       4.316   4.489  16.925  0.00  0.00    +0.000 C 
BRANCH   7   8
ATOM      8  C   UNL     1       3.308   3.479  17.475  0.00  0.00    +0.000 C 
BRANCH   8   9
ATOM      9  C   UNL     1       1.902   4.054  17.632  0.00  0.00    +0.000 C 
BRANCH   9  10
ATOM     10  N   UNL     1       1.057   3.052  18.297  0.00  0.00    +0.000 NA
ATOM     11  C   UNL     1       1.209   2.978  19.458  0.00  0.00    +0.000 C 
ATOM     12  S   UNL     1       1.420   2.873  21.032  0.00  0.00    +0.000 S 
ENDBRANCH   9  10
ENDBRANCH   8   9
ENDBRANCH   7   8
ENDBRANCH   1   7
TORSDOF 5
ENDMDL
MODEL 4
REMARK VINA RESULT:      -4.4      3.148      3.517
REMARK  Name = 
REMARK  6 active torsions:
REMARK  status: ('A' for Active; 'I' for Inactive)
REMARK    1  A    between atoms: C_1  and  N_2
REMARK    2  A    between atoms: C_3  and  C_5
REMARK    3  A    between atoms: C_5  and  C_6
REMARK    4  A    between atoms: C_6  and  C_7
REMARK    5  A    between atoms: C_7  and  C_8
REMARK    6  A    between atoms: C_8  and  N_9
REMARK                            x       y       z     vdW  Elec       q    Type
REMARK                         _______ _______ _______ _____ _____    ______ ____
ROOT
ATOM      1  C   UNL     1       6.580   4.815  16.196  0.00  0.00    +0.000 C 
ENDROOT
BRANCH   1   4
ATOM      2  C   UNL     1       6.422   3.555  12.638  0.00  0.00    +0.000 C 
ATOM      3  N   UNL     1       6.206   3.768  14.047  0.00  0.00    +0.000 N 
ATOM      4  C   UNL     1       6.914   4.741  14.718  0.00  0.00    +0.000 C 
ATOM      5  O   UNL     1       7.740   5.464  14.172  0.00  0.00    +0.000 OA
ATOM      6  H   UNL     1       5.536   3.194  14.538  0.00  0.00    +0.000 HD
ENDBRANCH   1   4
BRANCH   1   7
ATOM      7  C   UNL     1       5.068   4.800  16.429  0.00  0.00    +0.000 C 
BRANCH   7   8
ATOM      8  C   UNL     1       4.599   3.739  17.427  0.00  0.00    +0.000 C 
BRANCH   8   9
ATOM      9  C   UNL     1       4.980   4.058  18.871  0.00  0.00    +0.000 C 
BRANCH   9  10
ATOM     10  N   UNL     1       4.362   5.337  19.248  0.00  0.00    +0.000 NA
ATOM     11  C   UNL     1       3.336   5.236  19.808  0.00  0.00    +0.000 C 
ATOM     12  S   UNL     1       1.939   5.100  20.560  0.00  0.00    +0.000 S 
ENDBRANCH   9  10
ENDBRANCH   8   9
ENDBRANCH   7   8
ENDBRANCH   1   7
TORSDOF 5
ENDMDL
MODEL 5
REMARK VINA RESULT:      -4.4      3.226      4.328
REMARK  Name = 
REMARK  6 active torsions:
REMARK  status: ('A' for Active; 'I' for Inactive)
REMARK    1  A    between atoms: C_1  and  N_2
REMARK    2  A    between atoms: C_3  and  C_5
REMARK    3  A    between atoms: C_5  and  C_6
REMARK    4  A    between atoms: C_6  and  C_7
REMARK    5  A    between atoms: C_7  and  C_8
REMARK    6  A    between atoms: C_8  and  N_9
REMARK                            x       y       z     vdW  Elec       q    Type
REMARK                         _______ _______ _______ _____ _____    ______ ____
ROOT
ATOM      1  C   UNL     1       6.106   4.034  16.076  0.00  0.00    +0.000 C 
ENDROOT
BRANCH   1   4
ATOM      2  C   UNL     1       7.451   7.271  17.485  0.00  0.00    +0.000 C 
ATOM      3  N   UNL     1       6.766   6.017  17.295  0.00  0.00    +0.000 N 
ATOM      4  C   UNL     1       6.913   5.318  16.116  0.00  0.00    +0.000 C 
ATOM      5  O   UNL     1       7.617   5.707  15.191  0.00  0.00    +0.000 OA
ATOM      6  H   UNL     1       6.174   5.659  18.030  0.00  0.00    +0.000 HD
ENDBRANCH   1   4
BRANCH   1   7
ATOM      7  C   UNL     1       4.635   4.288  16.410  0.00  0.00    +0.000 C 
BRANCH   7   8
ATOM      8  C   UNL     1       4.081   3.391  17.520  0.00  0.00    +0.000 C 
BRANCH   8   9
ATOM      9  C   UNL     1       4.722   3.651  18.882  0.00  0.00    +0.000 C 
BRANCH   9  10
ATOM     10  N   UNL     1       4.418   5.031  19.287  0.00  0.00    +0.000 NA
ATOM     11  C   UNL     1       3.371   5.170  19.796  0.00  0.00    +0.000 C 
ATOM     12  S   UNL     1       1.946   5.362  20.480  0.00  0.00    +0.000 S 
ENDBRANCH   9  10
ENDBRANCH   8   9
ENDBRANCH   7   8
ENDBRANCH   1   7
TORSDOF 5
ENDMDL
MODEL 6
REMARK VINA RESULT:      -4.4      3.006      3.370
REMARK  Name = 
REMARK  6 active torsions:
REMARK  status: ('A' for Active; 'I' for Inactive)
REMARK    1  A    between atoms: C_1  and  N_2
REMARK    2  A    between atoms: C_3  and  C_5
REMARK    3  A    between atoms: C_5  and  C_6
REMARK    4  A    between atoms: C_6  and  C_7
REMARK    5  A    between atoms: C_7  and  C_8
REMARK    6  A    between atoms: C_8  and  N_9
REMARK                            x       y       z     vdW  Elec       q    Type
REMARK                         _______ _______ _______ _____ _____    ______ ____
ROOT
ATOM      1  C   UNL     1       5.918   4.266  15.807  0.00  0.00    +0.000 C 
ENDROOT
BRANCH   1   4
ATOM      2  C   UNL     1       6.794   3.602  12.193  0.00  0.00    +0.000 C 
ATOM      3  N   UNL     1       6.199   3.576  13.505  0.00  0.00    +0.000 N 
ATOM      4  C   UNL     1       6.635   4.445  14.481  0.00  0.00    +0.000 C 
ATOM      5  O   UNL     1       7.524   5.268  14.296  0.00  0.00    +0.000 OA
ATOM      6  H   UNL     1       5.464   2.912  13.703  0.00  0.00    +0.000 HD
ENDBRANCH   1   4
BRANCH   1   7
ATOM      7  C   UNL     1       5.214   5.554  16.239  0.00  0.00    +0.000 C 
BRANCH   7   8
ATOM      8  C   UNL     1       5.853   6.243  17.446  0.00  0.00    +0.000 C 
BRANCH   8   9
ATOM      9  C   UNL     1       5.989   5.328  18.661  0.00  0.00    +0.000 C 
BRANCH   9  10
ATOM     10  N   UNL     1       4.648   5.060  19.199  0.00  0.00    +0.000 NA
ATOM     11  C   UNL     1       4.445   3.935  19.464  0.00  0.00    +0.000 C 
ATOM     12  S   UNL     1       4.165   2.408  19.815  0.00  0.00    +0.000 S 
ENDBRANCH   9  10
ENDBRANCH   8   9
ENDBRANCH   7   8
ENDBRANCH   1   7
TORSDOF 5
ENDMDL
MODEL 7
REMARK VINA RESULT:      -4.4      4.015      5.144
REMARK  Name = 
REMARK  6 active torsions:
REMARK  status: ('A' for Active; 'I' for Inactive)
REMARK    1  A    between atoms: C_1  and  N_2
REMARK    2  A    between atoms: C_3  and  C_5
REMARK    3  A    between atoms: C_5  and  C_6
REMARK    4  A    between atoms: C_6  and  C_7
REMARK    5  A    between atoms: C_7  and  C_8
REMARK    6  A    between atoms: C_8  and  N_9
REMARK                            x       y       z     vdW  Elec       q    Type
REMARK                         _______ _______ _______ _____ _____    ______ ____
ROOT
ATOM      1  C   UNL     1       5.550   5.083  15.835  0.00  0.00    +0.000 C 
ENDROOT
BRANCH   1   4
ATOM      2  C   UNL     1       7.679   7.691  17.549  0.00  0.00    +0.000 C 
ATOM      3  N   UNL     1       6.628   6.998  16.846  0.00  0.00    +0.000 N 
ATOM      4  C   UNL     1       6.731   5.646  16.604  0.00  0.00    +0.000 C 
ATOM      5  O   UNL     1       7.689   4.972  16.966  0.00  0.00    +0.000 OA
ATOM      6  H   UNL     1       5.820   7.514  16.528  0.00  0.00    +0.000 HD
ENDBRANCH   1   4
BRANCH   1   7
ATOM      7  C   UNL     1       4.833   3.991  16.632  0.00  0.00    +0.000 C 
BRANCH   7   8
ATOM      8  C   UNL     1       4.169   4.489  17.917  0.00  0.00    +0.000 C 
BRANCH   8   9
ATOM      9  C   UNL     1       4.814   3.931  19.185  0.00  0.00    +0.000 C 
BRANCH   9  10
ATOM     10  N   UNL     1       4.161   2.659  19.523  0.00  0.00    +0.000 NA
ATOM     11  C   UNL     1       3.276   2.753  20.287  0.00  0.00    +0.000 C 
ATOM     12  S   UNL     1       2.081   2.879  21.331  0.00  0.00    +0.000 S 
ENDBRANCH   9  10
ENDBRANCH   8   9
ENDBRANCH   7   8
ENDBRANCH   1   7
TORSDOF 5
ENDMDL
MODEL 8
REMARK VINA RESULT:      -4.4      3.880      4.976
REMARK  Name = 
REMARK  6 active torsions:
REMARK  status: ('A' for Active; 'I' for Inactive)
REMARK    1  A    between atoms: C_1  and  N_2
REMARK    2  A    between atoms: C_3  and  C_5
REMARK    3  A    between atoms: C_5  and  C_6
REMARK    4  A    between atoms: C_6  and  C_7
REMARK    5  A    between atoms: C_7  and  C_8
REMARK    6  A    between atoms: C_8  and  N_9
REMARK                            x       y       z     vdW  Elec       q    Type
REMARK                         _______ _______ _______ _____ _____    ______ ____
ROOT
ATOM      1  C   UNL     1       5.717   5.577  16.276  0.00  0.00    +0.000 C 
ENDROOT
BRANCH   1   4
ATOM      2  C   UNL     1       8.043   5.726  19.248  0.00  0.00    +0.000 C 
ATOM      3  N   UNL     1       6.944   5.908  18.335  0.00  0.00    +0.000 N 
ATOM      4  C   UNL     1       6.935   5.255  17.122  0.00  0.00    +0.000 C 
ATOM      5  O   UNL     1       7.831   4.501  16.761  0.00  0.00    +0.000 OA
ATOM      6  H   UNL     1       6.184   6.522  18.590  0.00  0.00    +0.000 HD
ENDBRANCH   1   4
BRANCH   1   7
ATOM      7  C   UNL     1       4.687   6.387  17.065  0.00  0.00    +0.000 C 
BRANCH   7   8
ATOM      8  C   UNL     1       3.515   5.560  17.599  0.00  0.00    +0.000 C 
BRANCH   8   9
ATOM      9  C   UNL     1       3.552   5.370  19.114  0.00  0.00    +0.000 C 
BRANCH   9  10
ATOM     10  N   UNL     1       4.405   4.213  19.421  0.00  0.00    +0.000 NA
ATOM     11  C   UNL     1       3.999   3.188  19.020  0.00  0.00    +0.000 C 
ATOM     12  S   UNL     1       3.444   1.795  18.484  0.00  0.00    +0.000 S 
ENDBRANCH   9  10
ENDBRANCH   8   9
ENDBRANCH   7   8
ENDBRANCH   1   7
TORSDOF 5
ENDMDL
MODEL 9
REMARK VINA RESULT:      -4.3      3.214      3.699
REMARK  Name = 
REMARK  6 active torsions:
REMARK  status: ('A' for Active; 'I' for Inactive)
REMARK    1  A    between atoms: C_1  and  N_2
REMARK    2  A    between atoms: C_3  and  C_5
REMARK    3  A    between atoms: C_5  and  C_6
REMARK    4  A    between atoms: C_6  and  C_7
REMARK    5  A    between atoms: C_7  and  C_8
REMARK    6  A    between atoms: C_8  and  N_9
REMARK                            x       y       z     vdW  Elec       q    Type
REMARK                         _______ _______ _______ _____ _____    ______ ____
ROOT
ATOM      1  C   UNL     1       6.894   4.581  16.161  0.00  0.00    +0.000 C 
ENDROOT
BRANCH   1   4
ATOM      2  C   UNL     1       6.339   3.627  12.548  0.00  0.00    +0.000 C 
ATOM      3  N   UNL     1       6.288   3.711  13.986  0.00  0.00    +0.000 N 
ATOM      4  C   UNL     1       7.051   4.646  14.653  0.00  0.00    +0.000 C 
ATOM      5  O   UNL     1       7.789   5.438  14.081  0.00  0.00    +0.000 OA
ATOM      6  H   UNL     1       5.694   3.076  14.499  0.00  0.00    +0.000 HD
ENDBRANCH   1   4
BRANCH   1   7
ATOM      7  C   UNL     1       6.841   5.980  16.778  0.00  0.00    +0.000 C 
BRANCH   7   8
ATOM      8  C   UNL     1       5.576   6.258  17.592  0.00  0.00    +0.000 C 
BRANCH   8   9
ATOM      9  C   UNL     1       5.266   5.168  18.616  0.00  0.00    +0.000 C 
BRANCH   9  10
ATOM     10  N   UNL     1       3.848   4.801  18.495  0.00  0.00    +0.000 NA
ATOM     11  C   UNL     1       3.650   3.650  18.384  0.00  0.00    +0.000 C 
ATOM     12  S   UNL     1       3.381   2.089  18.224  0.00  0.00    +0.000 S 
ENDBRANCH   9  10
ENDBRANCH   8   9
ENDBRANCH   7   8
ENDBRANCH   1   7
TORSDOF 5
ENDMDL
