MODEL 1
REMARK VINA RESULT:      -7.4      0.000      0.000
REMARK  Name = 
REMARK  12 active torsions:
REMARK  status: ('A' for Active; 'I' for Inactive)
REMARK    1  A    between atoms: C_1  and  C_2
REMARK    2  A    between atoms: C_5  and  S_6
REMARK    3  A    between atoms: S_6  and  N_9
REMARK    4  A    between atoms: N_9  and  C_10
REMARK    5  A    between atoms: C_10  and  C_11
REMARK    6  A    between atoms: C_11  and  O_13
REMARK    7  A    between atoms: O_13  and  C_14
REMARK    8  A    between atoms: C_14  and  C_15
REMARK    9  A    between atoms: C_15  and  C_17
REMARK   10  A    between atoms: C_18  and  N_19
REMARK   11  A    between atoms: N_20  and  C_21
REMARK   12  A    between atoms: N_24  and  C_25
REMARK                            x       y       z     vdW  Elec       q    Type
REMARK                         _______ _______ _______ _____ _____    ______ ____
ROOT
ATOM      1  O   UNL     1       3.190   6.196  19.540  0.00  0.00    +0.000 OA
ENDROOT
BRANCH   1   2
ATOM      2  C   UNL     1       2.437   6.532  18.455  0.00  0.00    +0.000 C 
ATOM      3  O   UNL     1       1.772   5.749  17.790  0.00  0.00    +0.000 OA
BRANCH   2   4
ATOM      4  C   UNL     1       2.678   7.986  18.119  0.00  0.00    +0.000 C 
BRANCH   4   5
ATOM      5  N   UNL     1       1.424   8.694  17.846  0.00  0.00    +0.000 NA
ATOM      6  H   UNL     1       1.191   8.827  16.861  0.00  0.00    +0.000 HD
BRANCH   5   7
ATOM      7  S   UNL     1       1.059   9.997  18.837  0.00  0.00    +0.000 S 
ATOM      8  O   UNL     1       1.928  11.092  18.466  0.00  0.00    +0.000 OA
ATOM      9  O   UNL     1       0.994   9.489  20.189  0.00  0.00    +0.000 OA
BRANCH   7  14
ATOM     10  C   UNL     1      -4.686  11.228  17.316  0.00  0.00    +0.000 C 
ATOM     11  C   UNL     1      -3.251  10.956  17.660  0.00  0.00    +0.000 A 
ATOM     12  C   UNL     1      -2.533   9.957  16.988  0.00  0.00    +0.000 A 
ATOM     13  C   UNL     1      -1.212   9.682  17.339  0.00  0.00    +0.000 A 
ATOM     14  C   UNL     1      -0.603  10.414  18.365  0.00  0.00    +0.000 A 
ATOM     15  C   UNL     1      -1.298  11.416  19.035  0.00  0.00    +0.000 A 
ATOM     16  C   UNL     1      -2.626  11.682  18.686  0.00  0.00    +0.000 A 
ENDBRANCH   7  14
ENDBRANCH   5   7
ENDBRANCH   4   5
ENDBRANCH   2   4
ENDBRANCH   1   2
BRANCH   1  17
ATOM     17  C   UNL     1       2.994   4.867  20.036  0.00  0.00    +0.000 C 
BRANCH  17  18
ATOM     18  C   UNL     1       4.100   3.949  19.507  0.00  0.00    +0.000 C 
ATOM     19  O   UNL     1       4.193   2.777  19.905  0.00  0.00    +0.000 OA
BRANCH  18  20
ATOM     20  C   UNL     1       5.076   4.468  18.482  0.00  0.00    +0.000 A 
ATOM     21  C   UNL     1       4.866   4.239  17.163  0.00  0.00    +0.000 A 
ATOM     22  N   UNL     1       5.746   4.791  16.233  0.00  0.00    +0.000 N 
ATOM     23  C   UNL     1       5.599   4.581  14.796  0.00  0.00    +0.000 C 
ATOM     24  C   UNL     1       6.829   5.603  16.576  0.00  0.00    +0.000 A 
ATOM     25  O   UNL     1       7.569   6.096  15.722  0.00  0.00    +0.000 OA
ATOM     26  N   UNL     1       7.030   5.815  17.922  0.00  0.00    +0.000 N 
ATOM     27  C   UNL     1       8.149   6.637  18.351  0.00  0.00    +0.000 C 
ATOM     28  C   UNL     1       6.255   5.249  18.906  0.00  0.00    +0.000 A 
ATOM     29  O   UNL     1       6.512   5.395  20.101  0.00  0.00    +0.000 OA
BRANCH  21  30
ATOM     30  N   UNL     1       3.801   3.459  16.723  0.00  0.00    +0.000 N 
ATOM     31  H   UNL     1       3.606   2.669  17.352  0.00  0.00    +0.000 HD
ATOM     32  H   UNL     1       2.947   3.974  16.552  0.00  0.00    +0.000 HD
ENDBRANCH  21  30
ENDBRANCH  18  20
ENDBRANCH  17  18
ENDBRANCH   1  17
TORSDOF 9
ENDMDL
MODEL 2
REMARK VINA RESULT:      -7.4      4.852      7.938
REMARK  Name = 
REMARK  12 active torsions:
REMARK  status: ('A' for Active; 'I' for Inactive)
REMARK    1  A    between atoms: C_1  and  C_2
REMARK    2  A    between atoms: C_5  and  S_6
REMARK    3  A    between atoms: S_6  and  N_9
REMARK    4  A    between atoms: N_9  and  C_10
REMARK    5  A    between atoms: C_10  and  C_11
REMARK    6  A    between atoms: C_11  and  O_13
REMARK    7  A    between atoms: O_13  and  C_14
REMARK    8  A    between atoms: C_14  and  C_15
REMARK    9  A    between atoms: C_15  and  C_17
REMARK   10  A    between atoms: C_18  and  N_19
REMARK   11  A    between atoms: N_20  and  C_21
REMARK   12  A    between atoms: N_24  and  C_25
REMARK                            x       y       z     vdW  Elec       q    Type
REMARK                         _______ _______ _______ _____ _____    ______ ____
ROOT
ATOM      1  O   UNL     1       7.153   7.768  17.102  0.00  0.00    +0.000 OA
ENDROOT
BRANCH   1   2
ATOM      2  C   UNL     1       8.074   8.064  18.061  0.00  0.00    +0.000 C 
ATOM      3  O   UNL     1       8.522   7.271  18.877  0.00  0.00    +0.000 OA
BRANCH   2   4
ATOM      4  C   UNL     1       8.334   9.554  18.051  0.00  0.00    +0.000 C 
BRANCH   4   5
ATOM      5  N   UNL     1       9.240   9.954  19.131  0.00  0.00    +0.000 NA
ATOM      6  H   UNL     1       8.936   9.719  20.079  0.00  0.00    +0.000 HD
BRANCH   5   7
ATOM      7  S   UNL     1       9.985  11.449  18.981  0.00  0.00    +0.000 S 
ATOM      8  O   UNL     1       9.390  12.127  17.849  0.00  0.00    +0.000 OA
ATOM      9  O   UNL     1      11.408  11.219  19.081  0.00  0.00    +0.000 OA
BRANCH   7  14
ATOM     10  C   UNL     1       8.485  14.246  24.154  0.00  0.00    +0.000 C 
ATOM     11  C   UNL     1       8.813  13.564  22.858  0.00  0.00    +0.000 A 
ATOM     12  C   UNL     1       8.571  12.193  22.692  0.00  0.00    +0.000 A 
ATOM     13  C   UNL     1       8.913  11.558  21.500  0.00  0.00    +0.000 A 
ATOM     14  C   UNL     1       9.496  12.297  20.464  0.00  0.00    +0.000 A 
ATOM     15  C   UNL     1       9.734  13.661  20.609  0.00  0.00    +0.000 A 
ATOM     16  C   UNL     1       9.397  14.293  21.811  0.00  0.00    +0.000 A 
ENDBRANCH   7  14
ENDBRANCH   5   7
ENDBRANCH   4   5
ENDBRANCH   2   4
ENDBRANCH   1   2
BRANCH   1  17
ATOM     17  C   UNL     1       7.045   6.381  16.762  0.00  0.00    +0.000 C 
BRANCH  17  18
ATOM     18  C   UNL     1       5.628   6.079  16.264  0.00  0.00    +0.000 C 
ATOM     19  O   UNL     1       5.278   6.405  15.119  0.00  0.00    +0.000 OA
BRANCH  18  20
ATOM     20  C   UNL     1       4.655   5.365  17.167  0.00  0.00    +0.000 A 
ATOM     21  C   UNL     1       4.613   4.010  17.190  0.00  0.00    +0.000 A 
ATOM     22  N   UNL     1       3.753   3.377  18.086  0.00  0.00    +0.000 N 
ATOM     23  C   UNL     1       3.637   1.924  18.164  0.00  0.00    +0.000 C 
ATOM     24  C   UNL     1       2.943   4.056  18.998  0.00  0.00    +0.000 A 
ATOM     25  O   UNL     1       2.216   3.458  19.794  0.00  0.00    +0.000 OA
ATOM     26  N   UNL     1       2.994   5.432  18.951  0.00  0.00    +0.000 N 
ATOM     27  C   UNL     1       2.165   6.203  19.861  0.00  0.00    +0.000 C 
ATOM     28  C   UNL     1       3.757   6.136  18.051  0.00  0.00    +0.000 A 
ATOM     29  O   UNL     1       3.717   7.364  17.985  0.00  0.00    +0.000 OA
BRANCH  21  30
ATOM     30  N   UNL     1       5.398   3.246  16.333  0.00  0.00    +0.000 N 
ATOM     31  H   UNL     1       5.384   2.246  16.573  0.00  0.00    +0.000 HD
ATOM     32  H   UNL     1       5.179   3.360  15.350  0.00  0.00    +0.000 HD
ENDBRANCH  21  30
ENDBRANCH  18  20
ENDBRANCH  17  18
ENDBRANCH   1  17
TORSDOF 9
ENDMDL
MODEL 3
REMARK VINA RESULT:      -7.3      4.830      7.334
REMARK  Name = 
REMARK  12 active torsions:
REMARK  status: ('A' for Active; 'I' for Inactive)
REMARK    1  A    between atoms: C_1  and  C_2
REMARK    2  A    between atoms: C_5  and  S_6
REMARK    3  A    between atoms: S_6  and  N_9
REMARK    4  A    between atoms: N_9  and  C_10
REMARK    5  A    between atoms: C_10  and  C_11
REMARK    6  A    between atoms: C_11  and  O_13
REMARK    7  A    between atoms: O_13  and  C_14
REMARK    8  A    between atoms: C_14  and  C_15
REMARK    9  A    between atoms: C_15  and  C_17
REMARK   10  A    between atoms: C_18  and  N_19
REMARK   11  A    between atoms: N_20  and  C_21
REMARK   12  A    between atoms: N_24  and  C_25
REMARK                            x       y       z     vdW  Elec       q    Type
REMARK                         _______ _______ _______ _____ _____    ______ ____
ROOT
ATOM      1  O   UNL     1       7.279   7.732  16.989  0.00  0.00    +0.000 OA
ENDROOT
BRANCH   1   2
ATOM      2  C   UNL     1       8.104   8.118  18.003  0.00  0.00    +0.000 C 
ATOM      3  O   UNL     1       8.505   7.391  18.901  0.00  0.00    +0.000 OA
BRANCH   2   4
ATOM      4  C   UNL     1       8.315   9.614  17.924  0.00  0.00    +0.000 C 
BRANCH   4   5
ATOM      5  N   UNL     1       9.045  10.121  19.089  0.00  0.00    +0.000 NA
ATOM      6  H   UNL     1       8.517  10.165  19.962  0.00  0.00    +0.000 HD
BRANCH   5   7
ATOM      7  S   UNL     1      10.085  11.410  18.828  0.00  0.00    +0.000 S 
ATOM      8  O   UNL     1      10.662  11.253  17.511  0.00  0.00    +0.000 OA
ATOM      9  O   UNL     1      10.899  11.538  20.016  0.00  0.00    +0.000 OA
BRANCH   7  14
ATOM     10  C   UNL     1       6.187  16.061  18.737  0.00  0.00    +0.000 C 
ATOM     11  C   UNL     1       7.185  14.940  18.744  0.00  0.00    +0.000 A 
ATOM     12  C   UNL     1       7.351  14.125  17.615  0.00  0.00    +0.000 A 
ATOM     13  C   UNL     1       8.251  13.062  17.640  0.00  0.00    +0.000 A 
ATOM     14  C   UNL     1       8.995  12.813  18.800  0.00  0.00    +0.000 A 
ATOM     15  C   UNL     1       8.850  13.618  19.926  0.00  0.00    +0.000 A 
ATOM     16  C   UNL     1       7.938  14.679  19.899  0.00  0.00    +0.000 A 
ENDBRANCH   7  14
ENDBRANCH   5   7
ENDBRANCH   4   5
ENDBRANCH   2   4
ENDBRANCH   1   2
BRANCH   1  17
ATOM     17  C   UNL     1       7.146   6.317  16.811  0.00  0.00    +0.000 C 
BRANCH  17  18
ATOM     18  C   UNL     1       5.743   5.991  16.289  0.00  0.00    +0.000 C 
ATOM     19  O   UNL     1       5.440   6.219  15.108  0.00  0.00    +0.000 OA
BRANCH  18  20
ATOM     20  C   UNL     1       4.727   5.373  17.215  0.00  0.00    +0.000 A 
ATOM     21  C   UNL     1       4.639   4.024  17.329  0.00  0.00    +0.000 A 
ATOM     22  N   UNL     1       3.739   3.482  18.245  0.00  0.00    +0.000 N 
ATOM     23  C   UNL     1       3.572   2.042  18.419  0.00  0.00    +0.000 C 
ATOM     24  C   UNL     1       2.932   4.248  19.088  0.00  0.00    +0.000 A 
ATOM     25  O   UNL     1       2.168   3.730  19.905  0.00  0.00    +0.000 OA
ATOM     26  N   UNL     1       3.031   5.615  18.949  0.00  0.00    +0.000 N 
ATOM     27  C   UNL     1       2.207   6.473  19.784  0.00  0.00    +0.000 C 
ATOM     28  C   UNL     1       3.836   6.230  18.022  0.00  0.00    +0.000 A 
ATOM     29  O   UNL     1       3.839   7.452  17.871  0.00  0.00    +0.000 OA
BRANCH  21  30
ATOM     30  N   UNL     1       5.417   3.178  16.545  0.00  0.00    +0.000 N 
ATOM     31  H   UNL     1       5.411   3.446  15.552  0.00  0.00    +0.000 HD
ATOM     32  H   UNL     1       6.373   3.075  16.862  0.00  0.00    +0.000 HD
ENDBRANCH  21  30
ENDBRANCH  18  20
ENDBRANCH  17  18
ENDBRANCH   1  17
TORSDOF 9
ENDMDL
MODEL 4
REMARK VINA RESULT:      -7.3      0.990      1.092
REMARK  Name = 
REMARK  12 active torsions:
REMARK  status: ('A' for Active; 'I' for Inactive)
REMARK    1  A    between atoms: C_1  and  C_2
REMARK    2  A    between atoms: C_5  and  S_6
REMARK    3  A    between atoms: S_6  and  N_9
REMARK    4  A    between atoms: N_9  and  C_10
REMARK    5  A    between atoms: C_10  and  C_11
REMARK    6  A    between atoms: C_11  and  O_13
REMARK    7  A    between atoms: O_13  and  C_14
REMARK    8  A    between atoms: C_14  and  C_15
REMARK    9  A    between atoms: C_15  and  C_17
REMARK   10  A    between atoms: C_18  and  N_19
REMARK   11  A    between atoms: N_20  and  C_21
REMARK   12  A    between atoms: N_24  and  C_25
REMARK                            x       y       z     vdW  Elec       q    Type
REMARK                         _______ _______ _______ _____ _____    ______ ____
ROOT
ATOM      1  O   UNL     1       2.204   5.578  19.124  0.00  0.00    +0.000 OA
ENDROOT
BRANCH   1   2
ATOM      2  C   UNL     1       2.466   6.900  18.926  0.00  0.00    +0.000 C 
ATOM      3  O   UNL     1       3.161   7.354  18.028  0.00  0.00    +0.000 OA
BRANCH   2   4
ATOM      4  C   UNL     1       1.889   7.693  20.077  0.00  0.00    +0.000 C 
BRANCH   4   5
ATOM      5  N   UNL     1       1.579   9.071  19.685  0.00  0.00    +0.000 NA
ATOM      6  H   UNL     1       2.371   9.638  19.377  0.00  0.00    +0.000 HD
BRANCH   5   7
ATOM      7  S   UNL     1       0.449   9.888  20.617  0.00  0.00    +0.000 S 
ATOM      8  O   UNL     1       1.090  11.069  21.153  0.00  0.00    +0.000 OA
ATOM      9  O   UNL     1      -0.185   8.904  21.465  0.00  0.00    +0.000 OA
BRANCH   7  14
ATOM     10  C   UNL     1      -3.815  11.442  16.588  0.00  0.00    +0.000 C 
ATOM     11  C   UNL     1      -2.732  11.090  17.565  0.00  0.00    +0.000 A 
ATOM     12  C   UNL     1      -1.800  10.086  17.267  0.00  0.00    +0.000 A 
ATOM     13  C   UNL     1      -0.820   9.737  18.195  0.00  0.00    +0.000 A 
ATOM     14  C   UNL     1      -0.767  10.399  19.427  0.00  0.00    +0.000 A 
ATOM     15  C   UNL     1      -1.678  11.405  19.734  0.00  0.00    +0.000 A 
ATOM     16  C   UNL     1      -2.666  11.746  18.804  0.00  0.00    +0.000 A 
ENDBRANCH   7  14
ENDBRANCH   5   7
ENDBRANCH   4   5
ENDBRANCH   2   4
ENDBRANCH   1   2
BRANCH   1  17
ATOM     17  C   UNL     1       3.005   4.937  20.125  0.00  0.00    +0.000 C 
BRANCH  17  18
ATOM     18  C   UNL     1       3.979   3.959  19.460  0.00  0.00    +0.000 C 
ATOM     19  O   UNL     1       3.955   2.752  19.746  0.00  0.00    +0.000 OA
BRANCH  18  20
ATOM     20  C   UNL     1       4.965   4.465  18.439  0.00  0.00    +0.000 A 
ATOM     21  C   UNL     1       4.761   4.232  17.119  0.00  0.00    +0.000 A 
ATOM     22  N   UNL     1       5.652   4.772  16.192  0.00  0.00    +0.000 N 
ATOM     23  C   UNL     1       5.511   4.557  14.756  0.00  0.00    +0.000 C 
ATOM     24  C   UNL     1       6.739   5.577  16.538  0.00  0.00    +0.000 A 
ATOM     25  O   UNL     1       7.488   6.059  15.686  0.00  0.00    +0.000 OA
ATOM     26  N   UNL     1       6.934   5.793  17.885  0.00  0.00    +0.000 N 
ATOM     27  C   UNL     1       8.057   6.607  18.317  0.00  0.00    +0.000 C 
ATOM     28  C   UNL     1       6.148   5.239  18.866  0.00  0.00    +0.000 A 
ATOM     29  O   UNL     1       6.400   5.388  20.062  0.00  0.00    +0.000 OA
BRANCH  21  30
ATOM     30  N   UNL     1       3.692   3.459  16.676  0.00  0.00    +0.000 N 
ATOM     31  H   UNL     1       2.965   4.021  16.215  0.00  0.00    +0.000 HD
ATOM     32  H   UNL     1       3.955   2.687  16.075  0.00  0.00    +0.000 HD
ENDBRANCH  21  30
ENDBRANCH  18  20
ENDBRANCH  17  18
ENDBRANCH   1  17
TORSDOF 9
ENDMDL
MODEL 5
REMARK VINA RESULT:      -7.3      4.563      7.780
REMARK  Name = 
REMARK  12 active torsions:
REMARK  status: ('A' for Active; 'I' for Inactive)
REMARK    1  A    between atoms: C_1  and  C_2
REMARK    2  A    between atoms: C_5  and  S_6
REMARK    3  A    between atoms: S_6  and  N_9
REMARK    4  A    between atoms: N_9  and  C_10
REMARK    5  A    between atoms: C_10  and  C_11
REMARK    6  A    between atoms: C_11  and  O_13
REMARK    7  A    between atoms: O_13  and  C_14
REMARK    8  A    between atoms: C_14  and  C_15
REMARK    9  A    between atoms: C_15  and  C_17
REMARK   10  A    between atoms: C_18  and  N_19
REMARK   11  A    between atoms: N_20  and  C_21
REMARK   12  A    between atoms: N_24  and  C_25
REMARK                            x       y       z     vdW  Elec       q    Type
REMARK                         _______ _______ _______ _____ _____    ______ ____
ROOT
ATOM      1  O   UNL     1       7.330   7.137  16.733  0.00  0.00    +0.000 OA
ENDROOT
BRANCH   1   2
ATOM      2  C   UNL     1       7.882   7.651  17.868  0.00  0.00    +0.000 C 
ATOM      3  O   UNL     1       8.237   6.996  18.838  0.00  0.00    +0.000 OA
BRANCH   2   4
ATOM      4  C   UNL     1       7.842   9.161  17.795  0.00  0.00    +0.000 C 
BRANCH   4   5
ATOM      5  N   UNL     1       8.928   9.770  18.568  0.00  0.00    +0.000 NA
ATOM      6  H   UNL     1       8.964   9.524  19.559  0.00  0.00    +0.000 HD
BRANCH   5   7
ATOM      7  S   UNL     1       9.296  11.370  18.226  0.00  0.00    +0.000 S 
ATOM      8  O   UNL     1       8.238  11.898  17.392  0.00  0.00    +0.000 OA
ATOM      9  O   UNL     1      10.684  11.404  17.824  0.00  0.00    +0.000 OA
BRANCH   7  14
ATOM     10  C   UNL     1       8.770  14.115  23.613  0.00  0.00    +0.000 C 
ATOM     11  C   UNL     1       8.947  13.438  22.285  0.00  0.00    +0.000 A 
ATOM     12  C   UNL     1       9.025  14.191  21.105  0.00  0.00    +0.000 A 
ATOM     13  C   UNL     1       9.151  13.555  19.871  0.00  0.00    +0.000 A 
ATOM     14  C   UNL     1       9.204  12.157  19.816  0.00  0.00    +0.000 A 
ATOM     15  C   UNL     1       9.138  11.396  20.979  0.00  0.00    +0.000 A 
ATOM     16  C   UNL     1       9.003  12.038  22.215  0.00  0.00    +0.000 A 
ENDBRANCH   7  14
ENDBRANCH   5   7
ENDBRANCH   4   5
ENDBRANCH   2   4
ENDBRANCH   1   2
BRANCH   1  17
ATOM     17  C   UNL     1       7.023   5.739  16.779  0.00  0.00    +0.000 C 
BRANCH  17  18
ATOM     18  C   UNL     1       5.576   5.511  16.331  0.00  0.00    +0.000 C 
ATOM     19  O   UNL     1       5.285   5.483  15.125  0.00  0.00    +0.000 OA
BRANCH  18  20
ATOM     20  C   UNL     1       4.498   5.304  17.364  0.00  0.00    +0.000 A 
ATOM     21  C   UNL     1       4.190   4.054  17.788  0.00  0.00    +0.000 A 
ATOM     22  N   UNL     1       3.239   3.897  18.795  0.00  0.00    +0.000 N 
ATOM     23  C   UNL     1       2.840   2.586  19.298  0.00  0.00    +0.000 C 
ATOM     24  C   UNL     1       2.595   4.963  19.428  0.00  0.00    +0.000 A 
ATOM     25  O   UNL     1       1.780   4.784  20.335  0.00  0.00    +0.000 OA
ATOM     26  N   UNL     1       2.916   6.224  18.975  0.00  0.00    +0.000 N 
ATOM     27  C   UNL     1       2.271   7.378  19.578  0.00  0.00    +0.000 C 
ATOM     28  C   UNL     1       3.786   6.463  17.939  0.00  0.00    +0.000 A 
ATOM     29  O   UNL     1       3.988   7.598  17.508  0.00  0.00    +0.000 OA
BRANCH  21  30
ATOM     30  N   UNL     1       4.794   2.930  17.231  0.00  0.00    +0.000 N 
ATOM     31  H   UNL     1       4.635   2.081  17.790  0.00  0.00    +0.000 HD
ATOM     32  H   UNL     1       4.540   2.753  16.267  0.00  0.00    +0.000 HD
ENDBRANCH  21  30
ENDBRANCH  18  20
ENDBRANCH  17  18
ENDBRANCH   1  17
TORSDOF 9
ENDMDL
MODEL 6
REMARK VINA RESULT:      -7.1      0.476      1.117
REMARK  Name = 
REMARK  12 active torsions:
REMARK  status: ('A' for Active; 'I' for Inactive)
REMARK    1  A    between atoms: C_1  and  C_2
REMARK    2  A    between atoms: C_5  and  S_6
REMARK    3  A    between atoms: S_6  and  N_9
REMARK    4  A    between atoms: N_9  and  C_10
REMARK    5  A    between atoms: C_10  and  C_11
REMARK    6  A    between atoms: C_11  and  O_13
REMARK    7  A    between atoms: O_13  and  C_14
REMARK    8  A    between atoms: C_14  and  C_15
REMARK    9  A    between atoms: C_15  and  C_17
REMARK   10  A    between atoms: C_18  and  N_19
REMARK   11  A    between atoms: N_20  and  C_21
REMARK   12  A    between atoms: N_24  and  C_25
REMARK                            x       y       z     vdW  Elec       q    Type
REMARK                         _______ _______ _______ _____ _____    ______ ____
ROOT
ATOM      1  O   UNL     1       2.512   5.553  18.565  0.00  0.00    +0.000 OA
ENDROOT
BRANCH   1   2
ATOM      2  C   UNL     1       2.363   6.696  19.290  0.00  0.00    +0.000 C 
ATOM      3  O   UNL     1       1.968   6.751  20.447  0.00  0.00    +0.000 OA
BRANCH   2   4
ATOM      4  C   UNL     1       2.617   7.886  18.392  0.00  0.00    +0.000 C 
BRANCH   4   5
ATOM      5  N   UNL     1       1.372   8.567  18.029  0.00  0.00    +0.000 NA
ATOM      6  H   UNL     1       1.115   8.534  17.041  0.00  0.00    +0.000 HD
BRANCH   5   7
ATOM      7  S   UNL     1       1.060  10.030  18.788  0.00  0.00    +0.000 S 
ATOM      8  O   UNL     1       1.917  11.030  18.188  0.00  0.00    +0.000 OA
ATOM      9  O   UNL     1       1.054   9.771  20.209  0.00  0.00    +0.000 OA
BRANCH   7  14
ATOM     10  C   UNL     1      -4.607  11.417  17.115  0.00  0.00    +0.000 C 
ATOM     11  C   UNL     1      -3.223  11.042  17.559  0.00  0.00    +0.000 A 
ATOM     12  C   UNL     1      -2.612  11.708  18.630  0.00  0.00    +0.000 A 
ATOM     13  C   UNL     1      -1.312  11.382  19.012  0.00  0.00    +0.000 A 
ATOM     14  C   UNL     1      -0.619  10.379  18.323  0.00  0.00    +0.000 A 
ATOM     15  C   UNL     1      -1.216   9.701  17.264  0.00  0.00    +0.000 A 
ATOM     16  C   UNL     1      -2.517  10.038  16.878  0.00  0.00    +0.000 A 
ENDBRANCH   7  14
ENDBRANCH   5   7
ENDBRANCH   4   5
ENDBRANCH   2   4
ENDBRANCH   1   2
BRANCH   1  17
ATOM     17  C   UNL     1       2.557   4.343  19.330  0.00  0.00    +0.000 C 
BRANCH  17  18
ATOM     18  C   UNL     1       3.957   3.726  19.243  0.00  0.00    +0.000 C 
ATOM     19  O   UNL     1       4.254   2.735  19.928  0.00  0.00    +0.000 OA
BRANCH  18  20
ATOM     20  C   UNL     1       4.977   4.319  18.305  0.00  0.00    +0.000 A 
ATOM     21  C   UNL     1       4.856   4.144  16.966  0.00  0.00    +0.000 A 
ATOM     22  N   UNL     1       5.775   4.764  16.119  0.00  0.00    +0.000 N 
ATOM     23  C   UNL     1       5.724   4.615  14.668  0.00  0.00    +0.000 C 
ATOM     24  C   UNL     1       6.808   5.591  16.565  0.00  0.00    +0.000 A 
ATOM     25  O   UNL     1       7.583   6.143  15.782  0.00  0.00    +0.000 OA
ATOM     26  N   UNL     1       6.917   5.747  17.929  0.00  0.00    +0.000 N 
ATOM     27  C   UNL     1       7.980   6.581  18.464  0.00  0.00    +0.000 C 
ATOM     28  C   UNL     1       6.102   5.116  18.836  0.00  0.00    +0.000 A 
ATOM     29  O   UNL     1       6.279   5.215  20.050  0.00  0.00    +0.000 OA
BRANCH  21  30
ATOM     30  N   UNL     1       3.847   3.354  16.426  0.00  0.00    +0.000 N 
ATOM     31  H   UNL     1       3.344   2.815  17.143  0.00  0.00    +0.000 HD
ATOM     32  H   UNL     1       3.181   3.858  15.853  0.00  0.00    +0.000 HD
ENDBRANCH  21  30
ENDBRANCH  18  20
ENDBRANCH  17  18
ENDBRANCH   1  17
TORSDOF 9
ENDMDL
MODEL 7
REMARK VINA RESULT:      -7.1      5.297      8.513
REMARK  Name = 
REMARK  12 active torsions:
REMARK  status: ('A' for Active; 'I' for Inactive)
REMARK    1  A    between atoms: C_1  and  C_2
REMARK    2  A    between atoms: C_5  and  S_6
REMARK    3  A    between atoms: S_6  and  N_9
REMARK    4  A    between atoms: N_9  and  C_10
REMARK    5  A    between atoms: C_10  and  C_11
REMARK    6  A    between atoms: C_11  and  O_13
REMARK    7  A    between atoms: O_13  and  C_14
REMARK    8  A    between atoms: C_14  and  C_15
REMARK    9  A    between atoms: C_15  and  C_17
REMARK   10  A    between atoms: C_18  and  N_19
REMARK   11  A    between atoms: N_20  and  C_21
REMARK   12  A    between atoms: N_24  and  C_25
REMARK                            x       y       z     vdW  Elec       q    Type
REMARK                         _______ _______ _______ _____ _____    ______ ____
ROOT
ATOM      1  O   UNL     1       8.883   8.702  18.714  0.00  0.00    +0.000 OA
ENDROOT
BRANCH   1   2
ATOM      2  C   UNL     1       8.172   7.570  18.450  0.00  0.00    +0.000 C 
ATOM      3  O   UNL     1       8.273   6.515  19.062  0.00  0.00    +0.000 OA
BRANCH   2   4
ATOM      4  C   UNL     1       7.358   7.782  17.193  0.00  0.00    +0.000 C 
BRANCH   4   5
ATOM      5  N   UNL     1       6.053   7.121  17.275  0.00  0.00    +0.000 NA
ATOM      6  H   UNL     1       5.634   7.070  18.205  0.00  0.00    +0.000 HD
BRANCH   5   7
ATOM      7  S   UNL     1       5.837   5.751  16.332  0.00  0.00    +0.000 S 
ATOM      8  O   UNL     1       6.961   4.870  16.568  0.00  0.00    +0.000 OA
ATOM      9  O   UNL     1       5.480   6.206  15.008  0.00  0.00    +0.000 OA
BRANCH   7  14
ATOM     10  C   UNL     1       0.996   3.108  18.865  0.00  0.00    +0.000 C 
ATOM     11  C   UNL     1       2.168   3.767  18.199  0.00  0.00    +0.000 A 
ATOM     12  C   UNL     1       3.119   3.003  17.507  0.00  0.00    +0.000 A 
ATOM     13  C   UNL     1       4.226   3.616  16.923  0.00  0.00    +0.000 A 
ATOM     14  C   UNL     1       4.382   5.003  17.027  0.00  0.00    +0.000 A 
ATOM     15  C   UNL     1       3.443   5.778  17.701  0.00  0.00    +0.000 A 
ATOM     16  C   UNL     1       2.338   5.157  18.293  0.00  0.00    +0.000 A 
ENDBRANCH   7  14
ENDBRANCH   5   7
ENDBRANCH   4   5
ENDBRANCH   2   4
ENDBRANCH   1   2
BRANCH   1  17
ATOM     17  C   UNL     1       8.382   9.897  18.103  0.00  0.00    +0.000 C 
BRANCH  17  18
ATOM     18  C   UNL     1       9.402  11.028  18.267  0.00  0.00    +0.000 C 
ATOM     19  O   UNL     1      10.469  11.013  17.634  0.00  0.00    +0.000 OA
BRANCH  18  20
ATOM     20  C   UNL     1       9.101  12.178  19.193  0.00  0.00    +0.000 A 
ATOM     21  C   UNL     1       8.774  13.393  18.688  0.00  0.00    +0.000 A 
ATOM     22  N   UNL     1       8.431  14.420  19.567  0.00  0.00    +0.000 N 
ATOM     23  C   UNL     1       8.080  15.760  19.106  0.00  0.00    +0.000 C 
ATOM     24  C   UNL     1       8.370  14.267  20.954  0.00  0.00    +0.000 A 
ATOM     25  O   UNL     1       8.035  15.192  21.696  0.00  0.00    +0.000 OA
ATOM     26  N   UNL     1       8.715  13.027  21.446  0.00  0.00    +0.000 N 
ATOM     27  C   UNL     1       8.691  12.803  22.881  0.00  0.00    +0.000 C 
ATOM     28  C   UNL     1       9.136  11.984  20.656  0.00  0.00    +0.000 A 
ATOM     29  O   UNL     1       9.513  10.916  21.137  0.00  0.00    +0.000 OA
BRANCH  21  30
ATOM     30  N   UNL     1       8.786  13.637  17.318  0.00  0.00    +0.000 N 
ATOM     31  H   UNL     1       7.938  14.122  16.998  0.00  0.00    +0.000 HD
ATOM     32  H   UNL     1       9.605  14.133  16.988  0.00  0.00    +0.000 HD
ENDBRANCH  21  30
ENDBRANCH  18  20
ENDBRANCH  17  18
ENDBRANCH   1  17
TORSDOF 9
ENDMDL
MODEL 8
REMARK VINA RESULT:      -7.1      5.457      8.658
REMARK  Name = 
REMARK  12 active torsions:
REMARK  status: ('A' for Active; 'I' for Inactive)
REMARK    1  A    between atoms: C_1  and  C_2
REMARK    2  A    between atoms: C_5  and  S_6
REMARK    3  A    between atoms: S_6  and  N_9
REMARK    4  A    between atoms: N_9  and  C_10
REMARK    5  A    between atoms: C_10  and  C_11
REMARK    6  A    between atoms: C_11  and  O_13
REMARK    7  A    between atoms: O_13  and  C_14
REMARK    8  A    between atoms: C_14  and  C_15
REMARK    9  A    between atoms: C_15  and  C_17
REMARK   10  A    between atoms: C_18  and  N_19
REMARK   11  A    between atoms: N_20  and  C_21
REMARK   12  A    between atoms: N_24  and  C_25
REMARK                            x       y       z     vdW  Elec       q    Type
REMARK                         _______ _______ _______ _____ _____    ______ ____
ROOT
ATOM      1  O   UNL     1       8.122   9.261  17.968  0.00  0.00    +0.000 OA
ENDROOT
BRANCH   1   2
ATOM      2  C   UNL     1       7.930   7.917  18.075  0.00  0.00    +0.000 C 
ATOM      3  O   UNL     1       8.505   7.183  18.868  0.00  0.00    +0.000 OA
BRANCH   2   4
ATOM      4  C   UNL     1       7.015   7.460  16.962  0.00  0.00    +0.000 C 
BRANCH   4   5
ATOM      5  N   UNL     1       5.861   6.718  17.478  0.00  0.00    +0.000 NA
ATOM      6  H   UNL     1       5.574   6.945  18.432  0.00  0.00    +0.000 HD
BRANCH   5   7
ATOM      7  S   UNL     1       5.769   5.091  17.083  0.00  0.00    +0.000 S 
ATOM      8  O   UNL     1       6.944   4.439  17.619  0.00  0.00    +0.000 OA
ATOM      9  O   UNL     1       5.418   5.019  15.683  0.00  0.00    +0.000 OA
BRANCH   7  14
ATOM     10  C   UNL     1       0.996   3.300  20.378  0.00  0.00    +0.000 C 
ATOM     11  C   UNL     1       2.169   3.707  19.534  0.00  0.00    +0.000 A 
ATOM     12  C   UNL     1       3.453   3.218  19.813  0.00  0.00    +0.000 A 
ATOM     13  C   UNL     1       4.544   3.630  19.050  0.00  0.00    +0.000 A 
ATOM     14  C   UNL     1       4.351   4.531  17.997  0.00  0.00    +0.000 A 
ATOM     15  C   UNL     1       3.081   5.017  17.699  0.00  0.00    +0.000 A 
ATOM     16  C   UNL     1       1.990   4.609  18.474  0.00  0.00    +0.000 A 
ENDBRANCH   7  14
ENDBRANCH   5   7
ENDBRANCH   4   5
ENDBRANCH   2   4
ENDBRANCH   1   2
BRANCH   1  17
ATOM     17  C   UNL     1       8.987   9.838  18.954  0.00  0.00    +0.000 C 
BRANCH  17  18
ATOM     18  C   UNL     1       9.628  11.114  18.398  0.00  0.00    +0.000 C 
ATOM     19  O   UNL     1      10.480  11.052  17.499  0.00  0.00    +0.000 OA
BRANCH  18  20
ATOM     20  C   UNL     1       9.209  12.457  18.938  0.00  0.00    +0.000 A 
ATOM     21  C   UNL     1       8.351  13.237  18.235  0.00  0.00    +0.000 A 
ATOM     22  N   UNL     1       7.925  14.442  18.791  0.00  0.00    +0.000 N 
ATOM     23  C   UNL     1       7.014  15.346  18.095  0.00  0.00    +0.000 C 
ATOM     24  C   UNL     1       8.304  14.891  20.058  0.00  0.00    +0.000 A 
ATOM     25  O   UNL     1       7.883  15.951  20.526  0.00  0.00    +0.000 OA
ATOM     26  N   UNL     1       9.183  14.087  20.750  0.00  0.00    +0.000 N 
ATOM     27  C   UNL     1       9.634  14.502  22.068  0.00  0.00    +0.000 C 
ATOM     28  C   UNL     1       9.709  12.922  20.247  0.00  0.00    +0.000 A 
ATOM     29  O   UNL     1      10.554  12.271  20.861  0.00  0.00    +0.000 OA
BRANCH  21  30
ATOM     30  N   UNL     1       7.901  12.865  16.973  0.00  0.00    +0.000 N 
ATOM     31  H   UNL     1       8.670  12.613  16.339  0.00  0.00    +0.000 HD
ATOM     32  H   UNL     1       7.210  12.124  16.976  0.00  0.00    +0.000 HD
ENDBRANCH  21  30
ENDBRANCH  18  20
ENDBRANCH  17  18
ENDBRANCH   1  17
TORSDOF 9
ENDMDL
MODEL 9
REMARK VINA RESULT:      -7.0      2.915      8.534
REMARK  Name = 
REMARK  12 active torsions:
REMARK  status: ('A' for Active; 'I' for Inactive)
REMARK    1  A    between atoms: C_1  and  C_2
REMARK    2  A    between atoms: C_5  and  S_6
REMARK    3  A    between atoms: S_6  and  N_9
REMARK    4  A    between atoms: N_9  and  C_10
REMARK    5  A    between atoms: C_10  and  C_11
REMARK    6  A    between atoms: C_11  and  O_13
REMARK    7  A    between atoms: O_13  and  C_14
REMARK    8  A    between atoms: C_14  and  C_15
REMARK    9  A    between atoms: C_15  and  C_17
REMARK   10  A    between atoms: C_18  and  N_19
REMARK   11  A    between atoms: N_20  and  C_21
REMARK   12  A    between atoms: N_24  and  C_25
REMARK                            x       y       z     vdW  Elec       q    Type
REMARK                         _______ _______ _______ _____ _____    ______ ____
ROOT
ATOM      1  O   UNL     1       2.562   8.521  17.260  0.00  0.00    +0.000 OA
ENDROOT
BRANCH   1   2
ATOM      2  C   UNL     1       3.168   7.482  17.901  0.00  0.00    +0.000 C 
ATOM      3  O   UNL     1       2.873   7.073  19.015  0.00  0.00    +0.000 OA
BRANCH   2   4
ATOM      4  C   UNL     1       4.354   7.024  17.082  0.00  0.00    +0.000 C 
BRANCH   4   5
ATOM      5  N   UNL     1       5.445   6.540  17.932  0.00  0.00    +0.000 NA
ATOM      6  H   UNL     1       6.223   7.187  18.072  0.00  0.00    +0.000 HD
BRANCH   5   7
ATOM      7  S   UNL     1       5.890   4.933  17.753  0.00  0.00    +0.000 S 
ATOM      8  O   UNL     1       6.849   4.622  18.791  0.00  0.00    +0.000 OA
ATOM      9  O   UNL     1       6.179   4.732  16.352  0.00  0.00    +0.000 OA
BRANCH   7  14
ATOM     10  C   UNL     1       0.658   2.122  18.999  0.00  0.00    +0.000 C 
ATOM     11  C   UNL     1       1.973   2.775  18.692  0.00  0.00    +0.000 A 
ATOM     12  C   UNL     1       2.809   3.219  19.726  0.00  0.00    +0.000 A 
ATOM     13  C   UNL     1       4.012   3.859  19.433  0.00  0.00    +0.000 A 
ATOM     14  C   UNL     1       4.385   4.054  18.098  0.00  0.00    +0.000 A 
ATOM     15  C   UNL     1       3.572   3.610  17.060  0.00  0.00    +0.000 A 
ATOM     16  C   UNL     1       2.361   2.976  17.358  0.00  0.00    +0.000 A 
ENDBRANCH   7  14
ENDBRANCH   5   7
ENDBRANCH   4   5
ENDBRANCH   2   4
ENDBRANCH   1   2
BRANCH   1  17
ATOM     17  C   UNL     1       1.329   8.964  17.840  0.00  0.00    +0.000 C 
BRANCH  17  18
ATOM     18  C   UNL     1       1.518  10.353  18.458  0.00  0.00    +0.000 C 
ATOM     19  O   UNL     1       2.407  11.113  18.043  0.00  0.00    +0.000 OA
BRANCH  18  20
ATOM     20  C   UNL     1       0.607  10.807  19.569  0.00  0.00    +0.000 A 
ATOM     21  C   UNL     1      -0.256  11.833  19.367  0.00  0.00    +0.000 A 
ATOM     22  N   UNL     1      -1.137  12.186  20.389  0.00  0.00    +0.000 N 
ATOM     23  C   UNL     1      -2.087  13.286  20.258  0.00  0.00    +0.000 C 
ATOM     24  C   UNL     1      -1.211  11.520  21.615  0.00  0.00    +0.000 A 
ATOM     25  O   UNL     1      -2.023  11.844  22.483  0.00  0.00    +0.000 OA
ATOM     26  N   UNL     1      -0.319  10.487  21.802  0.00  0.00    +0.000 N 
ATOM     27  C   UNL     1      -0.329   9.762  23.061  0.00  0.00    +0.000 C 
ATOM     28  C   UNL     1       0.630  10.123  20.878  0.00  0.00    +0.000 A 
ATOM     29  O   UNL     1       1.463   9.248  21.111  0.00  0.00    +0.000 OA
BRANCH  21  30
ATOM     30  N   UNL     1      -0.271  12.544  18.171  0.00  0.00    +0.000 N 
ATOM     31  H   UNL     1      -0.512  13.535  18.306  0.00  0.00    +0.000 HD
ATOM     32  H   UNL     1       0.583  12.474  17.632  0.00  0.00    +0.000 HD
ENDBRANCH  21  30
ENDBRANCH  18  20
ENDBRANCH  17  18
ENDBRANCH   1  17
TORSDOF 9
ENDMDL
