MODEL 1
REMARK VINA RESULT:      -8.0      0.000      0.000
REMARK  Name = 
REMARK  6 active torsions:
REMARK  status: ('A' for Active; 'I' for Inactive)
REMARK    1  A    between atoms: C_2  and  C_26
REMARK    2  A    between atoms: N_3  and  C_4
REMARK    3  A    between atoms: C_8  and  C_9
REMARK    4  A    between atoms: C_9  and  N_10
REMARK    5  A    between atoms: C_13  and  C_14
REMARK    6  A    between atoms: N_16  and  C_17
REMARK                            x       y       z     vdW  Elec       q    Type
REMARK                         _______ _______ _______ _____ _____    ______ ____
ROOT
ATOM      1  C   UNL     1       1.747   5.592  21.208  0.00  0.00    +0.000 C 
ENDROOT
BRANCH   1   6
ATOM      2  C   UNL     1       1.108   9.183  19.923  0.00  0.00    +0.000 A 
ATOM      3  C   UNL     1       1.736   9.104  18.680  0.00  0.00    +0.000 A 
ATOM      4  C   UNL     1       2.384   7.938  18.281  0.00  0.00    +0.000 A 
ATOM      5  C   UNL     1       2.409   6.827  19.119  0.00  0.00    +0.000 A 
ATOM      6  C   UNL     1       1.799   6.867  20.383  0.00  0.00    +0.000 A 
ATOM      7  C   UNL     1       1.170   8.067  20.786  0.00  0.00    +0.000 A 
BRANCH   2  10
ATOM      8  O   UNL     1      -1.449  10.271  18.935  0.00  0.00    +0.000 OA
ATOM      9  C   UNL     1      -0.796  10.814  19.815  0.00  0.00    +0.000 C 
ATOM     10  N   UNL     1       0.397  10.335  20.343  0.00  0.00    +0.000 N 
ATOM     11  H   UNL     1       0.733  10.795  21.176  0.00  0.00    +0.000 HD
BRANCH   9  12
ATOM     12  C   UNL     1      -1.302  12.022  20.447  0.00  0.00    +0.000 A 
ATOM     13  C   UNL     1      -1.288  12.479  21.756  0.00  0.00    +0.000 A 
ATOM     14  C   UNL     1      -1.984  13.714  21.798  0.00  0.00    +0.000 A 
ATOM     15  C   UNL     1      -2.378  14.007  20.515  0.00  0.00    +0.000 A 
ATOM     16  N   UNL     1      -1.922  13.007  19.700  0.00  0.00    +0.000 N 
ATOM     17  H   UNL     1      -2.036  12.956  18.694  0.00  0.00    +0.000 HD
ENDBRANCH   9  12
ENDBRANCH   2  10
ENDBRANCH   1   6
BRANCH   1  18
ATOM     18  N   UNL     1       2.023   4.301  20.557  0.00  0.00    +0.000 NA
ATOM     19  C   UNL     1       1.098   3.952  19.474  0.00  0.00    +0.000 C 
ATOM     20  C   UNL     1       1.344   2.538  18.918  0.00  0.00    +0.000 C 
ATOM     21  C   UNL     1       2.822   2.253  18.592  0.00  0.00    +0.000 C 
ATOM     22  C   UNL     1       3.688   2.677  19.780  0.00  0.00    +0.000 C 
ATOM     23  C   UNL     1       3.422   4.131  20.182  0.00  0.00    +0.000 C 
BRANCH  21  24
ATOM     24  C   UNL     1       3.286   2.936  17.302  0.00  0.00    +0.000 C 
ATOM     25  O   UNL     1       2.552   3.075  16.327  0.00  0.00    +0.000 OA
ATOM     26  N   UNL     1       4.596   3.397  17.323  0.00  0.00    +0.000 N 
ATOM     27  H   UNL     1       5.230   3.043  18.029  0.00  0.00    +0.000 HD
BRANCH  26  28
ATOM     28  C   UNL     1       5.132   4.177  16.209  0.00  0.00    +0.000 C 
ATOM     29  C   UNL     1       4.770   5.667  16.320  0.00  0.00    +0.000 C 
ATOM     30  C   UNL     1       5.722   6.526  17.151  0.00  0.00    +0.000 C 
ATOM     31  C   UNL     1       7.197   6.234  16.900  0.00  0.00    +0.000 C 
ATOM     32  C   UNL     1       7.506   4.744  16.955  0.00  0.00    +0.000 C 
ATOM     33  C   UNL     1       6.628   3.949  15.992  0.00  0.00    +0.000 C 
ENDBRANCH  26  28
ENDBRANCH  21  24
ENDBRANCH   1  18
TORSDOF 6
ENDMDL
MODEL 2
REMARK VINA RESULT:      -8.0      2.905      4.338
REMARK  Name = 
REMARK  6 active torsions:
REMARK  status: ('A' for Active; 'I' for Inactive)
REMARK    1  A    between atoms: C_2  and  C_26
REMARK    2  A    between atoms: N_3  and  C_4
REMARK    3  A    between atoms: C_8  and  C_9
REMARK    4  A    between atoms: C_9  and  N_10
REMARK    5  A    between atoms: C_13  and  C_14
REMARK    6  A    between atoms: N_16  and  C_17
REMARK                            x       y       z     vdW  Elec       q    Type
REMARK                         _______ _______ _______ _____ _____    ______ ____
ROOT
ATOM      1  C   UNL     1       3.897   7.112  17.607  0.00  0.00    +0.000 C 
ENDROOT
BRANCH   1   6
ATOM      2  C   UNL     1       1.252   7.899  20.317  0.00  0.00    +0.000 A 
ATOM      3  C   UNL     1       1.260   6.689  21.013  0.00  0.00    +0.000 A 
ATOM      4  C   UNL     1       2.066   5.633  20.597  0.00  0.00    +0.000 A 
ATOM      5  C   UNL     1       2.884   5.771  19.479  0.00  0.00    +0.000 A 
ATOM      6  C   UNL     1       2.898   6.967  18.744  0.00  0.00    +0.000 A 
ATOM      7  C   UNL     1       2.054   8.021  19.161  0.00  0.00    +0.000 A 
BRANCH   2  10
ATOM      8  O   UNL     1       1.512   9.541  22.753  0.00  0.00    +0.000 OA
ATOM      9  C   UNL     1       0.638   9.730  21.919  0.00  0.00    +0.000 C 
ATOM     10  N   UNL     1       0.483   9.012  20.739  0.00  0.00    +0.000 N 
ATOM     11  H   UNL     1      -0.173   9.387  20.070  0.00  0.00    +0.000 HD
BRANCH   9  12
ATOM     12  C   UNL     1      -0.296  10.832  22.089  0.00  0.00    +0.000 A 
ATOM     13  C   UNL     1      -1.180  11.172  23.100  0.00  0.00    +0.000 A 
ATOM     14  C   UNL     1      -1.883  12.337  22.698  0.00  0.00    +0.000 A 
ATOM     15  C   UNL     1      -1.393  12.708  21.469  0.00  0.00    +0.000 A 
ATOM     16  N   UNL     1      -0.405  11.824  21.130  0.00  0.00    +0.000 N 
ATOM     17  H   UNL     1       0.160  11.852  20.289  0.00  0.00    +0.000 HD
ENDBRANCH   9  12
ENDBRANCH   2  10
ENDBRANCH   1   6
BRANCH   1  18
ATOM     18  N   UNL     1       4.914   6.067  17.405  0.00  0.00    +0.000 NA
ATOM     19  C   UNL     1       4.452   4.904  16.641  0.00  0.00    +0.000 C 
ATOM     20  C   UNL     1       5.507   3.785  16.573  0.00  0.00    +0.000 C 
ATOM     21  C   UNL     1       6.907   4.282  16.167  0.00  0.00    +0.000 C 
ATOM     22  C   UNL     1       7.268   5.506  17.011  0.00  0.00    +0.000 C 
ATOM     23  C   UNL     1       6.189   6.589  16.925  0.00  0.00    +0.000 C 
BRANCH  21  24
ATOM     24  C   UNL     1       7.014   4.594  14.672  0.00  0.00    +0.000 C 
ATOM     25  O   UNL     1       7.615   5.575  14.242  0.00  0.00    +0.000 OA
ATOM     26  N   UNL     1       6.387   3.677  13.836  0.00  0.00    +0.000 N 
ATOM     27  H   UNL     1       5.703   3.043  14.230  0.00  0.00    +0.000 HD
BRANCH  26  28
ATOM     28  C   UNL     1       6.513   3.781  12.385  0.00  0.00    +0.000 C 
ATOM     29  C   UNL     1       7.055   2.487  11.757  0.00  0.00    +0.000 C 
ATOM     30  C   UNL     1       6.013   1.422  11.415  0.00  0.00    +0.000 C 
ATOM     31  C   UNL     1       4.750   1.979  10.766  0.00  0.00    +0.000 C 
ATOM     32  C   UNL     1       4.187   3.168  11.532  0.00  0.00    +0.000 C 
ATOM     33  C   UNL     1       5.229   4.268  11.713  0.00  0.00    +0.000 C 
ENDBRANCH  26  28
ENDBRANCH  21  24
ENDBRANCH   1  18
TORSDOF 6
ENDMDL
MODEL 3
REMARK VINA RESULT:      -7.9      3.122      9.262
REMARK  Name = 
REMARK  6 active torsions:
REMARK  status: ('A' for Active; 'I' for Inactive)
REMARK    1  A    between atoms: C_2  and  C_26
REMARK    2  A    between atoms: N_3  and  C_4
REMARK    3  A    between atoms: C_8  and  C_9
REMARK    4  A    between atoms: C_9  and  N_10
REMARK    5  A    between atoms: C_13  and  C_14
REMARK    6  A    between atoms: N_16  and  C_17
REMARK                            x       y       z     vdW  Elec       q    Type
REMARK                         _______ _______ _______ _____ _____    ______ ____
ROOT
ATOM      1  C   UNL     1       1.866   7.360  20.705  0.00  0.00    +0.000 C 
ENDROOT
BRANCH   1   6
ATOM      2  C   UNL     1       3.045   4.708  18.149  0.00  0.00    +0.000 A 
ATOM      3  C   UNL     1       2.270   3.623  18.561  0.00  0.00    +0.000 A 
ATOM      4  C   UNL     1       1.420   3.730  19.659  0.00  0.00    +0.000 A 
ATOM      5  C   UNL     1       1.326   4.929  20.360  0.00  0.00    +0.000 A 
ATOM      6  C   UNL     1       2.096   6.041  19.986  0.00  0.00    +0.000 A 
ATOM      7  C   UNL     1       2.975   5.910  18.888  0.00  0.00    +0.000 A 
BRANCH   2  10
ATOM      8  O   UNL     1       5.986   4.833  17.980  0.00  0.00    +0.000 OA
ATOM      9  C   UNL     1       5.271   4.744  16.992  0.00  0.00    +0.000 C 
ATOM     10  N   UNL     1       3.884   4.652  17.009  0.00  0.00    +0.000 N 
ATOM     11  H   UNL     1       3.441   4.414  16.133  0.00  0.00    +0.000 HD
BRANCH   9  12
ATOM     12  C   UNL     1       5.872   4.650  15.672  0.00  0.00    +0.000 A 
ATOM     13  C   UNL     1       5.497   3.998  14.508  0.00  0.00    +0.000 A 
ATOM     14  C   UNL     1       6.507   4.216  13.535  0.00  0.00    +0.000 A 
ATOM     15  C   UNL     1       7.459   5.025  14.107  0.00  0.00    +0.000 A 
ATOM     16  N   UNL     1       7.046   5.320  15.378  0.00  0.00    +0.000 N 
ATOM     17  H   UNL     1       7.529   5.918  16.039  0.00  0.00    +0.000 HD
ENDBRANCH   9  12
ENDBRANCH   2  10
ENDBRANCH   1   6
BRANCH   1  18
ATOM     18  N   UNL     1       1.164   8.450  20.007  0.00  0.00    +0.000 NA
ATOM     19  C   UNL     1       0.316   9.281  20.867  0.00  0.00    +0.000 C 
ATOM     20  C   UNL     1      -0.498  10.316  20.071  0.00  0.00    +0.000 C 
ATOM     21  C   UNL     1       0.344  11.119  19.062  0.00  0.00    +0.000 C 
ATOM     22  C   UNL     1       1.200  10.151  18.242  0.00  0.00    +0.000 C 
ATOM     23  C   UNL     1       2.036   9.237  19.142  0.00  0.00    +0.000 C 
BRANCH  21  24
ATOM     24  C   UNL     1       1.212  12.187  19.733  0.00  0.00    +0.000 C 
ATOM     25  O   UNL     1       1.399  12.221  20.947  0.00  0.00    +0.000 OA
ATOM     26  N   UNL     1       1.783  13.109  18.864  0.00  0.00    +0.000 N 
ATOM     27  H   UNL     1       1.406  13.199  17.928  0.00  0.00    +0.000 HD
BRANCH  26  28
ATOM     28  C   UNL     1       2.732  14.107  19.351  0.00  0.00    +0.000 C 
ATOM     29  C   UNL     1       3.864  14.368  18.345  0.00  0.00    +0.000 C 
ATOM     30  C   UNL     1       3.578  15.418  17.273  0.00  0.00    +0.000 C 
ATOM     31  C   UNL     1       2.880  16.666  17.801  0.00  0.00    +0.000 C 
ATOM     32  C   UNL     1       1.676  16.329  18.669  0.00  0.00    +0.000 C 
ATOM     33  C   UNL     1       2.050  15.394  19.816  0.00  0.00    +0.000 C 
ENDBRANCH  26  28
ENDBRANCH  21  24
ENDBRANCH   1  18
TORSDOF 6
ENDMDL
MODEL 4
REMARK VINA RESULT:      -7.9      2.987      4.409
REMARK  Name = 
REMARK  6 active torsions:
REMARK  status: ('A' for Active; 'I' for Inactive)
REMARK    1  A    between atoms: C_2  and  C_26
REMARK    2  A    between atoms: N_3  and  C_4
REMARK    3  A    between atoms: C_8  and  C_9
REMARK    4  A    between atoms: C_9  and  N_10
REMARK    5  A    between atoms: C_13  and  C_14
REMARK    6  A    between atoms: N_16  and  C_17
REMARK                            x       y       z     vdW  Elec       q    Type
REMARK                         _______ _______ _______ _____ _____    ______ ____
ROOT
ATOM      1  C   UNL     1       4.043   7.073  17.817  0.00  0.00    +0.000 C 
ENDROOT
BRANCH   1   6
ATOM      2  C   UNL     1       1.305   7.686  20.480  0.00  0.00    +0.000 A 
ATOM      3  C   UNL     1       1.285   6.431  21.090  0.00  0.00    +0.000 A 
ATOM      4  C   UNL     1       2.103   5.402  20.631  0.00  0.00    +0.000 A 
ATOM      5  C   UNL     1       2.960   5.613  19.555  0.00  0.00    +0.000 A 
ATOM      6  C   UNL     1       3.004   6.856  18.905  0.00  0.00    +0.000 A 
ATOM      7  C   UNL     1       2.148   7.883  19.363  0.00  0.00    +0.000 A 
BRANCH   2  10
ATOM      8  O   UNL     1       1.840   9.558  22.695  0.00  0.00    +0.000 OA
ATOM      9  C   UNL     1       0.819   9.604  22.022  0.00  0.00    +0.000 C 
ATOM     10  N   UNL     1       0.524   8.771  20.949  0.00  0.00    +0.000 N 
ATOM     11  H   UNL     1      -0.271   9.033  20.385  0.00  0.00    +0.000 HD
BRANCH   9  12
ATOM     12  C   UNL     1      -0.166  10.643  22.276  0.00  0.00    +0.000 A 
ATOM     13  C   UNL     1      -0.343  11.921  21.770  0.00  0.00    +0.000 A 
ATOM     14  C   UNL     1      -1.455  12.507  22.429  0.00  0.00    +0.000 A 
ATOM     15  C   UNL     1      -1.958  11.567  23.297  0.00  0.00    +0.000 A 
ATOM     16  N   UNL     1      -1.206  10.432  23.164  0.00  0.00    +0.000 N 
ATOM     17  H   UNL     1      -1.351   9.558  23.658  0.00  0.00    +0.000 HD
ENDBRANCH   9  12
ENDBRANCH   2  10
ENDBRANCH   1   6
BRANCH   1  18
ATOM     18  N   UNL     1       4.978   5.986  17.486  0.00  0.00    +0.000 NA
ATOM     19  C   UNL     1       4.382   4.871  16.743  0.00  0.00    +0.000 C 
ATOM     20  C   UNL     1       5.363   3.703  16.541  0.00  0.00    +0.000 C 
ATOM     21  C   UNL     1       6.741   4.141  16.009  0.00  0.00    +0.000 C 
ATOM     22  C   UNL     1       7.248   5.319  16.843  0.00  0.00    +0.000 C 
ATOM     23  C   UNL     1       6.225   6.457  16.894  0.00  0.00    +0.000 C 
BRANCH  21  24
ATOM     24  C   UNL     1       6.714   4.493  14.519  0.00  0.00    +0.000 C 
ATOM     25  O   UNL     1       7.324   5.454  14.056  0.00  0.00    +0.000 OA
ATOM     26  N   UNL     1       5.958   3.637  13.728  0.00  0.00    +0.000 N 
ATOM     27  H   UNL     1       5.282   3.028  14.173  0.00  0.00    +0.000 HD
BRANCH  26  28
ATOM     28  C   UNL     1       5.944   3.779  12.274  0.00  0.00    +0.000 C 
ATOM     29  C   UNL     1       7.352   3.673  11.669  0.00  0.00    +0.000 C 
ATOM     30  C   UNL     1       7.839   2.260  11.351  0.00  0.00    +0.000 C 
ATOM     31  C   UNL     1       6.784   1.376  10.696  0.00  0.00    +0.000 C 
ATOM     32  C   UNL     1       5.456   1.417  11.441  0.00  0.00    +0.000 C 
ATOM     33  C   UNL     1       4.941   2.844  11.598  0.00  0.00    +0.000 C 
ENDBRANCH  26  28
ENDBRANCH  21  24
ENDBRANCH   1  18
TORSDOF 6
ENDMDL
MODEL 5
REMARK VINA RESULT:      -7.9      0.971      1.032
REMARK  Name = 
REMARK  6 active torsions:
REMARK  status: ('A' for Active; 'I' for Inactive)
REMARK    1  A    between atoms: C_2  and  C_26
REMARK    2  A    between atoms: N_3  and  C_4
REMARK    3  A    between atoms: C_8  and  C_9
REMARK    4  A    between atoms: C_9  and  N_10
REMARK    5  A    between atoms: C_13  and  C_14
REMARK    6  A    between atoms: N_16  and  C_17
REMARK                            x       y       z     vdW  Elec       q    Type
REMARK                         _______ _______ _______ _____ _____    ______ ____
ROOT
ATOM      1  C   UNL     1       1.841   5.873  21.232  0.00  0.00    +0.000 C 
ENDROOT
BRANCH   1   6
ATOM      2  C   UNL     1       0.914   9.291  19.679  0.00  0.00    +0.000 A 
ATOM      3  C   UNL     1       1.640   9.215  18.490  0.00  0.00    +0.000 A 
ATOM      4  C   UNL     1       2.439   8.109  18.212  0.00  0.00    +0.000 A 
ATOM      5  C   UNL     1       2.521   7.056  19.119  0.00  0.00    +0.000 A 
ATOM      6  C   UNL     1       1.816   7.098  20.333  0.00  0.00    +0.000 A 
ATOM      7  C   UNL     1       1.032   8.239  20.614  0.00  0.00    +0.000 A 
BRANCH   2  10
ATOM      8  O   UNL     1       1.409  11.678  21.339  0.00  0.00    +0.000 OA
ATOM      9  C   UNL     1       0.337  11.465  20.791  0.00  0.00    +0.000 C 
ATOM     10  N   UNL     1       0.053  10.377  19.974  0.00  0.00    +0.000 N 
ATOM     11  H   UNL     1      -0.813  10.421  19.457  0.00  0.00    +0.000 HD
BRANCH   9  12
ATOM     12  C   UNL     1      -0.740  12.436  20.910  0.00  0.00    +0.000 A 
ATOM     13  C   UNL     1      -2.029  12.482  20.404  0.00  0.00    +0.000 A 
ATOM     14  C   UNL     1      -2.617  13.709  20.807  0.00  0.00    +0.000 A 
ATOM     15  C   UNL     1      -1.693  14.372  21.579  0.00  0.00    +0.000 A 
ATOM     16  N   UNL     1      -0.583  13.578  21.675  0.00  0.00    +0.000 N 
ATOM     17  H   UNL     1       0.258  13.787  22.201  0.00  0.00    +0.000 HD
ENDBRANCH   9  12
ENDBRANCH   2  10
ENDBRANCH   1   6
BRANCH   1  18
ATOM     18  N   UNL     1       2.056   4.544  20.635  0.00  0.00    +0.000 NA
ATOM     19  C   UNL     1       1.100   4.184  19.583  0.00  0.00    +0.000 C 
ATOM     20  C   UNL     1       1.283   2.739  19.087  0.00  0.00    +0.000 C 
ATOM     21  C   UNL     1       2.744   2.383  18.751  0.00  0.00    +0.000 C 
ATOM     22  C   UNL     1       3.645   2.825  19.906  0.00  0.00    +0.000 C 
ATOM     23  C   UNL     1       3.442   4.304  20.246  0.00  0.00    +0.000 C 
BRANCH  21  24
ATOM     24  C   UNL     1       3.210   2.990  17.425  0.00  0.00    +0.000 C 
ATOM     25  O   UNL     1       2.481   3.067  16.440  0.00  0.00    +0.000 OA
ATOM     26  N   UNL     1       4.519   3.459  17.425  0.00  0.00    +0.000 N 
ATOM     27  H   UNL     1       5.150   3.151  18.154  0.00  0.00    +0.000 HD
BRANCH  26  28
ATOM     28  C   UNL     1       5.056   4.174  16.269  0.00  0.00    +0.000 C 
ATOM     29  C   UNL     1       4.744   5.678  16.323  0.00  0.00    +0.000 C 
ATOM     30  C   UNL     1       5.739   6.540  17.099  0.00  0.00    +0.000 C 
ATOM     31  C   UNL     1       7.199   6.190  16.833  0.00  0.00    +0.000 C 
ATOM     32  C   UNL     1       7.461   4.694  16.946  0.00  0.00    +0.000 C 
ATOM     33  C   UNL     1       6.539   3.889  16.035  0.00  0.00    +0.000 C 
ENDBRANCH  26  28
ENDBRANCH  21  24
ENDBRANCH   1  18
TORSDOF 6
ENDMDL
MODEL 6
REMARK VINA RESULT:      -7.8      1.141      1.215
REMARK  Name = 
REMARK  6 active torsions:
REMARK  status: ('A' for Active; 'I' for Inactive)
REMARK    1  A    between atoms: C_2  and  C_26
REMARK    2  A    between atoms: N_3  and  C_4
REMARK    3  A    between atoms: C_8  and  C_9
REMARK    4  A    between atoms: C_9  and  N_10
REMARK    5  A    between atoms: C_13  and  C_14
REMARK    6  A    between atoms: N_16  and  C_17
REMARK                            x       y       z     vdW  Elec       q    Type
REMARK                         _______ _______ _______ _____ _____    ______ ____
ROOT
ATOM      1  C   UNL     1       2.057   5.920  20.811  0.00  0.00    +0.000 C 
ENDROOT
BRANCH   1   6
ATOM      2  C   UNL     1       0.931   9.439  19.668  0.00  0.00    +0.000 A 
ATOM      3  C   UNL     1       1.565   9.498  18.426  0.00  0.00    +0.000 A 
ATOM      4  C   UNL     1       2.368   8.449  17.985  0.00  0.00    +0.000 A 
ATOM      5  C   UNL     1       2.545   7.319  18.778  0.00  0.00    +0.000 A 
ATOM      6  C   UNL     1       1.934   7.224  20.038  0.00  0.00    +0.000 A 
ATOM      7  C   UNL     1       1.145   8.307  20.486  0.00  0.00    +0.000 A 
BRANCH   2  10
ATOM      8  O   UNL     1       1.561  11.848  21.248  0.00  0.00    +0.000 OA
ATOM      9  C   UNL     1       0.424  11.567  20.898  0.00  0.00    +0.000 C 
ATOM     10  N   UNL     1       0.068  10.465  20.129  0.00  0.00    +0.000 N 
ATOM     11  H   UNL     1      -0.877  10.452  19.776  0.00  0.00    +0.000 HD
BRANCH   9  12
ATOM     12  C   UNL     1      -0.674  12.463  21.223  0.00  0.00    +0.000 A 
ATOM     13  C   UNL     1      -1.279  12.820  22.418  0.00  0.00    +0.000 A 
ATOM     14  C   UNL     1      -2.350  13.703  22.123  0.00  0.00    +0.000 A 
ATOM     15  C   UNL     1      -2.358  13.898  20.763  0.00  0.00    +0.000 A 
ATOM     16  N   UNL     1      -1.317  13.185  20.234  0.00  0.00    +0.000 N 
ATOM     17  H   UNL     1      -1.052  13.151  19.256  0.00  0.00    +0.000 HD
ENDBRANCH   9  12
ENDBRANCH   2  10
ENDBRANCH   1   6
BRANCH   1  18
ATOM     18  N   UNL     1       2.280   4.665  20.075  0.00  0.00    +0.000 NA
ATOM     19  C   UNL     1       1.652   4.612  18.751  0.00  0.00    +0.000 C 
ATOM     20  C   UNL     1       1.799   3.234  18.082  0.00  0.00    +0.000 C 
ATOM     21  C   UNL     1       3.237   2.684  18.112  0.00  0.00    +0.000 C 
ATOM     22  C   UNL     1       3.793   2.814  19.532  0.00  0.00    +0.000 C 
ATOM     23  C   UNL     1       3.678   4.248  20.054  0.00  0.00    +0.000 C 
BRANCH  21  24
ATOM     24  C   UNL     1       4.154   3.373  17.098  0.00  0.00    +0.000 C 
ATOM     25  O   UNL     1       3.786   3.663  15.962  0.00  0.00    +0.000 OA
ATOM     26  N   UNL     1       5.433   3.657  17.563  0.00  0.00    +0.000 N 
ATOM     27  H   UNL     1       5.769   3.184  18.392  0.00  0.00    +0.000 HD
BRANCH  26  28
ATOM     28  C   UNL     1       6.372   4.423  16.747  0.00  0.00    +0.000 C 
ATOM     29  C   UNL     1       5.769   5.751  16.262  0.00  0.00    +0.000 C 
ATOM     30  C   UNL     1       5.906   6.935  17.219  0.00  0.00    +0.000 C 
ATOM     31  C   UNL     1       7.278   7.046  17.873  0.00  0.00    +0.000 C 
ATOM     32  C   UNL     1       7.743   5.722  18.463  0.00  0.00    +0.000 C 
ATOM     33  C   UNL     1       7.731   4.605  17.423  0.00  0.00    +0.000 C 
ENDBRANCH  26  28
ENDBRANCH  21  24
ENDBRANCH   1  18
TORSDOF 6
ENDMDL
MODEL 7
REMARK VINA RESULT:      -7.8      2.786      9.533
REMARK  Name = 
REMARK  6 active torsions:
REMARK  status: ('A' for Active; 'I' for Inactive)
REMARK    1  A    between atoms: C_2  and  C_26
REMARK    2  A    between atoms: N_3  and  C_4
REMARK    3  A    between atoms: C_8  and  C_9
REMARK    4  A    between atoms: C_9  and  N_10
REMARK    5  A    between atoms: C_13  and  C_14
REMARK    6  A    between atoms: N_16  and  C_17
REMARK                            x       y       z     vdW  Elec       q    Type
REMARK                         _______ _______ _______ _____ _____    ______ ____
ROOT
ATOM      1  C   UNL     1       2.598   6.905  20.003  0.00  0.00    +0.000 C 
ENDROOT
BRANCH   1   6
ATOM      2  C   UNL     1       3.692   4.458  17.216  0.00  0.00    +0.000 A 
ATOM      3  C   UNL     1       2.927   3.344  17.567  0.00  0.00    +0.000 A 
ATOM      4  C   UNL     1       2.110   3.366  18.695  0.00  0.00    +0.000 A 
ATOM      5  C   UNL     1       2.041   4.507  19.488  0.00  0.00    +0.000 A 
ATOM      6  C   UNL     1       2.802   5.646  19.178  0.00  0.00    +0.000 A 
ATOM      7  C   UNL     1       3.648   5.599  18.048  0.00  0.00    +0.000 A 
BRANCH   2  10
ATOM      8  O   UNL     1       6.626   4.310  16.960  0.00  0.00    +0.000 OA
ATOM      9  C   UNL     1       5.885   4.443  15.997  0.00  0.00    +0.000 C 
ATOM     10  N   UNL     1       4.496   4.489  16.050  0.00  0.00    +0.000 N 
ATOM     11  H   UNL     1       4.013   4.432  15.166  0.00  0.00    +0.000 HD
BRANCH   9  12
ATOM     12  C   UNL     1       6.445   4.489  14.655  0.00  0.00    +0.000 A 
ATOM     13  C   UNL     1       6.125   3.834  13.476  0.00  0.00    +0.000 A 
ATOM     14  C   UNL     1       7.056   4.234  12.483  0.00  0.00    +0.000 A 
ATOM     15  C   UNL     1       7.903   5.149  13.061  0.00  0.00    +0.000 A 
ATOM     16  N   UNL     1       7.499   5.332  14.355  0.00  0.00    +0.000 N 
ATOM     17  H   UNL     1       7.915   5.967  15.028  0.00  0.00    +0.000 HD
ENDBRANCH   9  12
ENDBRANCH   2  10
ENDBRANCH   1   6
BRANCH   1  18
ATOM     18  N   UNL     1       1.668   7.940  19.522  0.00  0.00    +0.000 NA
ATOM     19  C   UNL     1       1.281   8.932  20.530  0.00  0.00    +0.000 C 
ATOM     20  C   UNL     1       0.207   9.908  20.017  0.00  0.00    +0.000 C 
ATOM     21  C   UNL     1       0.532  10.513  18.639  0.00  0.00    +0.000 C 
ATOM     22  C   UNL     1       0.943   9.391  17.683  0.00  0.00    +0.000 C 
ATOM     23  C   UNL     1       2.082   8.546  18.261  0.00  0.00    +0.000 C 
BRANCH  21  24
ATOM     24  C   UNL     1       1.611  11.598  18.709  0.00  0.00    +0.000 C 
ATOM     25  O   UNL     1       2.567  11.631  17.939  0.00  0.00    +0.000 OA
ATOM     26  N   UNL     1       1.420  12.550  19.703  0.00  0.00    +0.000 N 
ATOM     27  H   UNL     1       0.778  12.347  20.459  0.00  0.00    +0.000 HD
BRANCH  26  28
ATOM     28  C   UNL     1       2.301  13.710  19.806  0.00  0.00    +0.000 C 
ATOM     29  C   UNL     1       1.854  14.860  18.890  0.00  0.00    +0.000 C 
ATOM     30  C   UNL     1       0.815  15.817  19.476  0.00  0.00    +0.000 C 
ATOM     31  C   UNL     1       1.084  16.209  20.924  0.00  0.00    +0.000 C 
ATOM     32  C   UNL     1       1.373  14.999  21.803  0.00  0.00    +0.000 C 
ATOM     33  C   UNL     1       2.521  14.160  21.250  0.00  0.00    +0.000 C 
ENDBRANCH  26  28
ENDBRANCH  21  24
ENDBRANCH   1  18
TORSDOF 6
ENDMDL
MODEL 8
REMARK VINA RESULT:      -7.8      2.947      9.453
REMARK  Name = 
REMARK  6 active torsions:
REMARK  status: ('A' for Active; 'I' for Inactive)
REMARK    1  A    between atoms: C_2  and  C_26
REMARK    2  A    between atoms: N_3  and  C_4
REMARK    3  A    between atoms: C_8  and  C_9
REMARK    4  A    between atoms: C_9  and  N_10
REMARK    5  A    between atoms: C_13  and  C_14
REMARK    6  A    between atoms: N_16  and  C_17
REMARK                            x       y       z     vdW  Elec       q    Type
REMARK                         _______ _______ _______ _____ _____    ______ ____
ROOT
ATOM      1  C   UNL     1       2.796   6.898  19.909  0.00  0.00    +0.000 C 
ENDROOT
BRANCH   1   6
ATOM      2  C   UNL     1       3.592   4.452  17.022  0.00  0.00    +0.000 A 
ATOM      3  C   UNL     1       2.662   3.449  17.299  0.00  0.00    +0.000 A 
ATOM      4  C   UNL     1       1.827   3.538  18.410  0.00  0.00    +0.000 A 
ATOM      5  C   UNL     1       1.905   4.638  19.260  0.00  0.00    +0.000 A 
ATOM      6  C   UNL     1       2.834   5.664  19.024  0.00  0.00    +0.000 A 
ATOM      7  C   UNL     1       3.695   5.546  17.910  0.00  0.00    +0.000 A 
BRANCH   2  10
ATOM      8  O   UNL     1       6.486   4.973  16.790  0.00  0.00    +0.000 OA
ATOM      9  C   UNL     1       5.784   4.704  15.826  0.00  0.00    +0.000 C 
ATOM     10  N   UNL     1       4.424   4.419  15.875  0.00  0.00    +0.000 N 
ATOM     11  H   UNL     1       4.014   4.050  15.030  0.00  0.00    +0.000 HD
BRANCH   9  12
ATOM     12  C   UNL     1       6.384   4.586  14.507  0.00  0.00    +0.000 A 
ATOM     13  C   UNL     1       6.070   3.825  13.391  0.00  0.00    +0.000 A 
ATOM     14  C   UNL     1       7.047   4.081  12.394  0.00  0.00    +0.000 A 
ATOM     15  C   UNL     1       7.916   5.016  12.902  0.00  0.00    +0.000 A 
ATOM     16  N   UNL     1       7.482   5.350  14.156  0.00  0.00    +0.000 N 
ATOM     17  H   UNL     1       7.906   6.034  14.773  0.00  0.00    +0.000 HD
ENDBRANCH   9  12
ENDBRANCH   2  10
ENDBRANCH   1   6
BRANCH   1  18
ATOM     18  N   UNL     1       1.691   7.859  19.759  0.00  0.00    +0.000 NA
ATOM     19  C   UNL     1       1.060   8.267  21.019  0.00  0.00    +0.000 C 
ATOM     20  C   UNL     1      -0.172   9.162  20.800  0.00  0.00    +0.000 C 
ATOM     21  C   UNL     1       0.077  10.325  19.821  0.00  0.00    +0.000 C 
ATOM     22  C   UNL     1       0.756   9.783  18.562  0.00  0.00    +0.000 C 
ATOM     23  C   UNL     1       2.021   8.990  18.900  0.00  0.00    +0.000 C 
BRANCH  21  24
ATOM     24  C   UNL     1       0.898  11.457  20.445  0.00  0.00    +0.000 C 
ATOM     25  O   UNL     1       1.233  11.458  21.627  0.00  0.00    +0.000 OA
ATOM     26  N   UNL     1       1.246  12.479  19.570  0.00  0.00    +0.000 N 
ATOM     27  H   UNL     1       0.745  12.566  18.694  0.00  0.00    +0.000 HD
BRANCH  26  28
ATOM     28  C   UNL     1       2.132  13.559  19.997  0.00  0.00    +0.000 C 
ATOM     29  C   UNL     1       3.224  13.856  18.958  0.00  0.00    +0.000 C 
ATOM     30  C   UNL     1       2.845  14.840  17.850  0.00  0.00    +0.000 C 
ATOM     31  C   UNL     1       2.072  16.057  18.344  0.00  0.00    +0.000 C 
ATOM     32  C   UNL     1       0.910  15.672  19.250  0.00  0.00    +0.000 C 
ATOM     33  C   UNL     1       1.370  14.814  20.425  0.00  0.00    +0.000 C 
ENDBRANCH  26  28
ENDBRANCH  21  24
ENDBRANCH   1  18
TORSDOF 6
ENDMDL
MODEL 9
REMARK VINA RESULT:      -7.6      2.498      9.777
REMARK  Name = 
REMARK  6 active torsions:
REMARK  status: ('A' for Active; 'I' for Inactive)
REMARK    1  A    between atoms: C_2  and  C_26
REMARK    2  A    between atoms: N_3  and  C_4
REMARK    3  A    between atoms: C_8  and  C_9
REMARK    4  A    between atoms: C_9  and  N_10
REMARK    5  A    between atoms: C_13  and  C_14
REMARK    6  A    between atoms: N_16  and  C_17
REMARK                            x       y       z     vdW  Elec       q    Type
REMARK                         _______ _______ _______ _____ _____    ______ ____
ROOT
ATOM      1  C   UNL     1       2.895   7.016  19.852  0.00  0.00    +0.000 C 
ENDROOT
BRANCH   1   6
ATOM      2  C   UNL     1       3.773   4.614  16.951  0.00  0.00    +0.000 A 
ATOM      3  C   UNL     1       2.898   3.565  17.241  0.00  0.00    +0.000 A 
ATOM      4  C   UNL     1       2.076   3.612  18.364  0.00  0.00    +0.000 A 
ATOM      5  C   UNL     1       2.111   4.713  19.214  0.00  0.00    +0.000 A 
ATOM      6  C   UNL     1       2.983   5.785  18.966  0.00  0.00    +0.000 A 
ATOM      7  C   UNL     1       3.832   5.711  17.839  0.00  0.00    +0.000 A 
BRANCH   2  10
ATOM      8  O   UNL     1       6.671   4.136  16.697  0.00  0.00    +0.000 OA
ATOM      9  C   UNL     1       5.962   4.418  15.741  0.00  0.00    +0.000 C 
ATOM     10  N   UNL     1       4.588   4.624  15.793  0.00  0.00    +0.000 N 
ATOM     11  H   UNL     1       4.111   4.681  14.905  0.00  0.00    +0.000 HD
BRANCH   9  12
ATOM     12  C   UNL     1       6.539   4.481  14.408  0.00  0.00    +0.000 A 
ATOM     13  C   UNL     1       6.278   3.794  13.233  0.00  0.00    +0.000 A 
ATOM     14  C   UNL     1       7.198   4.239  12.248  0.00  0.00    +0.000 A 
ATOM     15  C   UNL     1       7.977   5.212  12.826  0.00  0.00    +0.000 A 
ATOM     16  N   UNL     1       7.543   5.385  14.112  0.00  0.00    +0.000 N 
ATOM     17  H   UNL     1       7.908   6.053  14.782  0.00  0.00    +0.000 HD
ENDBRANCH   9  12
ENDBRANCH   2  10
ENDBRANCH   1   6
BRANCH   1  18
ATOM     18  N   UNL     1       1.661   7.820  19.850  0.00  0.00    +0.000 NA
ATOM     19  C   UNL     1       1.165   8.183  21.181  0.00  0.00    +0.000 C 
ATOM     20  C   UNL     1      -0.194   8.903  21.129  0.00  0.00    +0.000 C 
ATOM     21  C   UNL     1      -0.241  10.057  20.110  0.00  0.00    +0.000 C 
ATOM     22  C   UNL     1       0.320   9.567  18.773  0.00  0.00    +0.000 C 
ATOM     23  C   UNL     1       1.715   8.956  18.937  0.00  0.00    +0.000 C 
BRANCH  21  24
ATOM     24  C   UNL     1       0.502  11.305  20.595  0.00  0.00    +0.000 C 
ATOM     25  O   UNL     1       1.230  11.299  21.584  0.00  0.00    +0.000 OA
ATOM     26  N   UNL     1       0.299  12.443  19.824  0.00  0.00    +0.000 N 
ATOM     27  H   UNL     1      -0.488  12.470  19.187  0.00  0.00    +0.000 HD
BRANCH  26  28
ATOM     28  C   UNL     1       1.041  13.672  20.096  0.00  0.00    +0.000 C 
ATOM     29  C   UNL     1       1.096  14.598  18.871  0.00  0.00    +0.000 C 
ATOM     30  C   UNL     1      -0.084  15.555  18.702  0.00  0.00    +0.000 C 
ATOM     31  C   UNL     1      -0.530  16.220  19.998  0.00  0.00    +0.000 C 
ATOM     32  C   UNL     1      -0.708  15.217  21.129  0.00  0.00    +0.000 C 
ATOM     33  C   UNL     1       0.554  14.390  21.355  0.00  0.00    +0.000 C 
ENDBRANCH  26  28
ENDBRANCH  21  24
ENDBRANCH   1  18
TORSDOF 6
ENDMDL
