MODEL 1
REMARK VINA RESULT:      -9.4      0.000      0.000
REMARK  Name = 
REMARK  6 active torsions:
REMARK  status: ('A' for Active; 'I' for Inactive)
REMARK    1  A    between atoms: C_2  and  C_13
REMARK    2  A    between atoms: N_3  and  N_4
REMARK    3  A    between atoms: C_5  and  C_6
REMARK    4  A    between atoms: C_11  and  O_12
REMARK    5  A    between atoms: C_13  and  O_14
REMARK    6  A    between atoms: C_15  and  C_16
REMARK                            x       y       z     vdW  Elec       q    Type
REMARK                         _______ _______ _______ _____ _____    ______ ____
ROOT
ATOM      1  C   UNL     1       6.214   5.901  16.557  0.00  0.00    +0.000 C 
ATOM      2  C   UNL     1       5.032   5.267  16.555  0.00  0.00    +0.000 C 
ENDROOT
BRANCH   2   3
ATOM      3  C   UNL     1       4.019   5.182  17.641  0.00  0.00    +0.000 C 
ATOM      4  N   UNL     1       3.874   4.076  18.292  0.00  0.00    +0.000 NA
ATOM      5  C   UNL     1       2.966   4.033  19.448  0.00  0.00    +0.000 C 
ATOM      6  C   UNL     1       3.428   2.884  20.367  0.00  0.00    +0.000 C 
ATOM      7  C   UNL     1       2.139   2.341  20.958  0.00  0.00    +0.000 C 
ATOM      8  C   UNL     1       1.201   2.344  19.765  0.00  0.00    +0.000 C 
ATOM      9  C   UNL     1       1.551   3.615  18.990  0.00  0.00    +0.000 C 
ATOM     10  C   UNL     1       2.974   5.367  20.225  0.00  0.00    +0.000 C 
ATOM     11  C   UNL     1       2.774   6.526  19.289  0.00  0.00    +0.000 A 
ATOM     12  C   UNL     1       2.135   7.698  19.709  0.00  0.00    +0.000 A 
ATOM     13  C   UNL     1       1.990   8.766  18.825  0.00  0.00    +0.000 A 
ATOM     14  C   UNL     1       2.470   8.665  17.519  0.00  0.00    +0.000 A 
ATOM     15  C   UNL     1       3.117   7.500  17.097  0.00  0.00    +0.000 A 
ATOM     16  C   UNL     1       3.294   6.438  17.991  0.00  0.00    +0.000 A 
ENDBRANCH   2   3
BRANCH   1  18
ATOM     17  O   UNL     1       6.797   6.166  18.797  0.00  0.00    +0.000 OA
ATOM     18  C   UNL     1       6.944   6.628  17.661  0.00  0.00    +0.000 C 
ATOM     19  N   UNL     1       7.577   7.803  17.352  0.00  0.00    +0.000 N 
ATOM     20  H   UNL     1       7.823   7.988  16.382  0.00  0.00    +0.000 HD
BRANCH  19  21
ATOM     21  N   UNL     1       8.226   8.501  18.326  0.00  0.00    +0.000 NA
ATOM     22  C   UNL     1       8.536   9.718  18.006  0.00  0.00    +0.000 C 
BRANCH  22  23
ATOM     23  C   UNL     1       9.346  10.561  18.905  0.00  0.00    +0.000 A 
ATOM     24  C   UNL     1       8.996  10.659  20.257  0.00  0.00    +0.000 A 
ATOM     25  C   UNL     1       9.796  11.390  21.134  0.00  0.00    +0.000 A 
ATOM     26  C   UNL     1      10.940  12.032  20.663  0.00  0.00    +0.000 A 
ATOM     27  C   UNL     1      11.281  11.958  19.311  0.00  0.00    +0.000 A 
ATOM     28  C   UNL     1      10.483  11.223  18.432  0.00  0.00    +0.000 A 
BRANCH  28  29
ATOM     29  O   UNL     1      10.819  11.152  17.108  0.00  0.00    +0.000 OA
ATOM     30  H   UNL     1      10.004  11.143  16.577  0.00  0.00    +0.000 HD
ENDBRANCH  28  29
ENDBRANCH  22  23
ENDBRANCH  19  21
ENDBRANCH   1  18
BRANCH   1  31
ATOM     31  O   UNL     1       6.900   5.937  15.334  0.00  0.00    +0.000 OA
ATOM     32  H   UNL     1       7.815   6.200  15.590  0.00  0.00    +0.000 HD
ENDBRANCH   1  31
TORSDOF 6
ENDMDL
MODEL 2
REMARK VINA RESULT:      -9.4      1.143      3.261
REMARK  Name = 
REMARK  6 active torsions:
REMARK  status: ('A' for Active; 'I' for Inactive)
REMARK    1  A    between atoms: C_2  and  C_13
REMARK    2  A    between atoms: N_3  and  N_4
REMARK    3  A    between atoms: C_5  and  C_6
REMARK    4  A    between atoms: C_11  and  O_12
REMARK    5  A    between atoms: C_13  and  O_14
REMARK    6  A    between atoms: C_15  and  C_16
REMARK                            x       y       z     vdW  Elec       q    Type
REMARK                         _______ _______ _______ _____ _____    ______ ____
ROOT
ATOM      1  C   UNL     1       6.679   5.847  16.474  0.00  0.00    +0.000 C 
ATOM      2  C   UNL     1       5.449   5.341  16.298  0.00  0.00    +0.000 C 
ENDROOT
BRANCH   2   3
ATOM      3  C   UNL     1       4.241   5.511  17.149  0.00  0.00    +0.000 C 
ATOM      4  N   UNL     1       3.807   6.700  17.409  0.00  0.00    +0.000 NA
ATOM      5  C   UNL     1       2.542   6.860  18.141  0.00  0.00    +0.000 C 
ATOM      6  C   UNL     1       1.964   8.245  17.782  0.00  0.00    +0.000 C 
ATOM      7  C   UNL     1       1.276   8.701  19.056  0.00  0.00    +0.000 C 
ATOM      8  C   UNL     1       2.262   8.284  20.132  0.00  0.00    +0.000 C 
ATOM      9  C   UNL     1       2.819   6.941  19.658  0.00  0.00    +0.000 C 
ATOM     10  C   UNL     1       1.530   5.755  17.774  0.00  0.00    +0.000 C 
ATOM     11  C   UNL     1       2.168   4.398  17.879  0.00  0.00    +0.000 A 
ATOM     12  C   UNL     1       1.419   3.266  18.221  0.00  0.00    +0.000 A 
ATOM     13  C   UNL     1       2.034   2.017  18.282  0.00  0.00    +0.000 A 
ATOM     14  C   UNL     1       3.398   1.894  18.014  0.00  0.00    +0.000 A 
ATOM     15  C   UNL     1       4.149   3.019  17.663  0.00  0.00    +0.000 A 
ATOM     16  C   UNL     1       3.528   4.270  17.568  0.00  0.00    +0.000 A 
ENDBRANCH   2   3
BRANCH   1  18
ATOM     17  O   UNL     1       7.109   6.162  18.742  0.00  0.00    +0.000 OA
ATOM     18  C   UNL     1       7.266   6.644  17.615  0.00  0.00    +0.000 C 
ATOM     19  N   UNL     1       7.782   7.881  17.339  0.00  0.00    +0.000 N 
ATOM     20  H   UNL     1       8.058   8.098  16.384  0.00  0.00    +0.000 HD
BRANCH  19  21
ATOM     21  N   UNL     1       8.299   8.641  18.345  0.00  0.00    +0.000 NA
ATOM     22  C   UNL     1       8.744   9.801  17.977  0.00  0.00    +0.000 C 
BRANCH  22  23
ATOM     23  C   UNL     1       9.441  10.689  18.925  0.00  0.00    +0.000 A 
ATOM     24  C   UNL     1       9.001  10.760  20.252  0.00  0.00    +0.000 A 
ATOM     25  C   UNL     1       9.696  11.536  21.179  0.00  0.00    +0.000 A 
ATOM     26  C   UNL     1      10.826  12.249  20.781  0.00  0.00    +0.000 A 
ATOM     27  C   UNL     1      11.256  12.201  19.453  0.00  0.00    +0.000 A 
ATOM     28  C   UNL     1      10.563  11.422  18.525  0.00  0.00    +0.000 A 
BRANCH  28  29
ATOM     29  O   UNL     1      10.986  11.377  17.226  0.00  0.00    +0.000 OA
ATOM     30  H   UNL     1      10.481  10.692  16.754  0.00  0.00    +0.000 HD
ENDBRANCH  28  29
ENDBRANCH  22  23
ENDBRANCH  19  21
ENDBRANCH   1  18
BRANCH   1  31
ATOM     31  O   UNL     1       7.590   5.643  15.427  0.00  0.00    +0.000 OA
ATOM     32  H   UNL     1       7.269   4.814  14.999  0.00  0.00    +0.000 HD
ENDBRANCH   1  31
TORSDOF 6
ENDMDL
MODEL 3
REMARK VINA RESULT:      -9.3      1.603      3.676
REMARK  Name = 
REMARK  6 active torsions:
REMARK  status: ('A' for Active; 'I' for Inactive)
REMARK    1  A    between atoms: C_2  and  C_13
REMARK    2  A    between atoms: N_3  and  N_4
REMARK    3  A    between atoms: C_5  and  C_6
REMARK    4  A    between atoms: C_11  and  O_12
REMARK    5  A    between atoms: C_13  and  O_14
REMARK    6  A    between atoms: C_15  and  C_16
REMARK                            x       y       z     vdW  Elec       q    Type
REMARK                         _______ _______ _______ _____ _____    ______ ____
ROOT
ATOM      1  C   UNL     1       6.931   5.188  17.589  0.00  0.00    +0.000 C 
ATOM      2  C   UNL     1       5.872   4.462  17.979  0.00  0.00    +0.000 C 
ENDROOT
BRANCH   2   3
ATOM      3  C   UNL     1       4.483   4.915  18.256  0.00  0.00    +0.000 C 
ATOM      4  N   UNL     1       4.206   6.177  18.224  0.00  0.00    +0.000 NA
ATOM      5  C   UNL     1       2.809   6.612  18.370  0.00  0.00    +0.000 C 
ATOM      6  C   UNL     1       2.675   7.995  17.700  0.00  0.00    +0.000 C 
ATOM      7  C   UNL     1       1.646   8.720  18.550  0.00  0.00    +0.000 C 
ATOM      8  C   UNL     1       2.051   8.334  19.960  0.00  0.00    +0.000 C 
ATOM      9  C   UNL     1       2.493   6.873  19.859  0.00  0.00    +0.000 C 
ATOM     10  C   UNL     1       1.833   5.612  17.716  0.00  0.00    +0.000 C 
ATOM     11  C   UNL     1       2.123   4.211  18.176  0.00  0.00    +0.000 A 
ATOM     12  C   UNL     1       1.109   3.253  18.276  0.00  0.00    +0.000 A 
ATOM     13  C   UNL     1       1.415   1.954  18.679  0.00  0.00    +0.000 A 
ATOM     14  C   UNL     1       2.730   1.610  18.993  0.00  0.00    +0.000 A 
ATOM     15  C   UNL     1       3.749   2.560  18.886  0.00  0.00    +0.000 A 
ATOM     16  C   UNL     1       3.451   3.856  18.450  0.00  0.00    +0.000 A 
ENDBRANCH   2   3
BRANCH   1  18
ATOM     17  O   UNL     1       6.541   7.166  16.422  0.00  0.00    +0.000 OA
ATOM     18  C   UNL     1       7.096   6.679  17.412  0.00  0.00    +0.000 C 
ATOM     19  N   UNL     1       7.950   7.338  18.255  0.00  0.00    +0.000 N 
ATOM     20  H   UNL     1       8.188   6.911  19.148  0.00  0.00    +0.000 HD
BRANCH  19  21
ATOM     21  N   UNL     1       8.144   8.680  18.112  0.00  0.00    +0.000 NA
ATOM     22  C   UNL     1       8.957   9.205  18.974  0.00  0.00    +0.000 C 
BRANCH  22  23
ATOM     23  C   UNL     1       9.177  10.662  19.027  0.00  0.00    +0.000 A 
ATOM     24  C   UNL     1       9.149  11.406  17.841  0.00  0.00    +0.000 A 
ATOM     25  C   UNL     1       9.278  12.793  17.883  0.00  0.00    +0.000 A 
ATOM     26  C   UNL     1       9.446  13.440  19.106  0.00  0.00    +0.000 A 
ATOM     27  C   UNL     1       9.499  12.702  20.290  0.00  0.00    +0.000 A 
ATOM     28  C   UNL     1       9.366  11.313  20.250  0.00  0.00    +0.000 A 
BRANCH  28  29
ATOM     29  O   UNL     1       9.418  10.593  21.411  0.00  0.00    +0.000 OA
ATOM     30  H   UNL     1      10.350  10.477  21.668  0.00  0.00    +0.000 HD
ENDBRANCH  28  29
ENDBRANCH  22  23
ENDBRANCH  19  21
ENDBRANCH   1  18
BRANCH   1  31
ATOM     31  O   UNL     1       8.088   4.469  17.257  0.00  0.00    +0.000 OA
ATOM     32  H   UNL     1       8.512   4.296  18.130  0.00  0.00    +0.000 HD
ENDBRANCH   1  31
TORSDOF 6
ENDMDL
MODEL 4
REMARK VINA RESULT:      -9.1      1.237      1.325
REMARK  Name = 
REMARK  6 active torsions:
REMARK  status: ('A' for Active; 'I' for Inactive)
REMARK    1  A    between atoms: C_2  and  C_13
REMARK    2  A    between atoms: N_3  and  N_4
REMARK    3  A    between atoms: C_5  and  C_6
REMARK    4  A    between atoms: C_11  and  O_12
REMARK    5  A    between atoms: C_13  and  O_14
REMARK    6  A    between atoms: C_15  and  C_16
REMARK                            x       y       z     vdW  Elec       q    Type
REMARK                         _______ _______ _______ _____ _____    ______ ____
ROOT
ATOM      1  C   UNL     1       7.015   4.771  17.604  0.00  0.00    +0.000 C 
ATOM      2  C   UNL     1       5.855   4.102  17.532  0.00  0.00    +0.000 C 
ENDROOT
BRANCH   2   3
ATOM      3  C   UNL     1       4.580   4.368  18.252  0.00  0.00    +0.000 C 
ATOM      4  N   UNL     1       4.110   3.480  19.064  0.00  0.00    +0.000 NA
ATOM      5  C   UNL     1       2.923   3.798  19.871  0.00  0.00    +0.000 C 
ATOM      6  C   UNL     1       2.951   2.899  21.123  0.00  0.00    +0.000 C 
ATOM      7  C   UNL     1       1.486   2.613  21.407  0.00  0.00    +0.000 C 
ATOM      8  C   UNL     1       0.922   2.368  20.020  0.00  0.00    +0.000 C 
ATOM      9  C   UNL     1       1.645   3.369  19.117  0.00  0.00    +0.000 C 
ATOM     10  C   UNL     1       2.902   5.284  20.288  0.00  0.00    +0.000 C 
ATOM     11  C   UNL     1       3.130   6.171  19.097  0.00  0.00    +0.000 A 
ATOM     12  C   UNL     1       2.569   7.452  19.026  0.00  0.00    +0.000 A 
ATOM     13  C   UNL     1       2.822   8.262  17.920  0.00  0.00    +0.000 A 
ATOM     14  C   UNL     1       3.624   7.794  16.878  0.00  0.00    +0.000 A 
ATOM     15  C   UNL     1       4.194   6.520  16.948  0.00  0.00    +0.000 A 
ATOM     16  C   UNL     1       3.969   5.717  18.072  0.00  0.00    +0.000 A 
ENDBRANCH   2   3
BRANCH   1  18
ATOM     17  O   UNL     1       7.287   5.740  19.704  0.00  0.00    +0.000 OA
ATOM     18  C   UNL     1       7.444   5.915  18.491  0.00  0.00    +0.000 C 
ATOM     19  N   UNL     1       7.824   7.087  17.894  0.00  0.00    +0.000 N 
ATOM     20  H   UNL     1       8.122   7.069  16.922  0.00  0.00    +0.000 HD
BRANCH  19  21
ATOM     21  N   UNL     1       8.195   8.150  18.662  0.00  0.00    +0.000 NA
ATOM     22  C   UNL     1       8.363   9.258  18.010  0.00  0.00    +0.000 C 
BRANCH  22  23
ATOM     23  C   UNL     1       8.879  10.467  18.678  0.00  0.00    +0.000 A 
ATOM     24  C   UNL     1       9.678  10.334  19.820  0.00  0.00    +0.000 A 
ATOM     25  C   UNL     1      10.237  11.463  20.417  0.00  0.00    +0.000 A 
ATOM     26  C   UNL     1       9.991  12.726  19.883  0.00  0.00    +0.000 A 
ATOM     27  C   UNL     1       9.175  12.868  18.759  0.00  0.00    +0.000 A 
ATOM     28  C   UNL     1       8.618  11.738  18.157  0.00  0.00    +0.000 A 
BRANCH  28  29
ATOM     29  O   UNL     1       7.819  11.879  17.057  0.00  0.00    +0.000 OA
ATOM     30  H   UNL     1       7.945  12.771  16.689  0.00  0.00    +0.000 HD
ENDBRANCH  28  29
ENDBRANCH  22  23
ENDBRANCH  19  21
ENDBRANCH   1  18
BRANCH   1  31
ATOM     31  O   UNL     1       8.011   4.384  16.695  0.00  0.00    +0.000 OA
ATOM     32  H   UNL     1       8.347   3.534  17.066  0.00  0.00    +0.000 HD
ENDBRANCH   1  31
TORSDOF 6
ENDMDL
MODEL 5
REMARK VINA RESULT:      -8.6      3.766      7.050
REMARK  Name = 
REMARK  6 active torsions:
REMARK  status: ('A' for Active; 'I' for Inactive)
REMARK    1  A    between atoms: C_2  and  C_13
REMARK    2  A    between atoms: N_3  and  N_4
REMARK    3  A    between atoms: C_5  and  C_6
REMARK    4  A    between atoms: C_11  and  O_12
REMARK    5  A    between atoms: C_13  and  O_14
REMARK    6  A    between atoms: C_15  and  C_16
REMARK                            x       y       z     vdW  Elec       q    Type
REMARK                         _______ _______ _______ _____ _____    ______ ____
ROOT
ATOM      1  C   UNL     1       2.986   3.110  17.392  0.00  0.00    +0.000 C 
ATOM      2  C   UNL     1       4.232   2.949  16.921  0.00  0.00    +0.000 C 
ENDROOT
BRANCH   2   3
ATOM      3  C   UNL     1       5.231   3.990  16.558  0.00  0.00    +0.000 C 
ATOM      4  N   UNL     1       5.750   4.725  17.484  0.00  0.00    +0.000 NA
ATOM      5  C   UNL     1       6.830   5.662  17.140  0.00  0.00    +0.000 C 
ATOM      6  C   UNL     1       7.652   5.922  18.418  0.00  0.00    +0.000 C 
ATOM      7  C   UNL     1       8.094   7.369  18.288  0.00  0.00    +0.000 C 
ATOM      8  C   UNL     1       6.847   8.048  17.753  0.00  0.00    +0.000 C 
ATOM      9  C   UNL     1       6.235   7.041  16.778  0.00  0.00    +0.000 C 
ATOM     10  C   UNL     1       7.742   5.093  16.032  0.00  0.00    +0.000 C 
ATOM     11  C   UNL     1       6.923   4.599  14.874  0.00  0.00    +0.000 A 
ATOM     12  C   UNL     1       7.419   4.630  13.566  0.00  0.00    +0.000 A 
ATOM     13  C   UNL     1       6.645   4.138  12.516  0.00  0.00    +0.000 A 
ATOM     14  C   UNL     1       5.372   3.626  12.765  0.00  0.00    +0.000 A 
ATOM     15  C   UNL     1       4.874   3.584  14.070  0.00  0.00    +0.000 A 
ATOM     16  C   UNL     1       5.661   4.046  15.131  0.00  0.00    +0.000 A 
ENDBRANCH   2   3
BRANCH   1  18
ATOM     17  O   UNL     1       0.955   4.250  17.362  0.00  0.00    +0.000 OA
ATOM     18  C   UNL     1       2.161   4.357  17.602  0.00  0.00    +0.000 C 
ATOM     19  N   UNL     1       2.819   5.524  17.891  0.00  0.00    +0.000 N 
ATOM     20  H   UNL     1       3.761   5.476  18.272  0.00  0.00    +0.000 HD
BRANCH  19  21
ATOM     21  N   UNL     1       2.112   6.676  18.064  0.00  0.00    +0.000 NA
ATOM     22  C   UNL     1       2.394   7.329  19.148  0.00  0.00    +0.000 C 
BRANCH  22  23
ATOM     23  C   UNL     1       1.631   8.529  19.537  0.00  0.00    +0.000 A 
ATOM     24  C   UNL     1       1.115   8.626  20.835  0.00  0.00    +0.000 A 
ATOM     25  C   UNL     1       0.459   9.787  21.241  0.00  0.00    +0.000 A 
ATOM     26  C   UNL     1       0.307  10.848  20.350  0.00  0.00    +0.000 A 
ATOM     27  C   UNL     1       0.798  10.748  19.047  0.00  0.00    +0.000 A 
ATOM     28  C   UNL     1       1.459   9.588  18.640  0.00  0.00    +0.000 A 
BRANCH  28  29
ATOM     29  O   UNL     1       1.938   9.492  17.363  0.00  0.00    +0.000 OA
ATOM     30  H   UNL     1       1.230   9.160  16.785  0.00  0.00    +0.000 HD
ENDBRANCH  28  29
ENDBRANCH  22  23
ENDBRANCH  19  21
ENDBRANCH   1  18
BRANCH   1  31
ATOM     31  O   UNL     1       2.319   1.942  17.791  0.00  0.00    +0.000 OA
ATOM     32  H   UNL     1       2.914   1.219  17.485  0.00  0.00    +0.000 HD
ENDBRANCH   1  31
TORSDOF 6
ENDMDL
MODEL 6
REMARK VINA RESULT:      -8.6      0.930      1.275
REMARK  Name = 
REMARK  6 active torsions:
REMARK  status: ('A' for Active; 'I' for Inactive)
REMARK    1  A    between atoms: C_2  and  C_13
REMARK    2  A    between atoms: N_3  and  N_4
REMARK    3  A    between atoms: C_5  and  C_6
REMARK    4  A    between atoms: C_11  and  O_12
REMARK    5  A    between atoms: C_13  and  O_14
REMARK    6  A    between atoms: C_15  and  C_16
REMARK                            x       y       z     vdW  Elec       q    Type
REMARK                         _______ _______ _______ _____ _____    ______ ____
ROOT
ATOM      1  C   UNL     1       5.826   6.020  16.484  0.00  0.00    +0.000 C 
ATOM      2  C   UNL     1       4.636   5.413  16.603  0.00  0.00    +0.000 C 
ENDROOT
BRANCH   2   3
ATOM      3  C   UNL     1       3.729   5.365  17.782  0.00  0.00    +0.000 C 
ATOM      4  N   UNL     1       3.659   4.285  18.488  0.00  0.00    +0.000 NA
ATOM      5  C   UNL     1       2.863   4.283  19.724  0.00  0.00    +0.000 C 
ATOM      6  C   UNL     1       3.423   3.177  20.642  0.00  0.00    +0.000 C 
ATOM      7  C   UNL     1       2.201   2.648  21.372  0.00  0.00    +0.000 C 
ATOM      8  C   UNL     1       1.157   2.593  20.273  0.00  0.00    +0.000 C 
ATOM      9  C   UNL     1       1.417   3.833  19.417  0.00  0.00    +0.000 C 
ATOM     10  C   UNL     1       2.927   5.648  20.442  0.00  0.00    +0.000 C 
ATOM     11  C   UNL     1       2.626   6.765  19.482  0.00  0.00    +0.000 A 
ATOM     12  C   UNL     1       2.015   7.948  19.912  0.00  0.00    +0.000 A 
ATOM     13  C   UNL     1       1.775   8.977  19.003  0.00  0.00    +0.000 A 
ATOM     14  C   UNL     1       2.133   8.825  17.663  0.00  0.00    +0.000 A 
ATOM     15  C   UNL     1       2.752   7.650  17.230  0.00  0.00    +0.000 A 
ATOM     16  C   UNL     1       3.025   6.628  18.146  0.00  0.00    +0.000 A 
ENDBRANCH   2   3
BRANCH   1  18
ATOM     17  O   UNL     1       6.584   6.331  18.664  0.00  0.00    +0.000 OA
ATOM     18  C   UNL     1       6.674   6.742  17.503  0.00  0.00    +0.000 C 
ATOM     19  N   UNL     1       7.347   7.866  17.103  0.00  0.00    +0.000 N 
ATOM     20  H   UNL     1       7.533   8.001  16.111  0.00  0.00    +0.000 HD
BRANCH  19  21
ATOM     21  N   UNL     1       8.104   8.560  17.999  0.00  0.00    +0.000 NA
ATOM     22  C   UNL     1       8.441   9.752  17.617  0.00  0.00    +0.000 C 
BRANCH  22  23
ATOM     23  C   UNL     1       9.357  10.581  18.422  0.00  0.00    +0.000 A 
ATOM     24  C   UNL     1      10.158  11.537  17.786  0.00  0.00    +0.000 A 
ATOM     25  C   UNL     1      10.972  12.380  18.541  0.00  0.00    +0.000 A 
ATOM     26  C   UNL     1      10.996  12.264  19.929  0.00  0.00    +0.000 A 
ATOM     27  C   UNL     1      10.219  11.296  20.568  0.00  0.00    +0.000 A 
ATOM     28  C   UNL     1       9.400  10.454  19.814  0.00  0.00    +0.000 A 
BRANCH  28  29
ATOM     29  O   UNL     1       8.640   9.506  20.441  0.00  0.00    +0.000 OA
ATOM     30  H   UNL     1       9.149   8.678  20.494  0.00  0.00    +0.000 HD
ENDBRANCH  28  29
ENDBRANCH  22  23
ENDBRANCH  19  21
ENDBRANCH   1  18
BRANCH   1  31
ATOM     31  O   UNL     1       6.394   6.025  15.201  0.00  0.00    +0.000 OA
ATOM     32  H   UNL     1       7.225   6.542  15.318  0.00  0.00    +0.000 HD
ENDBRANCH   1  31
TORSDOF 6
ENDMDL
MODEL 7
REMARK VINA RESULT:      -8.6      3.883      7.089
REMARK  Name = 
REMARK  6 active torsions:
REMARK  status: ('A' for Active; 'I' for Inactive)
REMARK    1  A    between atoms: C_2  and  C_13
REMARK    2  A    between atoms: N_3  and  N_4
REMARK    3  A    between atoms: C_5  and  C_6
REMARK    4  A    between atoms: C_11  and  O_12
REMARK    5  A    between atoms: C_13  and  O_14
REMARK    6  A    between atoms: C_15  and  C_16
REMARK                            x       y       z     vdW  Elec       q    Type
REMARK                         _______ _______ _______ _____ _____    ______ ____
ROOT
ATOM      1  C   UNL     1       3.087   2.828  17.450  0.00  0.00    +0.000 C 
ATOM      2  C   UNL     1       4.279   2.745  16.842  0.00  0.00    +0.000 C 
ENDROOT
BRANCH   2   3
ATOM      3  C   UNL     1       5.220   3.840  16.483  0.00  0.00    +0.000 C 
ATOM      4  N   UNL     1       5.711   4.589  17.414  0.00  0.00    +0.000 NA
ATOM      5  C   UNL     1       6.738   5.584  17.072  0.00  0.00    +0.000 C 
ATOM      6  C   UNL     1       7.561   5.868  18.345  0.00  0.00    +0.000 C 
ATOM      7  C   UNL     1       7.926   7.338  18.231  0.00  0.00    +0.000 C 
ATOM      8  C   UNL     1       6.639   7.959  17.719  0.00  0.00    +0.000 C 
ATOM      9  C   UNL     1       6.069   6.935  16.736  0.00  0.00    +0.000 C 
ATOM     10  C   UNL     1       7.665   5.078  15.947  0.00  0.00    +0.000 C 
ATOM     11  C   UNL     1       6.859   4.559  14.790  0.00  0.00    +0.000 A 
ATOM     12  C   UNL     1       7.338   4.634  13.477  0.00  0.00    +0.000 A 
ATOM     13  C   UNL     1       6.578   4.118  12.428  0.00  0.00    +0.000 A 
ATOM     14  C   UNL     1       5.336   3.537  12.684  0.00  0.00    +0.000 A 
ATOM     15  C   UNL     1       4.856   3.452  13.993  0.00  0.00    +0.000 A 
ATOM     16  C   UNL     1       5.631   3.939  15.052  0.00  0.00    +0.000 A 
ENDBRANCH   2   3
BRANCH   1  18
ATOM     17  O   UNL     1       1.213   4.197  17.247  0.00  0.00    +0.000 OA
ATOM     18  C   UNL     1       2.269   4.029  17.864  0.00  0.00    +0.000 C 
ATOM     19  N   UNL     1       2.818   4.903  18.764  0.00  0.00    +0.000 N 
ATOM     20  H   UNL     1       3.574   4.581  19.364  0.00  0.00    +0.000 HD
BRANCH  19  21
ATOM     21  N   UNL     1       2.122   6.011  19.145  0.00  0.00    +0.000 NA
ATOM     22  C   UNL     1       2.529   7.119  18.609  0.00  0.00    +0.000 C 
BRANCH  22  23
ATOM     23  C   UNL     1       1.958   8.417  19.011  0.00  0.00    +0.000 A 
ATOM     24  C   UNL     1       1.822   9.434  18.058  0.00  0.00    +0.000 A 
ATOM     25  C   UNL     1       1.214  10.640  18.405  0.00  0.00    +0.000 A 
ATOM     26  C   UNL     1       0.749  10.836  19.704  0.00  0.00    +0.000 A 
ATOM     27  C   UNL     1       0.903   9.835  20.665  0.00  0.00    +0.000 A 
ATOM     28  C   UNL     1       1.508   8.626  20.318  0.00  0.00    +0.000 A 
BRANCH  28  29
ATOM     29  O   UNL     1       1.658   7.647  21.261  0.00  0.00    +0.000 OA
ATOM     30  H   UNL     1       0.778   7.374  21.575  0.00  0.00    +0.000 HD
ENDBRANCH  28  29
ENDBRANCH  22  23
ENDBRANCH  19  21
ENDBRANCH   1  18
BRANCH   1  31
ATOM     31  O   UNL     1       2.482   1.612  17.798  0.00  0.00    +0.000 OA
ATOM     32  H   UNL     1       2.693   1.513  18.756  0.00  0.00    +0.000 HD
ENDBRANCH   1  31
TORSDOF 6
ENDMDL
MODEL 8
REMARK VINA RESULT:      -8.5      1.451      3.509
REMARK  Name = 
REMARK  6 active torsions:
REMARK  status: ('A' for Active; 'I' for Inactive)
REMARK    1  A    between atoms: C_2  and  C_13
REMARK    2  A    between atoms: N_3  and  N_4
REMARK    3  A    between atoms: C_5  and  C_6
REMARK    4  A    between atoms: C_11  and  O_12
REMARK    5  A    between atoms: C_13  and  O_14
REMARK    6  A    between atoms: C_15  and  C_16
REMARK                            x       y       z     vdW  Elec       q    Type
REMARK                         _______ _______ _______ _____ _____    ______ ____
ROOT
ATOM      1  C   UNL     1       6.730   5.494  16.699  0.00  0.00    +0.000 C 
ATOM      2  C   UNL     1       5.529   4.906  16.592  0.00  0.00    +0.000 C 
ENDROOT
BRANCH   2   3
ATOM      3  C   UNL     1       4.280   5.197  17.345  0.00  0.00    +0.000 C 
ATOM      4  N   UNL     1       3.900   6.422  17.500  0.00  0.00    +0.000 NA
ATOM      5  C   UNL     1       2.601   6.700  18.130  0.00  0.00    +0.000 C 
ATOM      6  C   UNL     1       2.130   8.086  17.646  0.00  0.00    +0.000 C 
ATOM      7  C   UNL     1       1.387   8.663  18.839  0.00  0.00    +0.000 C 
ATOM      8  C   UNL     1       2.273   8.265  20.004  0.00  0.00    +0.000 C 
ATOM      9  C   UNL     1       2.781   6.865  19.655  0.00  0.00    +0.000 C 
ATOM     10  C   UNL     1       1.552   5.629  17.763  0.00  0.00    +0.000 C 
ATOM     11  C   UNL     1       2.101   4.249  17.996  0.00  0.00    +0.000 A 
ATOM     12  C   UNL     1       1.266   3.185  18.354  0.00  0.00    +0.000 A 
ATOM     13  C   UNL     1       1.801   1.911  18.536  0.00  0.00    +0.000 A 
ATOM     14  C   UNL     1       3.170   1.697  18.372  0.00  0.00    +0.000 A 
ATOM     15  C   UNL     1       4.008   2.754  18.005  0.00  0.00    +0.000 A 
ATOM     16  C   UNL     1       3.469   4.027  17.789  0.00  0.00    +0.000 A 
ENDBRANCH   2   3
BRANCH   1  18
ATOM     17  O   UNL     1       7.281   6.200  18.850  0.00  0.00    +0.000 OA
ATOM     18  C   UNL     1       7.237   6.540  17.663  0.00  0.00    +0.000 C 
ATOM     19  N   UNL     1       7.460   7.804  17.185  0.00  0.00    +0.000 N 
ATOM     20  H   UNL     1       7.601   7.934  16.186  0.00  0.00    +0.000 HD
BRANCH  19  21
ATOM     21  N   UNL     1       7.894   8.782  18.029  0.00  0.00    +0.000 NA
ATOM     22  C   UNL     1       8.228   9.892  17.448  0.00  0.00    +0.000 C 
BRANCH  22  23
ATOM     23  C   UNL     1       8.830  11.002  18.210  0.00  0.00    +0.000 A 
ATOM     24  C   UNL     1       8.791  12.298  17.683  0.00  0.00    +0.000 A 
ATOM     25  C   UNL     1       9.286  13.369  18.426  0.00  0.00    +0.000 A 
ATOM     26  C   UNL     1       9.831  13.147  19.689  0.00  0.00    +0.000 A 
ATOM     27  C   UNL     1       9.895  11.853  20.210  0.00  0.00    +0.000 A 
ATOM     28  C   UNL     1       9.395  10.780  19.469  0.00  0.00    +0.000 A 
BRANCH  28  29
ATOM     29  O   UNL     1       9.459   9.514  19.980  0.00  0.00    +0.000 OA
ATOM     30  H   UNL     1       8.587   9.275  20.340  0.00  0.00    +0.000 HD
ENDBRANCH  28  29
ENDBRANCH  22  23
ENDBRANCH  19  21
ENDBRANCH   1  18
BRANCH   1  31
ATOM     31  O   UNL     1       7.693   5.114  15.753  0.00  0.00    +0.000 OA
ATOM     32  H   UNL     1       8.483   4.894  16.301  0.00  0.00    +0.000 HD
ENDBRANCH   1  31
TORSDOF 6
ENDMDL
MODEL 9
REMARK VINA RESULT:      -8.4      1.351      1.585
REMARK  Name = 
REMARK  6 active torsions:
REMARK  status: ('A' for Active; 'I' for Inactive)
REMARK    1  A    between atoms: C_2  and  C_13
REMARK    2  A    between atoms: N_3  and  N_4
REMARK    3  A    between atoms: C_5  and  C_6
REMARK    4  A    between atoms: C_11  and  O_12
REMARK    5  A    between atoms: C_13  and  O_14
REMARK    6  A    between atoms: C_15  and  C_16
REMARK                            x       y       z     vdW  Elec       q    Type
REMARK                         _______ _______ _______ _____ _____    ______ ____
ROOT
ATOM      1  C   UNL     1       6.990   4.876  17.402  0.00  0.00    +0.000 C 
ATOM      2  C   UNL     1       5.857   4.157  17.401  0.00  0.00    +0.000 C 
ENDROOT
BRANCH   2   3
ATOM      3  C   UNL     1       4.596   4.404  18.151  0.00  0.00    +0.000 C 
ATOM      4  N   UNL     1       4.141   3.497  18.950  0.00  0.00    +0.000 NA
ATOM      5  C   UNL     1       2.969   3.795  19.785  0.00  0.00    +0.000 C 
ATOM      6  C   UNL     1       3.020   2.867  21.016  0.00  0.00    +0.000 C 
ATOM      7  C   UNL     1       1.561   2.572  21.320  0.00  0.00    +0.000 C 
ATOM      8  C   UNL     1       0.972   2.359  19.938  0.00  0.00    +0.000 C 
ATOM      9  C   UNL     1       1.677   3.382  19.045  0.00  0.00    +0.000 C 
ATOM     10  C   UNL     1       2.954   5.270  20.238  0.00  0.00    +0.000 C 
ATOM     11  C   UNL     1       3.160   6.185  19.063  0.00  0.00    +0.000 A 
ATOM     12  C   UNL     1       2.597   7.466  19.032  0.00  0.00    +0.000 A 
ATOM     13  C   UNL     1       2.829   8.302  17.941  0.00  0.00    +0.000 A 
ATOM     14  C   UNL     1       3.612   7.860  16.874  0.00  0.00    +0.000 A 
ATOM     15  C   UNL     1       4.184   6.585  16.904  0.00  0.00    +0.000 A 
ATOM     16  C   UNL     1       3.981   5.756  18.013  0.00  0.00    +0.000 A 
ENDBRANCH   2   3
BRANCH   1  18
ATOM     17  O   UNL     1       7.252   5.971  19.441  0.00  0.00    +0.000 OA
ATOM     18  C   UNL     1       7.396   6.079  18.219  0.00  0.00    +0.000 C 
ATOM     19  N   UNL     1       7.742   7.224  17.552  0.00  0.00    +0.000 N 
ATOM     20  H   UNL     1       8.033   7.158  16.580  0.00  0.00    +0.000 HD
BRANCH  19  21
ATOM     21  N   UNL     1       8.092   8.339  18.254  0.00  0.00    +0.000 NA
ATOM     22  C   UNL     1       8.085   9.438  17.567  0.00  0.00    +0.000 C 
BRANCH  22  23
ATOM     23  C   UNL     1       8.555  10.707  18.152  0.00  0.00    +0.000 A 
ATOM     24  C   UNL     1       8.294  11.910  17.485  0.00  0.00    +0.000 A 
ATOM     25  C   UNL     1       8.664  13.124  18.062  0.00  0.00    +0.000 A 
ATOM     26  C   UNL     1       9.304  13.139  19.301  0.00  0.00    +0.000 A 
ATOM     27  C   UNL     1       9.589  11.941  19.959  0.00  0.00    +0.000 A 
ATOM     28  C   UNL     1       9.215  10.725  19.384  0.00  0.00    +0.000 A 
BRANCH  28  29
ATOM     29  O   UNL     1       9.495   9.554  20.031  0.00  0.00    +0.000 OA
ATOM     30  H   UNL     1       8.876   8.869  19.724  0.00  0.00    +0.000 HD
ENDBRANCH  28  29
ENDBRANCH  22  23
ENDBRANCH  19  21
ENDBRANCH   1  18
BRANCH   1  31
ATOM     31  O   UNL     1       7.972   4.487  16.479  0.00  0.00    +0.000 OA
ATOM     32  H   UNL     1       7.478   3.924  15.838  0.00  0.00    +0.000 HD
ENDBRANCH   1  31
TORSDOF 6
ENDMDL
