MODEL 1
REMARK VINA RESULT:      -9.2      0.000      0.000
REMARK  Name = 
REMARK  4 active torsions:
REMARK  status: ('A' for Active; 'I' for Inactive)
REMARK    1  A    between atoms: C_1  and  N_2
REMARK    2  A    between atoms: C_3  and  S_4
REMARK    3  A    between atoms: S_4  and  C_5
REMARK    4  A    between atoms: C_5  and  C_6
REMARK                            x       y       z     vdW  Elec       q    Type
REMARK                         _______ _______ _______ _____ _____    ______ ____
ROOT
ATOM      1  C   UNL     1       2.324   7.213  18.986  0.00  0.00    +0.000 C 
ATOM      2  O   UNL     1       1.901   7.515  20.113  0.00  0.00    +0.000 OA
ATOM      3  N   UNL     1       2.818   5.930  18.643  0.00  0.00    +0.000 N 
ATOM      4  C   UNL     1       3.788   5.703  17.598  0.00  0.00    +0.000 A 
ATOM      5  C   UNL     1       4.756   6.685  17.322  0.00  0.00    +0.000 A 
ATOM      6  C   UNL     1       5.823   6.444  16.449  0.00  0.00    +0.000 A 
ATOM      7  C   UNL     1       5.947   5.210  15.829  0.00  0.00    +0.000 A 
ATOM      8  C   UNL     1       4.990   4.225  16.069  0.00  0.00    +0.000 A 
ATOM      9  C   UNL     1       3.926   4.464  16.947  0.00  0.00    +0.000 A 
ATOM     10  S   UNL     1       2.778   3.141  17.233  0.00  0.00    +0.000 S 
ATOM     11  C   UNL     1       2.473   3.473  18.952  0.00  0.00    +0.000 A 
ATOM     12  C   UNL     1       2.134   2.383  19.770  0.00  0.00    +0.000 A 
ATOM     13  C   UNL     1       1.861   2.570  21.121  0.00  0.00    +0.000 A 
ATOM     14  C   UNL     1       1.944   3.838  21.670  0.00  0.00    +0.000 A 
ATOM     15  C   UNL     1       2.282   4.923  20.856  0.00  0.00    +0.000 A 
ATOM     16  C   UNL     1       2.528   4.777  19.478  0.00  0.00    +0.000 A 
ENDROOT
BRANCH   1  17
ATOM     17  C   UNL     1       2.119   8.195  17.837  0.00  0.00    +0.000 C 
BRANCH  17  18
ATOM     18  S   UNL     1       2.007   9.948  18.426  0.00  0.00    +0.000 S 
BRANCH  18  21
ATOM     19  C   UNL     1       0.169  12.362  19.912  0.00  0.00    +0.000 C 
ATOM     20  N   UNL     1      -0.328  11.345  19.018  0.00  0.00    +0.000 N 
ATOM     21  C   UNL     1       0.309  10.343  18.301  0.00  0.00    +0.000 A 
ATOM     22  N   UNL     1      -0.544   9.621  17.619  0.00  0.00    +0.000 NA
ATOM     23  C   UNL     1      -1.778  10.178  17.850  0.00  0.00    +0.000 A 
ATOM     24  C   UNL     1      -3.045   9.827  17.356  0.00  0.00    +0.000 A 
ATOM     25  C   UNL     1      -4.166  10.576  17.739  0.00  0.00    +0.000 A 
ATOM     26  C   UNL     1      -4.035  11.663  18.609  0.00  0.00    +0.000 A 
ATOM     27  C   UNL     1      -2.785  12.025  19.116  0.00  0.00    +0.000 A 
ATOM     28  C   UNL     1      -1.680  11.268  18.717  0.00  0.00    +0.000 A 
ENDBRANCH  18  21
ENDBRANCH  17  18
ENDBRANCH   1  17
TORSDOF 3
ENDMDL
MODEL 2
REMARK VINA RESULT:      -8.7      2.212      3.162
REMARK  Name = 
REMARK  4 active torsions:
REMARK  status: ('A' for Active; 'I' for Inactive)
REMARK    1  A    between atoms: C_1  and  N_2
REMARK    2  A    between atoms: C_3  and  S_4
REMARK    3  A    between atoms: S_4  and  C_5
REMARK    4  A    between atoms: C_5  and  C_6
REMARK                            x       y       z     vdW  Elec       q    Type
REMARK                         _______ _______ _______ _____ _____    ______ ____
ROOT
ATOM      1  C   UNL     1       2.577   7.199  19.025  0.00  0.00    +0.000 C 
ATOM      2  O   UNL     1       2.120   7.488  20.143  0.00  0.00    +0.000 OA
ATOM      3  N   UNL     1       2.982   5.895  18.650  0.00  0.00    +0.000 N 
ATOM      4  C   UNL     1       3.986   5.631  17.645  0.00  0.00    +0.000 A 
ATOM      5  C   UNL     1       5.045   6.538  17.465  0.00  0.00    +0.000 A 
ATOM      6  C   UNL     1       6.134   6.245  16.636  0.00  0.00    +0.000 A 
ATOM      7  C   UNL     1       6.190   5.032  15.967  0.00  0.00    +0.000 A 
ATOM      8  C   UNL     1       5.145   4.122  16.113  0.00  0.00    +0.000 A 
ATOM      9  C   UNL     1       4.058   4.413  16.946  0.00  0.00    +0.000 A 
ATOM     10  S   UNL     1       2.791   3.181  17.112  0.00  0.00    +0.000 S 
ATOM     11  C   UNL     1       2.421   3.465  18.827  0.00  0.00    +0.000 A 
ATOM     12  C   UNL     1       1.950   2.374  19.575  0.00  0.00    +0.000 A 
ATOM     13  C   UNL     1       1.620   2.527  20.918  0.00  0.00    +0.000 A 
ATOM     14  C   UNL     1       1.777   3.759  21.528  0.00  0.00    +0.000 A 
ATOM     15  C   UNL     1       2.247   4.845  20.783  0.00  0.00    +0.000 A 
ATOM     16  C   UNL     1       2.554   4.737  19.415  0.00  0.00    +0.000 A 
ENDROOT
BRANCH   1  17
ATOM     17  C   UNL     1       2.516   8.243  17.915  0.00  0.00    +0.000 C 
BRANCH  17  18
ATOM     18  S   UNL     1       0.996   9.295  18.026  0.00  0.00    +0.000 S 
BRANCH  18  21
ATOM     19  C   UNL     1       0.374  10.952  20.904  0.00  0.00    +0.000 C 
ATOM     20  N   UNL     1       1.190  11.423  19.812  0.00  0.00    +0.000 N 
ATOM     21  C   UNL     1       1.575  10.836  18.615  0.00  0.00    +0.000 A 
ATOM     22  N   UNL     1       2.316  11.642  17.899  0.00  0.00    +0.000 NA
ATOM     23  C   UNL     1       2.470  12.781  18.651  0.00  0.00    +0.000 A 
ATOM     24  C   UNL     1       3.185  13.960  18.386  0.00  0.00    +0.000 A 
ATOM     25  C   UNL     1       3.197  14.988  19.339  0.00  0.00    +0.000 A 
ATOM     26  C   UNL     1       2.500  14.852  20.544  0.00  0.00    +0.000 A 
ATOM     27  C   UNL     1       1.777  13.690  20.823  0.00  0.00    +0.000 A 
ATOM     28  C   UNL     1       1.784  12.676  19.862  0.00  0.00    +0.000 A 
ENDBRANCH  18  21
ENDBRANCH  17  18
ENDBRANCH   1  17
TORSDOF 3
ENDMDL
MODEL 3
REMARK VINA RESULT:      -8.4      1.801      2.344
REMARK  Name = 
REMARK  4 active torsions:
REMARK  status: ('A' for Active; 'I' for Inactive)
REMARK    1  A    between atoms: C_1  and  N_2
REMARK    2  A    between atoms: C_3  and  S_4
REMARK    3  A    between atoms: S_4  and  C_5
REMARK    4  A    between atoms: C_5  and  C_6
REMARK                            x       y       z     vdW  Elec       q    Type
REMARK                         _______ _______ _______ _____ _____    ______ ____
ROOT
ATOM      1  C   UNL     1       2.572   7.297  19.163  0.00  0.00    +0.000 C 
ATOM      2  O   UNL     1       2.097   7.536  20.285  0.00  0.00    +0.000 OA
ATOM      3  N   UNL     1       2.960   6.006  18.727  0.00  0.00    +0.000 N 
ATOM      4  C   UNL     1       3.979   5.776  17.730  0.00  0.00    +0.000 A 
ATOM      5  C   UNL     1       5.058   6.670  17.617  0.00  0.00    +0.000 A 
ATOM      6  C   UNL     1       6.158   6.399  16.796  0.00  0.00    +0.000 A 
ATOM      7  C   UNL     1       6.205   5.222  16.065  0.00  0.00    +0.000 A 
ATOM      8  C   UNL     1       5.141   4.326  16.143  0.00  0.00    +0.000 A 
ATOM      9  C   UNL     1       4.043   4.594  16.969  0.00  0.00    +0.000 A 
ATOM     10  S   UNL     1       2.751   3.380  17.045  0.00  0.00    +0.000 S 
ATOM     11  C   UNL     1       2.351   3.582  18.766  0.00  0.00    +0.000 A 
ATOM     12  C   UNL     1       1.846   2.462  19.447  0.00  0.00    +0.000 A 
ATOM     13  C   UNL     1       1.492   2.551  20.789  0.00  0.00    +0.000 A 
ATOM     14  C   UNL     1       1.658   3.747  21.466  0.00  0.00    +0.000 A 
ATOM     15  C   UNL     1       2.163   4.860  20.788  0.00  0.00    +0.000 A 
ATOM     16  C   UNL     1       2.496   4.818  19.422  0.00  0.00    +0.000 A 
ENDROOT
BRANCH   1  17
ATOM     17  C   UNL     1       2.552   8.397  18.107  0.00  0.00    +0.000 C 
BRANCH  17  18
ATOM     18  S   UNL     1       0.830   8.949  17.703  0.00  0.00    +0.000 S 
BRANCH  18  21
ATOM     19  C   UNL     1       2.158  12.010  18.234  0.00  0.00    +0.000 C 
ATOM     20  N   UNL     1       1.141  11.376  19.035  0.00  0.00    +0.000 N 
ATOM     21  C   UNL     1       0.471  10.168  18.905  0.00  0.00    +0.000 A 
ATOM     22  N   UNL     1      -0.375   9.976  19.885  0.00  0.00    +0.000 NA
ATOM     23  C   UNL     1      -0.303  11.102  20.670  0.00  0.00    +0.000 A 
ATOM     24  C   UNL     1      -1.004  11.448  21.835  0.00  0.00    +0.000 A 
ATOM     25  C   UNL     1      -0.754  12.682  22.450  0.00  0.00    +0.000 A 
ATOM     26  C   UNL     1       0.189  13.567  21.916  0.00  0.00    +0.000 A 
ATOM     27  C   UNL     1       0.901  13.239  20.760  0.00  0.00    +0.000 A 
ATOM     28  C   UNL     1       0.632  12.005  20.161  0.00  0.00    +0.000 A 
ENDBRANCH  18  21
ENDBRANCH  17  18
ENDBRANCH   1  17
TORSDOF 3
ENDMDL
MODEL 4
REMARK VINA RESULT:      -8.3      2.514      8.678
REMARK  Name = 
REMARK  4 active torsions:
REMARK  status: ('A' for Active; 'I' for Inactive)
REMARK    1  A    between atoms: C_1  and  N_2
REMARK    2  A    between atoms: C_3  and  S_4
REMARK    3  A    between atoms: S_4  and  C_5
REMARK    4  A    between atoms: C_5  and  C_6
REMARK                            x       y       z     vdW  Elec       q    Type
REMARK                         _______ _______ _______ _____ _____    ______ ____
ROOT
ATOM      1  C   UNL     1       1.655  10.663  18.619  0.00  0.00    +0.000 C 
ATOM      2  O   UNL     1       2.450  11.234  17.856  0.00  0.00    +0.000 OA
ATOM      3  N   UNL     1       0.865  11.334  19.585  0.00  0.00    +0.000 N 
ATOM      4  C   UNL     1       0.395  10.712  20.800  0.00  0.00    +0.000 A 
ATOM      5  C   UNL     1       1.171   9.715  21.418  0.00  0.00    +0.000 A 
ATOM      6  C   UNL     1       0.852   9.211  22.684  0.00  0.00    +0.000 A 
ATOM      7  C   UNL     1      -0.255   9.693  23.364  0.00  0.00    +0.000 A 
ATOM      8  C   UNL     1      -1.053  10.667  22.768  0.00  0.00    +0.000 A 
ATOM      9  C   UNL     1      -0.731  11.177  21.504  0.00  0.00    +0.000 A 
ATOM     10  S   UNL     1      -1.774  12.448  20.835  0.00  0.00    +0.000 S 
ATOM     11  C   UNL     1      -0.500  13.382  20.022  0.00  0.00    +0.000 A 
ATOM     12  C   UNL     1      -0.704  14.764  19.880  0.00  0.00    +0.000 A 
ATOM     13  C   UNL     1       0.241  15.557  19.235  0.00  0.00    +0.000 A 
ATOM     14  C   UNL     1       1.402  14.982  18.749  0.00  0.00    +0.000 A 
ATOM     15  C   UNL     1       1.606  13.607  18.891  0.00  0.00    +0.000 A 
ATOM     16  C   UNL     1       0.656  12.769  19.503  0.00  0.00    +0.000 A 
ENDROOT
BRANCH   1  17
ATOM     17  C   UNL     1       1.343   9.188  18.386  0.00  0.00    +0.000 C 
BRANCH  17  18
ATOM     18  S   UNL     1       2.786   8.272  17.672  0.00  0.00    +0.000 S 
BRANCH  18  21
ATOM     19  C   UNL     1       4.421   5.370  17.105  0.00  0.00    +0.000 C 
ATOM     20  N   UNL     1       3.552   5.651  18.221  0.00  0.00    +0.000 N 
ATOM     21  C   UNL     1       2.871   6.797  18.607  0.00  0.00    +0.000 A 
ATOM     22  N   UNL     1       2.170   6.598  19.694  0.00  0.00    +0.000 NA
ATOM     23  C   UNL     1       2.419   5.302  20.072  0.00  0.00    +0.000 A 
ATOM     24  C   UNL     1       1.953   4.567  21.173  0.00  0.00    +0.000 A 
ATOM     25  C   UNL     1       2.374   3.241  21.345  0.00  0.00    +0.000 A 
ATOM     26  C   UNL     1       3.247   2.645  20.430  0.00  0.00    +0.000 A 
ATOM     27  C   UNL     1       3.717   3.357  19.324  0.00  0.00    +0.000 A 
ATOM     28  C   UNL     1       3.289   4.679  19.175  0.00  0.00    +0.000 A 
ENDBRANCH  18  21
ENDBRANCH  17  18
ENDBRANCH   1  17
TORSDOF 3
ENDMDL
MODEL 5
REMARK VINA RESULT:      -8.2      3.798      8.729
REMARK  Name = 
REMARK  4 active torsions:
REMARK  status: ('A' for Active; 'I' for Inactive)
REMARK    1  A    between atoms: C_1  and  N_2
REMARK    2  A    between atoms: C_3  and  S_4
REMARK    3  A    between atoms: S_4  and  C_5
REMARK    4  A    between atoms: C_5  and  C_6
REMARK                            x       y       z     vdW  Elec       q    Type
REMARK                         _______ _______ _______ _____ _____    ______ ____
ROOT
ATOM      1  C   UNL     1      -2.641  12.738  20.272  0.00  0.00    +0.000 C 
ATOM      2  O   UNL     1      -2.814  12.910  21.489  0.00  0.00    +0.000 OA
ATOM      3  N   UNL     1      -3.650  12.287  19.385  0.00  0.00    +0.000 N 
ATOM      4  C   UNL     1      -3.373  11.566  18.165  0.00  0.00    +0.000 A 
ATOM      5  C   UNL     1      -2.253  10.720  18.095  0.00  0.00    +0.000 A 
ATOM      6  C   UNL     1      -2.041   9.866  17.007  0.00  0.00    +0.000 A 
ATOM      7  C   UNL     1      -2.947   9.839  15.959  0.00  0.00    +0.000 A 
ATOM      8  C   UNL     1      -4.056  10.682  15.992  0.00  0.00    +0.000 A 
ATOM      9  C   UNL     1      -4.273  11.532  17.084  0.00  0.00    +0.000 A 
ATOM     10  S   UNL     1      -5.733  12.540  17.069  0.00  0.00    +0.000 S 
ATOM     11  C   UNL     1      -6.076  12.467  18.812  0.00  0.00    +0.000 A 
ATOM     12  C   UNL     1      -7.419  12.576  19.210  0.00  0.00    +0.000 A 
ATOM     13  C   UNL     1      -7.761  12.548  20.559  0.00  0.00    +0.000 A 
ATOM     14  C   UNL     1      -6.773  12.391  21.515  0.00  0.00    +0.000 A 
ATOM     15  C   UNL     1      -5.437  12.281  21.118  0.00  0.00    +0.000 A 
ATOM     16  C   UNL     1      -5.050  12.343  19.767  0.00  0.00    +0.000 A 
ENDROOT
BRANCH   1  17
ATOM     17  C   UNL     1      -1.344  13.229  19.637  0.00  0.00    +0.000 C 
BRANCH  17  18
ATOM     18  S   UNL     1       0.137  12.839  20.681  0.00  0.00    +0.000 S 
BRANCH  18  21
ATOM     19  C   UNL     1       0.461   9.899  22.314  0.00  0.00    +0.000 C 
ATOM     20  N   UNL     1       0.792  10.143  20.931  0.00  0.00    +0.000 N 
ATOM     21  C   UNL     1       0.659  11.265  20.126  0.00  0.00    +0.000 A 
ATOM     22  N   UNL     1       1.113  11.048  18.918  0.00  0.00    +0.000 NA
ATOM     23  C   UNL     1       1.522   9.737  18.899  0.00  0.00    +0.000 A 
ATOM     24  C   UNL     1       2.066   8.966  17.859  0.00  0.00    +0.000 A 
ATOM     25  C   UNL     1       2.392   7.623  18.095  0.00  0.00    +0.000 A 
ATOM     26  C   UNL     1       2.185   7.049  19.353  0.00  0.00    +0.000 A 
ATOM     27  C   UNL     1       1.650   7.800  20.401  0.00  0.00    +0.000 A 
ATOM     28  C   UNL     1       1.327   9.135  20.143  0.00  0.00    +0.000 A 
ENDBRANCH  18  21
ENDBRANCH  17  18
ENDBRANCH   1  17
TORSDOF 3
ENDMDL
MODEL 6
REMARK VINA RESULT:      -8.1      0.934      2.180
REMARK  Name = 
REMARK  4 active torsions:
REMARK  status: ('A' for Active; 'I' for Inactive)
REMARK    1  A    between atoms: C_1  and  N_2
REMARK    2  A    between atoms: C_3  and  S_4
REMARK    3  A    between atoms: S_4  and  C_5
REMARK    4  A    between atoms: C_5  and  C_6
REMARK                            x       y       z     vdW  Elec       q    Type
REMARK                         _______ _______ _______ _____ _____    ______ ____
ROOT
ATOM      1  C   UNL     1       2.581   7.263  19.167  0.00  0.00    +0.000 C 
ATOM      2  O   UNL     1       2.116   7.508  20.291  0.00  0.00    +0.000 OA
ATOM      3  N   UNL     1       2.971   5.972  18.735  0.00  0.00    +0.000 N 
ATOM      4  C   UNL     1       3.981   5.740  17.729  0.00  0.00    +0.000 A 
ATOM      5  C   UNL     1       5.054   6.639  17.600  0.00  0.00    +0.000 A 
ATOM      6  C   UNL     1       6.147   6.367  16.769  0.00  0.00    +0.000 A 
ATOM      7  C   UNL     1       6.193   5.186  16.046  0.00  0.00    +0.000 A 
ATOM      8  C   UNL     1       5.133   4.285  16.141  0.00  0.00    +0.000 A 
ATOM      9  C   UNL     1       4.043   4.554  16.976  0.00  0.00    +0.000 A 
ATOM     10  S   UNL     1       2.757   3.333  17.074  0.00  0.00    +0.000 S 
ATOM     11  C   UNL     1       2.374   3.545  18.796  0.00  0.00    +0.000 A 
ATOM     12  C   UNL     1       1.881   2.428  19.490  0.00  0.00    +0.000 A 
ATOM     13  C   UNL     1       1.540   2.524  20.835  0.00  0.00    +0.000 A 
ATOM     14  C   UNL     1       1.707   3.725  21.502  0.00  0.00    +0.000 A 
ATOM     15  C   UNL     1       2.199   4.836  20.812  0.00  0.00    +0.000 A 
ATOM     16  C   UNL     1       2.519   4.787  19.443  0.00  0.00    +0.000 A 
ENDROOT
BRANCH   1  17
ATOM     17  C   UNL     1       2.545   8.357  18.104  0.00  0.00    +0.000 C 
BRANCH  17  18
ATOM     18  S   UNL     1       0.817   8.766  17.578  0.00  0.00    +0.000 S 
BRANCH  18  21
ATOM     19  C   UNL     1      -2.194  10.214  18.084  0.00  0.00    +0.000 C 
ATOM     20  N   UNL     1      -0.956  10.580  18.729  0.00  0.00    +0.000 N 
ATOM     21  C   UNL     1       0.322  10.045  18.663  0.00  0.00    +0.000 A 
ATOM     22  N   UNL     1       1.164  10.713  19.410  0.00  0.00    +0.000 NA
ATOM     23  C   UNL     1       0.425  11.693  20.026  0.00  0.00    +0.000 A 
ATOM     24  C   UNL     1       0.806  12.678  20.951  0.00  0.00    +0.000 A 
ATOM     25  C   UNL     1      -0.157  13.566  21.449  0.00  0.00    +0.000 A 
ATOM     26  C   UNL     1      -1.490  13.482  21.032  0.00  0.00    +0.000 A 
ATOM     27  C   UNL     1      -1.888  12.512  20.109  0.00  0.00    +0.000 A 
ATOM     28  C   UNL     1      -0.912  11.634  19.629  0.00  0.00    +0.000 A 
ENDBRANCH  18  21
ENDBRANCH  17  18
ENDBRANCH   1  17
TORSDOF 3
ENDMDL
MODEL 7
REMARK VINA RESULT:      -8.0      2.090      4.292
REMARK  Name = 
REMARK  4 active torsions:
REMARK  status: ('A' for Active; 'I' for Inactive)
REMARK    1  A    between atoms: C_1  and  N_2
REMARK    2  A    between atoms: C_3  and  S_4
REMARK    3  A    between atoms: S_4  and  C_5
REMARK    4  A    between atoms: C_5  and  C_6
REMARK                            x       y       z     vdW  Elec       q    Type
REMARK                         _______ _______ _______ _____ _____    ______ ____
ROOT
ATOM      1  C   UNL     1       3.075   7.256  17.536  0.00  0.00    +0.000 C 
ATOM      2  O   UNL     1       3.247   7.853  16.461  0.00  0.00    +0.000 OA
ATOM      3  N   UNL     1       3.696   6.027  17.867  0.00  0.00    +0.000 N 
ATOM      4  C   UNL     1       3.126   5.069  18.786  0.00  0.00    +0.000 A 
ATOM      5  C   UNL     1       1.730   4.949  18.890  0.00  0.00    +0.000 A 
ATOM      6  C   UNL     1       1.130   3.921  19.626  0.00  0.00    +0.000 A 
ATOM      7  C   UNL     1       1.917   2.985  20.278  0.00  0.00    +0.000 A 
ATOM      8  C   UNL     1       3.305   3.091  20.209  0.00  0.00    +0.000 A 
ATOM      9  C   UNL     1       3.905   4.116  19.467  0.00  0.00    +0.000 A 
ATOM     10  S   UNL     1       5.678   4.153  19.393  0.00  0.00    +0.000 S 
ATOM     11  C   UNL     1       5.822   4.722  17.715  0.00  0.00    +0.000 A 
ATOM     12  C   UNL     1       6.965   4.332  16.998  0.00  0.00    +0.000 A 
ATOM     13  C   UNL     1       7.156   4.757  15.686  0.00  0.00    +0.000 A 
ATOM     14  C   UNL     1       6.203   5.553  15.076  0.00  0.00    +0.000 A 
ATOM     15  C   UNL     1       5.065   5.940  15.790  0.00  0.00    +0.000 A 
ATOM     16  C   UNL     1       4.857   5.561  17.129  0.00  0.00    +0.000 A 
ENDROOT
BRANCH   1  17
ATOM     17  C   UNL     1       2.322   7.965  18.657  0.00  0.00    +0.000 C 
BRANCH  17  18
ATOM     18  S   UNL     1       1.626   9.593  18.112  0.00  0.00    +0.000 S 
BRANCH  18  21
ATOM     19  C   UNL     1      -0.564  12.151  18.388  0.00  0.00    +0.000 C 
ATOM     20  N   UNL     1      -0.218  11.214  19.428  0.00  0.00    +0.000 N 
ATOM     21  C   UNL     1       0.606  10.098  19.440  0.00  0.00    +0.000 A 
ATOM     22  N   UNL     1       0.647   9.541  20.624  0.00  0.00    +0.000 NA
ATOM     23  C   UNL     1      -0.204  10.274  21.415  0.00  0.00    +0.000 A 
ATOM     24  C   UNL     1      -0.563  10.112  22.762  0.00  0.00    +0.000 A 
ATOM     25  C   UNL     1      -1.479  11.001  23.343  0.00  0.00    +0.000 A 
ATOM     26  C   UNL     1      -2.031  12.046  22.595  0.00  0.00    +0.000 A 
ATOM     27  C   UNL     1      -1.681  12.227  21.255  0.00  0.00    +0.000 A 
ATOM     28  C   UNL     1      -0.772  11.326  20.695  0.00  0.00    +0.000 A 
ENDBRANCH  18  21
ENDBRANCH  17  18
ENDBRANCH   1  17
TORSDOF 3
ENDMDL
MODEL 8
REMARK VINA RESULT:      -7.8      1.320      1.728
REMARK  Name = 
REMARK  4 active torsions:
REMARK  status: ('A' for Active; 'I' for Inactive)
REMARK    1  A    between atoms: C_1  and  N_2
REMARK    2  A    between atoms: C_3  and  S_4
REMARK    3  A    between atoms: S_4  and  C_5
REMARK    4  A    between atoms: C_5  and  C_6
REMARK                            x       y       z     vdW  Elec       q    Type
REMARK                         _______ _______ _______ _____ _____    ______ ____
ROOT
ATOM      1  C   UNL     1       2.201   7.121  18.983  0.00  0.00    +0.000 C 
ATOM      2  O   UNL     1       1.820   7.435  20.121  0.00  0.00    +0.000 OA
ATOM      3  N   UNL     1       2.742   5.854  18.651  0.00  0.00    +0.000 N 
ATOM      4  C   UNL     1       3.669   5.644  17.564  0.00  0.00    +0.000 A 
ATOM      5  C   UNL     1       4.571   6.664  17.212  0.00  0.00    +0.000 A 
ATOM      6  C   UNL     1       5.604   6.449  16.292  0.00  0.00    +0.000 A 
ATOM      7  C   UNL     1       5.760   5.205  15.701  0.00  0.00    +0.000 A 
ATOM      8  C   UNL     1       4.868   4.182  16.017  0.00  0.00    +0.000 A 
ATOM      9  C   UNL     1       3.838   4.394  16.942  0.00  0.00    +0.000 A 
ATOM     10  S   UNL     1       2.775   3.025  17.322  0.00  0.00    +0.000 S 
ATOM     11  C   UNL     1       2.539   3.394  19.045  0.00  0.00    +0.000 A 
ATOM     12  C   UNL     1       2.297   2.313  19.909  0.00  0.00    +0.000 A 
ATOM     13  C   UNL     1       2.082   2.527  21.267  0.00  0.00    +0.000 A 
ATOM     14  C   UNL     1       2.128   3.813  21.775  0.00  0.00    +0.000 A 
ATOM     15  C   UNL     1       2.369   4.889  20.915  0.00  0.00    +0.000 A 
ATOM     16  C   UNL     1       2.553   4.714  19.531  0.00  0.00    +0.000 A 
ENDROOT
BRANCH   1  17
ATOM     17  C   UNL     1       1.889   8.056  17.819  0.00  0.00    +0.000 C 
BRANCH  17  18
ATOM     18  S   UNL     1       2.707   9.707  18.011  0.00  0.00    +0.000 S 
BRANCH  18  21
ATOM     19  C   UNL     1       2.585  13.071  18.301  0.00  0.00    +0.000 C 
ATOM     20  N   UNL     1       1.533  12.150  18.653  0.00  0.00    +0.000 N 
ATOM     21  C   UNL     1       1.423  10.772  18.536  0.00  0.00    +0.000 A 
ATOM     22  N   UNL     1       0.282  10.336  19.007  0.00  0.00    +0.000 NA
ATOM     23  C   UNL     1      -0.409  11.452  19.411  0.00  0.00    +0.000 A 
ATOM     24  C   UNL     1      -1.691  11.579  19.968  0.00  0.00    +0.000 A 
ATOM     25  C   UNL     1      -2.182  12.853  20.286  0.00  0.00    +0.000 A 
ATOM     26  C   UNL     1      -1.405  13.994  20.058  0.00  0.00    +0.000 A 
ATOM     27  C   UNL     1      -0.125  13.888  19.511  0.00  0.00    +0.000 A 
ATOM     28  C   UNL     1       0.342  12.609  19.196  0.00  0.00    +0.000 A 
ENDBRANCH  18  21
ENDBRANCH  17  18
ENDBRANCH   1  17
TORSDOF 3
ENDMDL
MODEL 9
REMARK VINA RESULT:      -7.8      1.355      3.649
REMARK  Name = 
REMARK  4 active torsions:
REMARK  status: ('A' for Active; 'I' for Inactive)
REMARK    1  A    between atoms: C_1  and  N_2
REMARK    2  A    between atoms: C_3  and  S_4
REMARK    3  A    between atoms: S_4  and  C_5
REMARK    4  A    between atoms: C_5  and  C_6
REMARK                            x       y       z     vdW  Elec       q    Type
REMARK                         _______ _______ _______ _____ _____    ______ ____
ROOT
ATOM      1  C   UNL     1       2.560   7.374  18.366  0.00  0.00    +0.000 C 
ATOM      2  O   UNL     1       2.693   8.148  17.404  0.00  0.00    +0.000 OA
ATOM      3  N   UNL     1       3.237   6.135  18.484  0.00  0.00    +0.000 N 
ATOM      4  C   UNL     1       2.722   5.015  19.235  0.00  0.00    +0.000 A 
ATOM      5  C   UNL     1       1.333   4.819  19.327  0.00  0.00    +0.000 A 
ATOM      6  C   UNL     1       0.787   3.658  19.887  0.00  0.00    +0.000 A 
ATOM      7  C   UNL     1       1.622   2.662  20.369  0.00  0.00    +0.000 A 
ATOM      8  C   UNL     1       3.003   2.838  20.308  0.00  0.00    +0.000 A 
ATOM      9  C   UNL     1       3.549   3.997  19.743  0.00  0.00    +0.000 A 
ATOM     10  S   UNL     1       5.318   4.122  19.662  0.00  0.00    +0.000 S 
ATOM     11  C   UNL     1       5.414   4.967  18.102  0.00  0.00    +0.000 A 
ATOM     12  C   UNL     1       6.561   4.752  17.321  0.00  0.00    +0.000 A 
ATOM     13  C   UNL     1       6.716   5.396  16.097  0.00  0.00    +0.000 A 
ATOM     14  C   UNL     1       5.721   6.240  15.635  0.00  0.00    +0.000 A 
ATOM     15  C   UNL     1       4.579   6.453  16.412  0.00  0.00    +0.000 A 
ATOM     16  C   UNL     1       4.406   5.849  17.670  0.00  0.00    +0.000 A 
ENDROOT
BRANCH   1  17
ATOM     17  C   UNL     1       1.795   7.855  19.595  0.00  0.00    +0.000 C 
BRANCH  17  18
ATOM     18  S   UNL     1       1.740   9.703  19.707  0.00  0.00    +0.000 S 
BRANCH  18  21
ATOM     19  C   UNL     1      -0.776  11.691  20.771  0.00  0.00    +0.000 C 
ATOM     20  N   UNL     1      -0.751  10.938  19.541  0.00  0.00    +0.000 N 
ATOM     21  C   UNL     1       0.222  10.140  18.957  0.00  0.00    +0.000 A 
ATOM     22  N   UNL     1      -0.191   9.624  17.827  0.00  0.00    +0.000 NA
ATOM     23  C   UNL     1      -1.455  10.122  17.626  0.00  0.00    +0.000 A 
ATOM     24  C   UNL     1      -2.356   9.924  16.567  0.00  0.00    +0.000 A 
ATOM     25  C   UNL     1      -3.601  10.568  16.591  0.00  0.00    +0.000 A 
ATOM     26  C   UNL     1      -3.953  11.400  17.659  0.00  0.00    +0.000 A 
ATOM     27  C   UNL     1      -3.073  11.605  18.724  0.00  0.00    +0.000 A 
ATOM     28  C   UNL     1      -1.836  10.958  18.677  0.00  0.00    +0.000 A 
ENDBRANCH  18  21
ENDBRANCH  17  18
ENDBRANCH   1  17
TORSDOF 3
ENDMDL
