MODEL 1
REMARK VINA RESULT:      -7.7      0.000      0.000
REMARK  Name = 
REMARK  3 active torsions:
REMARK  status: ('A' for Active; 'I' for Inactive)
REMARK    1  A    between atoms: C_2  and  C_3
REMARK    2  A    between atoms: N_17  and  C_18
REMARK    3  A    between atoms: C_18  and  C_19
REMARK                            x       y       z     vdW  Elec       q    Type
REMARK                         _______ _______ _______ _____ _____    ______ ____
ROOT
ATOM      1  O   UNL     1       2.300   6.010  17.519  0.00  0.00    +0.000 OA
ATOM      2  C   UNL     1       3.113   5.181  17.932  0.00  0.00    +0.000 C 
ATOM      3  N   UNL     1       4.438   5.125  17.475  0.00  0.00    +0.000 N 
ATOM      4  C   UNL     1       5.435   4.143  17.910  0.00  0.00    +0.000 C 
ATOM      5  C   UNL     1       6.876   4.554  17.620  0.00  0.00    +0.000 C 
ATOM      6  C   UNL     1       7.139   5.990  18.084  0.00  0.00    +0.000 C 
ATOM      7  C   UNL     1       6.032   6.959  17.684  0.00  0.00    +0.000 C 
ATOM      8  C   UNL     1       4.981   6.306  16.776  0.00  0.00    +0.000 C 
ATOM      9  C   UNL     1       5.557   6.015  15.363  0.00  0.00    +0.000 C 
ATOM     10  N   UNL     1       6.321   4.787  15.129  0.00  0.00    +0.000 NA
ATOM     11  C   UNL     1       7.258   4.338  16.149  0.00  0.00    +0.000 C 
ENDROOT
BRANCH   2  12
ATOM     12  C   UNL     1       2.672   4.286  19.037  0.00  0.00    +0.000 A 
ATOM     13  C   UNL     1       2.690   4.672  20.379  0.00  0.00    +0.000 A 
ATOM     14  C   UNL     1       2.112   3.827  21.313  0.00  0.00    +0.000 A 
ATOM     15  N   UNL     1       1.597   2.616  21.014  0.00  0.00    +0.000 NA
ATOM     16  C   UNL     1       1.672   2.230  19.720  0.00  0.00    +0.000 A 
ATOM     17  C   UNL     1       2.182   3.024  18.708  0.00  0.00    +0.000 A 
ATOM     18  F   UNL     1       2.155   2.568  17.447  0.00  0.00    +0.000 F 
ENDBRANCH   2  12
BRANCH  10  19
ATOM     19  C   UNL     1       6.857   4.678  13.758  0.00  0.00    +0.000 C 
BRANCH  19  20
ATOM     20  C   UNL     1       6.092   3.781  12.809  0.00  0.00    +0.000 A 
ATOM     21  C   UNL     1       4.772   4.061  12.440  0.00  0.00    +0.000 A 
ATOM     22  C   UNL     1       4.110   3.235  11.535  0.00  0.00    +0.000 A 
ATOM     23  C   UNL     1       4.790   2.141  11.028  0.00  0.00    +0.000 A 
ATOM     24  N   UNL     1       6.055   1.822  11.372  0.00  0.00    +0.000 NA
ATOM     25  C   UNL     1       6.671   2.644  12.254  0.00  0.00    +0.000 A 
ENDBRANCH  19  20
ENDBRANCH  10  19
TORSDOF 3
ENDMDL
MODEL 2
REMARK VINA RESULT:      -7.4      0.747      1.088
REMARK  Name = 
REMARK  3 active torsions:
REMARK  status: ('A' for Active; 'I' for Inactive)
REMARK    1  A    between atoms: C_2  and  C_3
REMARK    2  A    between atoms: N_17  and  C_18
REMARK    3  A    between atoms: C_18  and  C_19
REMARK                            x       y       z     vdW  Elec       q    Type
REMARK                         _______ _______ _______ _____ _____    ______ ____
ROOT
ATOM      1  O   UNL     1       2.616   6.705  17.599  0.00  0.00    +0.000 OA
ATOM      2  C   UNL     1       3.251   5.708  17.946  0.00  0.00    +0.000 C 
ATOM      3  N   UNL     1       4.565   5.460  17.523  0.00  0.00    +0.000 N 
ATOM      4  C   UNL     1       5.354   4.279  17.880  0.00  0.00    +0.000 C 
ATOM      5  C   UNL     1       6.856   4.451  17.675  0.00  0.00    +0.000 C 
ATOM      6  C   UNL     1       7.345   5.764  18.292  0.00  0.00    +0.000 C 
ATOM      7  C   UNL     1       6.444   6.951  17.964  0.00  0.00    +0.000 C 
ATOM      8  C   UNL     1       5.338   6.588  16.965  0.00  0.00    +0.000 C 
ATOM      9  C   UNL     1       5.918   6.338  15.546  0.00  0.00    +0.000 C 
ATOM     10  N   UNL     1       6.465   5.021  15.207  0.00  0.00    +0.000 NA
ATOM     11  C   UNL     1       7.261   4.315  16.200  0.00  0.00    +0.000 C 
ENDROOT
BRANCH   2  12
ATOM     12  C   UNL     1       2.610   4.803  18.939  0.00  0.00    +0.000 A 
ATOM     13  C   UNL     1       2.735   4.980  20.318  0.00  0.00    +0.000 A 
ATOM     14  C   UNL     1       1.973   4.181  21.155  0.00  0.00    +0.000 A 
ATOM     15  N   UNL     1       1.169   3.189  20.719  0.00  0.00    +0.000 NA
ATOM     16  C   UNL     1       1.133   2.982  19.384  0.00  0.00    +0.000 A 
ATOM     17  C   UNL     1       1.817   3.760  18.465  0.00  0.00    +0.000 A 
ATOM     18  F   UNL     1       1.666   3.507  17.158  0.00  0.00    +0.000 F 
ENDBRANCH   2  12
BRANCH  10  19
ATOM     19  C   UNL     1       7.036   4.953  13.847  0.00  0.00    +0.000 C 
BRANCH  19  20
ATOM     20  C   UNL     1       6.383   3.973  12.896  0.00  0.00    +0.000 A 
ATOM     21  C   UNL     1       7.136   3.040  12.175  0.00  0.00    +0.000 A 
ATOM     22  C   UNL     1       6.500   2.126  11.338  0.00  0.00    +0.000 A 
ATOM     23  C   UNL     1       5.121   2.179  11.239  0.00  0.00    +0.000 A 
ATOM     24  N   UNL     1       4.357   3.074  11.899  0.00  0.00    +0.000 NA
ATOM     25  C   UNL     1       5.005   3.948  12.705  0.00  0.00    +0.000 A 
ENDBRANCH  19  20
ENDBRANCH  10  19
TORSDOF 3
ENDMDL
MODEL 3
REMARK VINA RESULT:      -7.1      1.088      1.648
REMARK  Name = 
REMARK  3 active torsions:
REMARK  status: ('A' for Active; 'I' for Inactive)
REMARK    1  A    between atoms: C_2  and  C_3
REMARK    2  A    between atoms: N_17  and  C_18
REMARK    3  A    between atoms: C_18  and  C_19
REMARK                            x       y       z     vdW  Elec       q    Type
REMARK                         _______ _______ _______ _____ _____    ______ ____
ROOT
ATOM      1  O   UNL     1       2.190   6.194  17.464  0.00  0.00    +0.000 OA
ATOM      2  C   UNL     1       2.927   5.279  17.835  0.00  0.00    +0.000 C 
ATOM      3  N   UNL     1       4.271   5.181  17.444  0.00  0.00    +0.000 N 
ATOM      4  C   UNL     1       5.181   4.100  17.829  0.00  0.00    +0.000 C 
ATOM      5  C   UNL     1       6.657   4.442  17.657  0.00  0.00    +0.000 C 
ATOM      6  C   UNL     1       6.978   5.807  18.273  0.00  0.00    +0.000 C 
ATOM      7  C   UNL     1       5.956   6.880  17.913  0.00  0.00    +0.000 C 
ATOM      8  C   UNL     1       4.922   6.386  16.893  0.00  0.00    +0.000 C 
ATOM      9  C   UNL     1       5.560   6.194  15.489  0.00  0.00    +0.000 C 
ATOM     10  N   UNL     1       6.262   4.947  15.175  0.00  0.00    +0.000 NA
ATOM     11  C   UNL     1       7.110   4.343  16.192  0.00  0.00    +0.000 C 
ENDROOT
BRANCH   2  12
ATOM     12  C   UNL     1       2.371   4.312  18.822  0.00  0.00    +0.000 A 
ATOM     13  C   UNL     1       1.919   3.040  18.465  0.00  0.00    +0.000 A 
ATOM     14  C   UNL     1       1.568   2.161  19.475  0.00  0.00    +0.000 A 
ATOM     15  N   UNL     1       1.568   2.483  20.786  0.00  0.00    +0.000 NA
ATOM     16  C   UNL     1       1.927   3.749  21.097  0.00  0.00    +0.000 A 
ATOM     17  C   UNL     1       2.343   4.683  20.164  0.00  0.00    +0.000 A 
ATOM     18  F   UNL     1       2.735   5.893  20.586  0.00  0.00    +0.000 F 
ENDBRANCH   2  12
BRANCH  10  19
ATOM     19  C   UNL     1       6.868   4.935  13.829  0.00  0.00    +0.000 C 
BRANCH  19  20
ATOM     20  C   UNL     1       6.314   3.919  12.854  0.00  0.00    +0.000 A 
ATOM     21  C   UNL     1       7.148   3.023  12.177  0.00  0.00    +0.000 A 
ATOM     22  C   UNL     1       6.601   2.074  11.317  0.00  0.00    +0.000 A 
ATOM     23  C   UNL     1       5.227   2.055  11.150  0.00  0.00    +0.000 A 
ATOM     24  N   UNL     1       4.388   2.912  11.767  0.00  0.00    +0.000 NA
ATOM     25  C   UNL     1       4.950   3.822  12.597  0.00  0.00    +0.000 A 
ENDBRANCH  19  20
ENDBRANCH  10  19
TORSDOF 3
ENDMDL
MODEL 4
REMARK VINA RESULT:      -7.0      1.144      1.475
REMARK  Name = 
REMARK  3 active torsions:
REMARK  status: ('A' for Active; 'I' for Inactive)
REMARK    1  A    between atoms: C_2  and  C_3
REMARK    2  A    between atoms: N_17  and  C_18
REMARK    3  A    between atoms: C_18  and  C_19
REMARK                            x       y       z     vdW  Elec       q    Type
REMARK                         _______ _______ _______ _____ _____    ______ ____
ROOT
ATOM      1  O   UNL     1       2.260   6.682  17.717  0.00  0.00    +0.000 OA
ATOM      2  C   UNL     1       2.811   5.597  17.910  0.00  0.00    +0.000 C 
ATOM      3  N   UNL     1       4.096   5.302  17.431  0.00  0.00    +0.000 N 
ATOM      4  C   UNL     1       4.784   4.021  17.604  0.00  0.00    +0.000 C 
ATOM      5  C   UNL     1       6.293   4.094  17.396  0.00  0.00    +0.000 C 
ATOM      6  C   UNL     1       6.897   5.262  18.182  0.00  0.00    +0.000 C 
ATOM      7  C   UNL     1       6.099   6.554  18.040  0.00  0.00    +0.000 C 
ATOM      8  C   UNL     1       4.958   6.429  17.022  0.00  0.00    +0.000 C 
ATOM      9  C   UNL     1       5.504   6.334  15.570  0.00  0.00    +0.000 C 
ATOM     10  N   UNL     1       5.935   5.037  15.040  0.00  0.00    +0.000 NA
ATOM     11  C   UNL     1       6.675   4.134  15.909  0.00  0.00    +0.000 C 
ENDROOT
BRANCH   2  12
ATOM     12  C   UNL     1       2.103   4.617  18.778  0.00  0.00    +0.000 A 
ATOM     13  C   UNL     1       1.370   3.543  18.269  0.00  0.00    +0.000 A 
ATOM     14  C   UNL     1       0.882   2.600  19.158  0.00  0.00    +0.000 A 
ATOM     15  N   UNL     1       1.008   2.695  20.499  0.00  0.00    +0.000 NA
ATOM     16  C   UNL     1       1.647   3.790  20.970  0.00  0.00    +0.000 A 
ATOM     17  C   UNL     1       2.213   4.759  20.160  0.00  0.00    +0.000 A 
ATOM     18  F   UNL     1       2.877   5.775  20.728  0.00  0.00    +0.000 F 
ENDBRANCH   2  12
BRANCH  10  19
ATOM     19  C   UNL     1       6.487   5.113  13.673  0.00  0.00    +0.000 C 
BRANCH  19  20
ATOM     20  C   UNL     1       6.180   3.946  12.761  0.00  0.00    +0.000 A 
ATOM     21  C   UNL     1       4.868   3.635  12.387  0.00  0.00    +0.000 A 
ATOM     22  C   UNL     1       4.623   2.577  11.514  0.00  0.00    +0.000 A 
ATOM     23  C   UNL     1       5.705   1.851  11.045  0.00  0.00    +0.000 A 
ATOM     24  N   UNL     1       6.983   2.103  11.395  0.00  0.00    +0.000 NA
ATOM     25  C   UNL     1       7.188   3.137  12.244  0.00  0.00    +0.000 A 
ENDBRANCH  19  20
ENDBRANCH  10  19
TORSDOF 3
ENDMDL
MODEL 5
REMARK VINA RESULT:      -6.8      1.086      1.353
REMARK  Name = 
REMARK  3 active torsions:
REMARK  status: ('A' for Active; 'I' for Inactive)
REMARK    1  A    between atoms: C_2  and  C_3
REMARK    2  A    between atoms: N_17  and  C_18
REMARK    3  A    between atoms: C_18  and  C_19
REMARK                            x       y       z     vdW  Elec       q    Type
REMARK                         _______ _______ _______ _____ _____    ______ ____
ROOT
ATOM      1  O   UNL     1       2.352   5.493  17.589  0.00  0.00    +0.000 OA
ATOM      2  C   UNL     1       3.315   4.888  18.065  0.00  0.00    +0.000 C 
ATOM      3  N   UNL     1       4.618   5.022  17.563  0.00  0.00    +0.000 N 
ATOM      4  C   UNL     1       5.790   4.304  18.070  0.00  0.00    +0.000 C 
ATOM      5  C   UNL     1       7.121   4.936  17.675  0.00  0.00    +0.000 C 
ATOM      6  C   UNL     1       7.116   6.442  17.953  0.00  0.00    +0.000 C 
ATOM      7  C   UNL     1       5.839   7.132  17.486  0.00  0.00    +0.000 C 
ATOM      8  C   UNL     1       4.914   6.187  16.707  0.00  0.00    +0.000 C 
ATOM      9  C   UNL     1       5.509   5.834  15.316  0.00  0.00    +0.000 C 
ATOM     10  N   UNL     1       6.488   4.750  15.198  0.00  0.00    +0.000 NA
ATOM     11  C   UNL     1       7.511   4.613  16.225  0.00  0.00    +0.000 C 
ENDROOT
BRANCH   2  12
ATOM     12  C   UNL     1       3.071   4.071  19.285  0.00  0.00    +0.000 A 
ATOM     13  C   UNL     1       3.494   2.746  19.407  0.00  0.00    +0.000 A 
ATOM     14  C   UNL     1       3.360   2.125  20.638  0.00  0.00    +0.000 A 
ATOM     15  N   UNL     1       2.776   2.699  21.711  0.00  0.00    +0.000 NA
ATOM     16  C   UNL     1       2.298   3.952  21.539  0.00  0.00    +0.000 A 
ATOM     17  C   UNL     1       2.430   4.673  20.365  0.00  0.00    +0.000 A 
ATOM     18  F   UNL     1       1.972   5.932  20.320  0.00  0.00    +0.000 F 
ENDBRANCH   2  12
BRANCH  10  19
ATOM     19  C   UNL     1       7.010   4.572  13.829  0.00  0.00    +0.000 C 
BRANCH  19  20
ATOM     20  C   UNL     1       6.158   3.746  12.890  0.00  0.00    +0.000 A 
ATOM     21  C   UNL     1       4.829   4.086  12.616  0.00  0.00    +0.000 A 
ATOM     22  C   UNL     1       4.084   3.327  11.716  0.00  0.00    +0.000 A 
ATOM     23  C   UNL     1       4.693   2.236  11.120  0.00  0.00    +0.000 A 
ATOM     24  N   UNL     1       5.965   1.860  11.369  0.00  0.00    +0.000 NA
ATOM     25  C   UNL     1       6.661   2.618  12.248  0.00  0.00    +0.000 A 
ENDBRANCH  19  20
ENDBRANCH  10  19
TORSDOF 3
ENDMDL
MODEL 6
REMARK VINA RESULT:      -6.3      3.680      5.498
REMARK  Name = 
REMARK  3 active torsions:
REMARK  status: ('A' for Active; 'I' for Inactive)
REMARK    1  A    between atoms: C_2  and  C_3
REMARK    2  A    between atoms: N_17  and  C_18
REMARK    3  A    between atoms: C_18  and  C_19
REMARK                            x       y       z     vdW  Elec       q    Type
REMARK                         _______ _______ _______ _____ _____    ______ ____
ROOT
ATOM      1  O   UNL     1       2.212   7.893  21.628  0.00  0.00    +0.000 OA
ATOM      2  C   UNL     1       1.859   7.780  20.453  0.00  0.00    +0.000 C 
ATOM      3  N   UNL     1       2.156   6.650  19.677  0.00  0.00    +0.000 N 
ATOM      4  C   UNL     1       1.788   6.478  18.269  0.00  0.00    +0.000 C 
ATOM      5  C   UNL     1       1.823   5.029  17.793  0.00  0.00    +0.000 C 
ATOM      6  C   UNL     1       1.081   4.113  18.771  0.00  0.00    +0.000 C 
ATOM      7  C   UNL     1       1.431   4.388  20.229  0.00  0.00    +0.000 C 
ATOM      8  C   UNL     1       2.560   5.415  20.377  0.00  0.00    +0.000 C 
ATOM      9  C   UNL     1       3.923   4.827  19.918  0.00  0.00    +0.000 C 
ATOM     10  N   UNL     1       4.280   4.844  18.497  0.00  0.00    +0.000 NA
ATOM     11  C   UNL     1       3.252   4.543  17.512  0.00  0.00    +0.000 C 
ENDROOT
BRANCH   2  12
ATOM     12  C   UNL     1       0.995   8.856  19.894  0.00  0.00    +0.000 A 
ATOM     13  C   UNL     1       1.312   9.553  18.726  0.00  0.00    +0.000 A 
ATOM     14  C   UNL     1       0.368  10.422  18.204  0.00  0.00    +0.000 A 
ATOM     15  N   UNL     1      -0.815  10.692  18.796  0.00  0.00    +0.000 NA
ATOM     16  C   UNL     1      -1.059  10.069  19.971  0.00  0.00    +0.000 A 
ATOM     17  C   UNL     1      -0.202   9.146  20.545  0.00  0.00    +0.000 A 
ATOM     18  F   UNL     1      -0.567   8.540  21.684  0.00  0.00    +0.000 F 
ENDBRANCH   2  12
BRANCH  10  19
ATOM     19  C   UNL     1       5.574   4.196  18.207  0.00  0.00    +0.000 C 
BRANCH  19  20
ATOM     20  C   UNL     1       6.146   4.431  16.825  0.00  0.00    +0.000 A 
ATOM     21  C   UNL     1       5.800   3.618  15.741  0.00  0.00    +0.000 A 
ATOM     22  C   UNL     1       6.313   3.887  14.474  0.00  0.00    +0.000 A 
ATOM     23  C   UNL     1       7.171   4.963  14.331  0.00  0.00    +0.000 A 
ATOM     24  N   UNL     1       7.547   5.761  15.351  0.00  0.00    +0.000 NA
ATOM     25  C   UNL     1       7.031   5.474  16.569  0.00  0.00    +0.000 A 
ENDBRANCH  19  20
ENDBRANCH  10  19
TORSDOF 3
ENDMDL
MODEL 7
REMARK VINA RESULT:      -6.3      6.878      8.579
REMARK  Name = 
REMARK  3 active torsions:
REMARK  status: ('A' for Active; 'I' for Inactive)
REMARK    1  A    between atoms: C_2  and  C_3
REMARK    2  A    between atoms: N_17  and  C_18
REMARK    3  A    between atoms: C_18  and  C_19
REMARK                            x       y       z     vdW  Elec       q    Type
REMARK                         _______ _______ _______ _____ _____    ______ ____
ROOT
ATOM      1  O   UNL     1      -1.081  12.774  17.627  0.00  0.00    +0.000 OA
ATOM      2  C   UNL     1      -1.423  11.863  18.383  0.00  0.00    +0.000 C 
ATOM      3  N   UNL     1      -0.503  10.992  18.986  0.00  0.00    +0.000 N 
ATOM      4  C   UNL     1      -0.856   9.876  19.867  0.00  0.00    +0.000 C 
ATOM      5  C   UNL     1       0.301   9.376  20.726  0.00  0.00    +0.000 C 
ATOM      6  C   UNL     1       1.015  10.542  21.416  0.00  0.00    +0.000 C 
ATOM      7  C   UNL     1       1.284  11.715  20.479  0.00  0.00    +0.000 C 
ATOM      8  C   UNL     1       0.915  11.400  19.024  0.00  0.00    +0.000 C 
ATOM      9  C   UNL     1       1.902  10.374  18.400  0.00  0.00    +0.000 C 
ATOM     10  N   UNL     1       1.693   8.941  18.619  0.00  0.00    +0.000 NA
ATOM     11  C   UNL     1       1.270   8.486  19.935  0.00  0.00    +0.000 C 
ENDROOT
BRANCH   2  12
ATOM     12  C   UNL     1      -2.866  11.775  18.737  0.00  0.00    +0.000 A 
ATOM     13  C   UNL     1      -3.424  12.454  19.822  0.00  0.00    +0.000 A 
ATOM     14  C   UNL     1      -4.801  12.435  19.972  0.00  0.00    +0.000 A 
ATOM     15  N   UNL     1      -5.634  11.736  19.172  0.00  0.00    +0.000 NA
ATOM     16  C   UNL     1      -5.060  11.018  18.181  0.00  0.00    +0.000 A 
ATOM     17  C   UNL     1      -3.700  11.015  17.920  0.00  0.00    +0.000 A 
ATOM     18  F   UNL     1      -3.240  10.314  16.874  0.00  0.00    +0.000 F 
ENDBRANCH   2  12
BRANCH  10  19
ATOM     19  C   UNL     1       2.743   8.094  18.019  0.00  0.00    +0.000 C 
BRANCH  19  20
ATOM     20  C   UNL     1       2.706   6.625  18.380  0.00  0.00    +0.000 A 
ATOM     21  C   UNL     1       1.785   5.750  17.794  0.00  0.00    +0.000 A 
ATOM     22  C   UNL     1       1.803   4.396  18.120  0.00  0.00    +0.000 A 
ATOM     23  C   UNL     1       2.743   3.955  19.035  0.00  0.00    +0.000 A 
ATOM     24  N   UNL     1       3.636   4.766  19.639  0.00  0.00    +0.000 NA
ATOM     25  C   UNL     1       3.593   6.076  19.302  0.00  0.00    +0.000 A 
ENDBRANCH  19  20
ENDBRANCH  10  19
TORSDOF 3
ENDMDL
MODEL 8
REMARK VINA RESULT:      -6.2      3.648      5.461
REMARK  Name = 
REMARK  3 active torsions:
REMARK  status: ('A' for Active; 'I' for Inactive)
REMARK    1  A    between atoms: C_2  and  C_3
REMARK    2  A    between atoms: N_17  and  C_18
REMARK    3  A    between atoms: C_18  and  C_19
REMARK                            x       y       z     vdW  Elec       q    Type
REMARK                         _______ _______ _______ _____ _____    ______ ____
ROOT
ATOM      1  O   UNL     1       2.198   8.037  21.549  0.00  0.00    +0.000 OA
ATOM      2  C   UNL     1       1.844   7.882  20.379  0.00  0.00    +0.000 C 
ATOM      3  N   UNL     1       2.160   6.734  19.636  0.00  0.00    +0.000 N 
ATOM      4  C   UNL     1       1.791   6.512  18.236  0.00  0.00    +0.000 C 
ATOM      5  C   UNL     1       1.853   5.051  17.803  0.00  0.00    +0.000 C 
ATOM      6  C   UNL     1       1.132   4.151  18.811  0.00  0.00    +0.000 C 
ATOM      7  C   UNL     1       1.482   4.476  20.259  0.00  0.00    +0.000 C 
ATOM      8  C   UNL     1       2.592   5.530  20.372  0.00  0.00    +0.000 C 
ATOM      9  C   UNL     1       3.964   4.955  19.926  0.00  0.00    +0.000 C 
ATOM     10  N   UNL     1       4.316   4.936  18.504  0.00  0.00    +0.000 NA
ATOM     11  C   UNL     1       3.291   4.585  17.531  0.00  0.00    +0.000 C 
ENDROOT
BRANCH   2  12
ATOM     12  C   UNL     1       0.957   8.923  19.791  0.00  0.00    +0.000 A 
ATOM     13  C   UNL     1      -0.297   9.237  20.320  0.00  0.00    +0.000 A 
ATOM     14  C   UNL     1      -0.975  10.326  19.799  0.00  0.00    +0.000 A 
ATOM     15  N   UNL     1      -0.530  11.062  18.758  0.00  0.00    +0.000 NA
ATOM     16  C   UNL     1       0.646  10.682  18.209  0.00  0.00    +0.000 A 
ATOM     17  C   UNL     1       1.420   9.641  18.691  0.00  0.00    +0.000 A 
ATOM     18  F   UNL     1       2.600   9.384  18.109  0.00  0.00    +0.000 F 
ENDBRANCH   2  12
BRANCH  10  19
ATOM     19  C   UNL     1       5.622   4.305  18.227  0.00  0.00    +0.000 C 
BRANCH  19  20
ATOM     20  C   UNL     1       6.166   4.478  16.826  0.00  0.00    +0.000 A 
ATOM     21  C   UNL     1       5.753   3.656  15.773  0.00  0.00    +0.000 A 
ATOM     22  C   UNL     1       6.245   3.868  14.487  0.00  0.00    +0.000 A 
ATOM     23  C   UNL     1       7.149   4.899  14.293  0.00  0.00    +0.000 A 
ATOM     24  N   UNL     1       7.590   5.702  15.283  0.00  0.00    +0.000 NA
ATOM     25  C   UNL     1       7.094   5.470  16.521  0.00  0.00    +0.000 A 
ENDBRANCH  19  20
ENDBRANCH  10  19
TORSDOF 3
ENDMDL
MODEL 9
REMARK VINA RESULT:      -6.2      6.530      8.920
REMARK  Name = 
REMARK  3 active torsions:
REMARK  status: ('A' for Active; 'I' for Inactive)
REMARK    1  A    between atoms: C_2  and  C_3
REMARK    2  A    between atoms: N_17  and  C_18
REMARK    3  A    between atoms: C_18  and  C_19
REMARK                            x       y       z     vdW  Elec       q    Type
REMARK                         _______ _______ _______ _____ _____    ______ ____
ROOT
ATOM      1  O   UNL     1       0.813  12.697  21.738  0.00  0.00    +0.000 OA
ATOM      2  C   UNL     1       1.322  12.514  20.630  0.00  0.00    +0.000 C 
ATOM      3  N   UNL     1       1.210  11.300  19.936  0.00  0.00    +0.000 N 
ATOM      4  C   UNL     1       1.820  11.019  18.633  0.00  0.00    +0.000 C 
ATOM      5  C   UNL     1       1.201   9.832  17.903  0.00  0.00    +0.000 C 
ATOM      6  C   UNL     1      -0.327   9.932  17.893  0.00  0.00    +0.000 C 
ATOM      7  C   UNL     1      -0.910  10.311  19.250  0.00  0.00    +0.000 C 
ATOM      8  C   UNL     1       0.155  10.357  20.353  0.00  0.00    +0.000 C 
ATOM      9  C   UNL     1       0.662   8.932  20.709  0.00  0.00    +0.000 C 
ATOM     10  N   UNL     1       1.720   8.317  19.904  0.00  0.00    +0.000 NA
ATOM     11  C   UNL     1       1.692   8.487  18.459  0.00  0.00    +0.000 C 
ENDROOT
BRANCH   2  12
ATOM     12  C   UNL     1       1.985  13.679  19.983  0.00  0.00    +0.000 A 
ATOM     13  C   UNL     1       3.331  13.992  20.182  0.00  0.00    +0.000 A 
ATOM     14  C   UNL     1       3.892  14.999  19.414  0.00  0.00    +0.000 A 
ATOM     15  N   UNL     1       3.196  15.749  18.533  0.00  0.00    +0.000 NA
ATOM     16  C   UNL     1       1.875  15.482  18.424  0.00  0.00    +0.000 A 
ATOM     17  C   UNL     1       1.235  14.464  19.110  0.00  0.00    +0.000 A 
ATOM     18  F   UNL     1      -0.068  14.246  18.884  0.00  0.00    +0.000 F 
ENDBRANCH   2  12
BRANCH  10  19
ATOM     19  C   UNL     1       2.053   6.940  20.322  0.00  0.00    +0.000 C 
BRANCH  19  20
ATOM     20  C   UNL     1       2.671   6.051  19.266  0.00  0.00    +0.000 A 
ATOM     21  C   UNL     1       1.923   5.072  18.603  0.00  0.00    +0.000 A 
ATOM     22  C   UNL     1       2.514   4.297  17.607  0.00  0.00    +0.000 A 
ATOM     23  C   UNL     1       3.847   4.519  17.308  0.00  0.00    +0.000 A 
ATOM     24  N   UNL     1       4.611   5.438  17.935  0.00  0.00    +0.000 NA
ATOM     25  C   UNL     1       4.008   6.175  18.897  0.00  0.00    +0.000 A 
ENDBRANCH  19  20
ENDBRANCH  10  19
TORSDOF 3
ENDMDL
