MODEL 1
REMARK VINA RESULT:      -8.5      0.000      0.000
REMARK  Name = 
REMARK  4 active torsions:
REMARK  status: ('A' for Active; 'I' for Inactive)
REMARK    1  A    between atoms: C_1  and  N_2
REMARK    2  A    between atoms: C_5  and  C_6
REMARK    3  A    between atoms: C_12  and  N_13
REMARK    4  A    between atoms: C_18  and  C_19
REMARK                            x       y       z     vdW  Elec       q    Type
REMARK                         _______ _______ _______ _____ _____    ______ ____
ROOT
ATOM      1  C   UNL     1       4.703   3.828  18.751  0.00  0.00    +0.000 A 
ATOM      2  C   UNL     1       4.536   2.573  19.307  0.00  0.00    +0.000 A 
ATOM      3  N   UNL     1       3.480   2.615  20.176  0.00  0.00    +0.000 N 
ATOM      4  C   UNL     1       2.934   3.876  20.198  0.00  0.00    +0.000 A 
ATOM      5  C   UNL     1       1.861   4.379  20.939  0.00  0.00    +0.000 A 
ATOM      6  C   UNL     1       1.510   5.718  20.745  0.00  0.00    +0.000 A 
ATOM      7  C   UNL     1       2.206   6.516  19.831  0.00  0.00    +0.000 A 
ATOM      8  C   UNL     1       3.283   5.989  19.100  0.00  0.00    +0.000 A 
ATOM      9  C   UNL     1       3.663   4.648  19.294  0.00  0.00    +0.000 A 
ATOM     10  H   UNL     1       3.145   1.835  20.722  0.00  0.00    +0.000 HD
ENDROOT
BRANCH   7  11
ATOM     11  N   UNL     1       1.827   7.862  19.601  0.00  0.00    +0.000 N 
ATOM     12  C   UNL     1       2.028   8.557  18.427  0.00  0.00    +0.000 A 
ATOM     13  N   UNL     1       1.526   9.769  18.462  0.00  0.00    +0.000 NA
ATOM     14  C   UNL     1       1.017   9.902  19.722  0.00  0.00    +0.000 A 
ATOM     15  C   UNL     1       0.402  11.019  20.301  0.00  0.00    +0.000 A 
ATOM     16  C   UNL     1       0.013  10.952  21.647  0.00  0.00    +0.000 A 
ATOM     17  C   UNL     1       0.242   9.795  22.398  0.00  0.00    +0.000 A 
ATOM     18  C   UNL     1       0.842   8.670  21.828  0.00  0.00    +0.000 A 
ATOM     19  C   UNL     1       1.197   8.739  20.473  0.00  0.00    +0.000 A 
BRANCH  16  20
ATOM     20  C   UNL     1      -0.604  12.087  22.262  0.00  0.00    +0.000 C 
ATOM     21  N   UNL     1      -1.101  13.017  22.747  0.00  0.00    +0.000 NA
ENDBRANCH  16  20
ENDBRANCH   7  11
BRANCH   1  26
ATOM     22  C   UNL     1       7.421   7.523  17.521  0.00  0.00    +0.000 C 
ATOM     23  N   UNL     1       6.961   6.195  17.134  0.00  0.00    +0.000 NA
ATOM     24  C   UNL     1       5.705   6.245  16.386  0.00  0.00    +0.000 C 
ATOM     25  C   UNL     1       5.191   4.815  16.459  0.00  0.00    +0.000 C 
ATOM     26  C   UNL     1       5.761   4.249  17.767  0.00  0.00    +0.000 C 
ATOM     27  C   UNL     1       6.681   5.353  18.303  0.00  0.00    +0.000 C 
ENDBRANCH   1  26
TORSDOF 3
ENDMDL
MODEL 2
REMARK VINA RESULT:      -8.5      1.140      1.551
REMARK  Name = 
REMARK  4 active torsions:
REMARK  status: ('A' for Active; 'I' for Inactive)
REMARK    1  A    between atoms: C_1  and  N_2
REMARK    2  A    between atoms: C_5  and  C_6
REMARK    3  A    between atoms: C_12  and  N_13
REMARK    4  A    between atoms: C_18  and  C_19
REMARK                            x       y       z     vdW  Elec       q    Type
REMARK                         _______ _______ _______ _____ _____    ______ ____
ROOT
ATOM      1  C   UNL     1       4.773   5.042  18.513  0.00  0.00    +0.000 A 
ATOM      2  C   UNL     1       4.789   3.731  18.951  0.00  0.00    +0.000 A 
ATOM      3  N   UNL     1       3.761   3.551  19.835  0.00  0.00    +0.000 N 
ATOM      4  C   UNL     1       3.054   4.720  19.985  0.00  0.00    +0.000 A 
ATOM      5  C   UNL     1       1.945   5.004  20.786  0.00  0.00    +0.000 A 
ATOM      6  C   UNL     1       1.414   6.296  20.724  0.00  0.00    +0.000 A 
ATOM      7  C   UNL     1       1.973   7.260  19.878  0.00  0.00    +0.000 A 
ATOM      8  C   UNL     1       3.089   6.951  19.086  0.00  0.00    +0.000 A 
ATOM      9  C   UNL     1       3.649   5.662  19.146  0.00  0.00    +0.000 A 
ATOM     10  H   UNL     1       3.548   2.686  20.311  0.00  0.00    +0.000 HD
ENDROOT
BRANCH   7  11
ATOM     11  N   UNL     1       1.412   8.558  19.783  0.00  0.00    +0.000 N 
ATOM     12  C   UNL     1       1.448   9.360  18.661  0.00  0.00    +0.000 A 
ATOM     13  N   UNL     1       0.799  10.489  18.824  0.00  0.00    +0.000 NA
ATOM     14  C   UNL     1       0.360  10.459  20.117  0.00  0.00    +0.000 A 
ATOM     15  C   UNL     1      -0.352  11.439  20.819  0.00  0.00    +0.000 A 
ATOM     16  C   UNL     1      -0.641  11.221  22.174  0.00  0.00    +0.000 A 
ATOM     17  C   UNL     1      -0.220  10.050  22.813  0.00  0.00    +0.000 A 
ATOM     18  C   UNL     1       0.480   9.059  22.119  0.00  0.00    +0.000 A 
ATOM     19  C   UNL     1       0.735   9.277  20.758  0.00  0.00    +0.000 A 
BRANCH  16  20
ATOM     20  C   UNL     1      -1.356  12.215  22.913  0.00  0.00    +0.000 C 
ATOM     21  N   UNL     1      -1.945  13.026  23.500  0.00  0.00    +0.000 NA
ENDBRANCH  16  20
ENDBRANCH   7  11
BRANCH   1  26
ATOM     22  C   UNL     1       6.566   4.619  14.135  0.00  0.00    +0.000 C 
ATOM     23  N   UNL     1       6.685   5.305  15.416  0.00  0.00    +0.000 NA
ATOM     24  C   UNL     1       7.524   4.564  16.358  0.00  0.00    +0.000 C 
ATOM     25  C   UNL     1       7.180   5.185  17.704  0.00  0.00    +0.000 C 
ATOM     26  C   UNL     1       5.738   5.690  17.557  0.00  0.00    +0.000 C 
ATOM     27  C   UNL     1       5.386   5.445  16.083  0.00  0.00    +0.000 C 
ENDBRANCH   1  26
TORSDOF 3
ENDMDL
MODEL 3
REMARK VINA RESULT:      -8.2      2.026      4.432
REMARK  Name = 
REMARK  4 active torsions:
REMARK  status: ('A' for Active; 'I' for Inactive)
REMARK    1  A    between atoms: C_1  and  N_2
REMARK    2  A    between atoms: C_5  and  C_6
REMARK    3  A    between atoms: C_12  and  N_13
REMARK    4  A    between atoms: C_18  and  C_19
REMARK                            x       y       z     vdW  Elec       q    Type
REMARK                         _______ _______ _______ _____ _____    ______ ____
ROOT
ATOM      1  C   UNL     1       2.918   6.314  19.004  0.00  0.00    +0.000 A 
ATOM      2  C   UNL     1       3.503   6.422  17.756  0.00  0.00    +0.000 A 
ATOM      3  N   UNL     1       3.207   7.652  17.237  0.00  0.00    +0.000 N 
ATOM      4  C   UNL     1       2.443   8.370  18.125  0.00  0.00    +0.000 A 
ATOM      5  C   UNL     1       1.904   9.655  18.015  0.00  0.00    +0.000 A 
ATOM      6  C   UNL     1       1.169  10.145  19.099  0.00  0.00    +0.000 A 
ATOM      7  C   UNL     1       0.994   9.374  20.253  0.00  0.00    +0.000 A 
ATOM      8  C   UNL     1       1.541   8.085  20.338  0.00  0.00    +0.000 A 
ATOM      9  C   UNL     1       2.270   7.566  19.252  0.00  0.00    +0.000 A 
ATOM     10  H   UNL     1       3.506   7.989  16.333  0.00  0.00    +0.000 HD
ENDROOT
BRANCH   7  11
ATOM     11  N   UNL     1       0.284   9.884  21.368  0.00  0.00    +0.000 N 
ATOM     12  C   UNL     1       0.442   9.462  22.672  0.00  0.00    +0.000 A 
ATOM     13  N   UNL     1      -0.295  10.143  23.518  0.00  0.00    +0.000 NA
ATOM     14  C   UNL     1      -1.005  11.015  22.743  0.00  0.00    +0.000 A 
ATOM     15  C   UNL     1      -1.973  11.946  23.140  0.00  0.00    +0.000 A 
ATOM     16  C   UNL     1      -2.630  12.697  22.155  0.00  0.00    +0.000 A 
ATOM     17  C   UNL     1      -2.330  12.514  20.801  0.00  0.00    +0.000 A 
ATOM     18  C   UNL     1      -1.358  11.597  20.394  0.00  0.00    +0.000 A 
ATOM     19  C   UNL     1      -0.686  10.876  21.391  0.00  0.00    +0.000 A 
BRANCH  16  20
ATOM     20  C   UNL     1      -3.632  13.644  22.538  0.00  0.00    +0.000 C 
ATOM     21  N   UNL     1      -4.438  14.412  22.864  0.00  0.00    +0.000 NA
ENDBRANCH  16  20
ENDBRANCH   7  11
BRANCH   1  26
ATOM     22  C   UNL     1       3.662   1.623  19.032  0.00  0.00    +0.000 C 
ATOM     23  N   UNL     1       3.193   2.765  19.808  0.00  0.00    +0.000 NA
ATOM     24  C   UNL     1       1.771   3.030  19.590  0.00  0.00    +0.000 C 
ATOM     25  C   UNL     1       1.590   4.449  20.111  0.00  0.00    +0.000 C 
ATOM     26  C   UNL     1       2.956   5.123  19.923  0.00  0.00    +0.000 C 
ATOM     27  C   UNL     1       3.880   4.004  19.424  0.00  0.00    +0.000 C 
ENDBRANCH   1  26
TORSDOF 3
ENDMDL
MODEL 4
REMARK VINA RESULT:      -8.0      1.777      2.516
REMARK  Name = 
REMARK  4 active torsions:
REMARK  status: ('A' for Active; 'I' for Inactive)
REMARK    1  A    between atoms: C_1  and  N_2
REMARK    2  A    between atoms: C_5  and  C_6
REMARK    3  A    between atoms: C_12  and  N_13
REMARK    4  A    between atoms: C_18  and  C_19
REMARK                            x       y       z     vdW  Elec       q    Type
REMARK                         _______ _______ _______ _____ _____    ______ ____
ROOT
ATOM      1  C   UNL     1       3.905   5.181  17.633  0.00  0.00    +0.000 A 
ATOM      2  C   UNL     1       3.752   3.809  17.559  0.00  0.00    +0.000 A 
ATOM      3  N   UNL     1       2.854   3.415  18.512  0.00  0.00    +0.000 N 
ATOM      4  C   UNL     1       2.399   4.505  19.215  0.00  0.00    +0.000 A 
ATOM      5  C   UNL     1       1.493   4.577  20.277  0.00  0.00    +0.000 A 
ATOM      6  C   UNL     1       1.199   5.842  20.794  0.00  0.00    +0.000 A 
ATOM      7  C   UNL     1       1.787   6.991  20.254  0.00  0.00    +0.000 A 
ATOM      8  C   UNL     1       2.697   6.893  19.190  0.00  0.00    +0.000 A 
ATOM      9  C   UNL     1       3.019   5.627  18.666  0.00  0.00    +0.000 A 
ATOM     10  H   UNL     1       2.564   2.462  18.680  0.00  0.00    +0.000 HD
ENDROOT
BRANCH   7  11
ATOM     11  N   UNL     1       1.460   8.278  20.749  0.00  0.00    +0.000 N 
ATOM     12  C   UNL     1       1.426   8.633  22.081  0.00  0.00    +0.000 A 
ATOM     13  N   UNL     1       1.153   9.904  22.261  0.00  0.00    +0.000 NA
ATOM     14  C   UNL     1       0.948  10.400  21.005  0.00  0.00    +0.000 A 
ATOM     15  C   UNL     1       0.585  11.699  20.628  0.00  0.00    +0.000 A 
ATOM     16  C   UNL     1       0.361  11.969  19.270  0.00  0.00    +0.000 A 
ATOM     17  C   UNL     1       0.489  10.959  18.312  0.00  0.00    +0.000 A 
ATOM     18  C   UNL     1       0.862   9.662  18.674  0.00  0.00    +0.000 A 
ATOM     19  C   UNL     1       1.114   9.414  20.031  0.00  0.00    +0.000 A 
BRANCH  16  20
ATOM     20  C   UNL     1      -0.024  13.287  18.866  0.00  0.00    +0.000 C 
ATOM     21  N   UNL     1      -0.348  14.349  18.529  0.00  0.00    +0.000 NA
ENDBRANCH  16  20
ENDBRANCH   7  11
BRANCH   1  26
ATOM     22  C   UNL     1       7.242   4.927  14.264  0.00  0.00    +0.000 C 
ATOM     23  N   UNL     1       6.576   5.797  15.225  0.00  0.00    +0.000 NA
ATOM     24  C   UNL     1       7.211   5.746  16.542  0.00  0.00    +0.000 C 
ATOM     25  C   UNL     1       6.160   6.344  17.466  0.00  0.00    +0.000 C 
ATOM     26  C   UNL     1       4.814   6.039  16.795  0.00  0.00    +0.000 C 
ATOM     27  C   UNL     1       5.183   5.395  15.452  0.00  0.00    +0.000 C 
ENDBRANCH   1  26
TORSDOF 3
ENDMDL
MODEL 5
REMARK VINA RESULT:      -8.0      1.722      2.296
REMARK  Name = 
REMARK  4 active torsions:
REMARK  status: ('A' for Active; 'I' for Inactive)
REMARK    1  A    between atoms: C_1  and  N_2
REMARK    2  A    between atoms: C_5  and  C_6
REMARK    3  A    between atoms: C_12  and  N_13
REMARK    4  A    between atoms: C_18  and  C_19
REMARK                            x       y       z     vdW  Elec       q    Type
REMARK                         _______ _______ _______ _____ _____    ______ ____
ROOT
ATOM      1  C   UNL     1       4.883   4.583  16.676  0.00  0.00    +0.000 A 
ATOM      2  C   UNL     1       5.105   3.293  17.123  0.00  0.00    +0.000 A 
ATOM      3  N   UNL     1       4.468   3.128  18.322  0.00  0.00    +0.000 N 
ATOM      4  C   UNL     1       3.815   4.285  18.676  0.00  0.00    +0.000 A 
ATOM      5  C   UNL     1       3.054   4.578  19.811  0.00  0.00    +0.000 A 
ATOM      6  C   UNL     1       2.486   5.852  19.900  0.00  0.00    +0.000 A 
ATOM      7  C   UNL     1       2.669   6.791  18.879  0.00  0.00    +0.000 A 
ATOM      8  C   UNL     1       3.440   6.474  17.750  0.00  0.00    +0.000 A 
ATOM      9  C   UNL     1       4.035   5.203  17.649  0.00  0.00    +0.000 A 
ATOM     10  H   UNL     1       4.472   2.281  18.871  0.00  0.00    +0.000 HD
ENDROOT
BRANCH   7  11
ATOM     11  N   UNL     1       2.060   8.068  18.947  0.00  0.00    +0.000 N 
ATOM     12  C   UNL     1       2.035   8.994  17.924  0.00  0.00    +0.000 A 
ATOM     13  N   UNL     1       1.353  10.072  18.232  0.00  0.00    +0.000 NA
ATOM     14  C   UNL     1       0.953   9.878  19.523  0.00  0.00    +0.000 A 
ATOM     15  C   UNL     1       0.228  10.744  20.351  0.00  0.00    +0.000 A 
ATOM     16  C   UNL     1      -0.014  10.362  21.679  0.00  0.00    +0.000 A 
ATOM     17  C   UNL     1       0.466   9.143  22.169  0.00  0.00    +0.000 A 
ATOM     18  C   UNL     1       1.180   8.265  21.348  0.00  0.00    +0.000 A 
ATOM     19  C   UNL     1       1.387   8.646  20.015  0.00  0.00    +0.000 A 
BRANCH  16  20
ATOM     20  C   UNL     1      -0.741  11.238  22.545  0.00  0.00    +0.000 C 
ATOM     21  N   UNL     1      -1.331  11.937  23.260  0.00  0.00    +0.000 NA
ENDBRANCH  16  20
ENDBRANCH   7  11
BRANCH   1  26
ATOM     22  C   UNL     1       6.547   3.499  12.362  0.00  0.00    +0.000 C 
ATOM     23  N   UNL     1       6.375   4.560  13.347  0.00  0.00    +0.000 NA
ATOM     24  C   UNL     1       7.486   4.611  14.297  0.00  0.00    +0.000 C 
ATOM     25  C   UNL     1       6.934   5.444  15.445  0.00  0.00    +0.000 C 
ATOM     26  C   UNL     1       5.417   5.210  15.418  0.00  0.00    +0.000 C 
ATOM     27  C   UNL     1       5.175   4.356  14.166  0.00  0.00    +0.000 C 
ENDBRANCH   1  26
TORSDOF 3
ENDMDL
MODEL 6
REMARK VINA RESULT:      -7.6      1.754      4.010
REMARK  Name = 
REMARK  4 active torsions:
REMARK  status: ('A' for Active; 'I' for Inactive)
REMARK    1  A    between atoms: C_1  and  N_2
REMARK    2  A    between atoms: C_5  and  C_6
REMARK    3  A    between atoms: C_12  and  N_13
REMARK    4  A    between atoms: C_18  and  C_19
REMARK                            x       y       z     vdW  Elec       q    Type
REMARK                         _______ _______ _______ _____ _____    ______ ____
ROOT
ATOM      1  C   UNL     1       4.401   3.822  17.170  0.00  0.00    +0.000 A 
ATOM      2  C   UNL     1       5.356   3.876  16.171  0.00  0.00    +0.000 A 
ATOM      3  N   UNL     1       5.554   5.184  15.824  0.00  0.00    +0.000 N 
ATOM      4  C   UNL     1       4.754   6.003  16.584  0.00  0.00    +0.000 A 
ATOM      5  C   UNL     1       4.615   7.394  16.567  0.00  0.00    +0.000 A 
ATOM      6  C   UNL     1       3.725   7.968  17.479  0.00  0.00    +0.000 A 
ATOM      7  C   UNL     1       3.010   7.173  18.380  0.00  0.00    +0.000 A 
ATOM      8  C   UNL     1       3.164   5.778  18.376  0.00  0.00    +0.000 A 
ATOM      9  C   UNL     1       4.043   5.178  17.455  0.00  0.00    +0.000 A 
ATOM     10  H   UNL     1       6.195   5.507  15.113  0.00  0.00    +0.000 HD
ENDROOT
BRANCH   7  11
ATOM     11  N   UNL     1       2.138   7.755  19.333  0.00  0.00    +0.000 N 
ATOM     12  C   UNL     1       1.976   7.323  20.633  0.00  0.00    +0.000 A 
ATOM     13  N   UNL     1       1.151   8.078  21.319  0.00  0.00    +0.000 NA
ATOM     14  C   UNL     1       0.709   9.015  20.429  0.00  0.00    +0.000 A 
ATOM     15  C   UNL     1      -0.222  10.041  20.633  0.00  0.00    +0.000 A 
ATOM     16  C   UNL     1      -0.580  10.852  19.546  0.00  0.00    +0.000 A 
ATOM     17  C   UNL     1      -0.024  10.635  18.282  0.00  0.00    +0.000 A 
ATOM     18  C   UNL     1       0.916   9.623  18.069  0.00  0.00    +0.000 A 
ATOM     19  C   UNL     1       1.288   8.841  19.171  0.00  0.00    +0.000 A 
BRANCH  16  20
ATOM     20  C   UNL     1      -1.540  11.897  19.730  0.00  0.00    +0.000 C 
ATOM     21  N   UNL     1      -2.310  12.754  19.869  0.00  0.00    +0.000 NA
ENDBRANCH  16  20
ENDBRANCH   7  11
BRANCH   1  26
ATOM     22  C   UNL     1       0.524   2.140  19.338  0.00  0.00    +0.000 C 
ATOM     23  N   UNL     1       1.928   1.891  19.034  0.00  0.00    +0.000 NA
ATOM     24  C   UNL     1       2.819   2.490  20.027  0.00  0.00    +0.000 C 
ATOM     25  C   UNL     1       4.172   2.501  19.331  0.00  0.00    +0.000 C 
ATOM     26  C   UNL     1       3.852   2.587  17.832  0.00  0.00    +0.000 C 
ATOM     27  C   UNL     1       2.322   2.488  17.752  0.00  0.00    +0.000 C 
ENDBRANCH   1  26
TORSDOF 3
ENDMDL
MODEL 7
REMARK VINA RESULT:      -7.6      2.550      8.226
REMARK  Name = 
REMARK  4 active torsions:
REMARK  status: ('A' for Active; 'I' for Inactive)
REMARK    1  A    between atoms: C_1  and  N_2
REMARK    2  A    between atoms: C_5  and  C_6
REMARK    3  A    between atoms: C_12  and  N_13
REMARK    4  A    between atoms: C_18  and  C_19
REMARK                            x       y       z     vdW  Elec       q    Type
REMARK                         _______ _______ _______ _____ _____    ______ ____
ROOT
ATOM      1  C   UNL     1      -1.172  11.184  19.876  0.00  0.00    +0.000 A 
ATOM      2  C   UNL     1      -1.505  11.777  21.080  0.00  0.00    +0.000 A 
ATOM      3  N   UNL     1      -0.778  11.187  22.077  0.00  0.00    +0.000 N 
ATOM      4  C   UNL     1       0.043  10.216  21.554  0.00  0.00    +0.000 A 
ATOM      5  C   UNL     1       0.942   9.358  22.192  0.00  0.00    +0.000 A 
ATOM      6  C   UNL     1       1.668   8.469  21.395  0.00  0.00    +0.000 A 
ATOM      7  C   UNL     1       1.501   8.452  20.006  0.00  0.00    +0.000 A 
ATOM      8  C   UNL     1       0.589   9.321  19.388  0.00  0.00    +0.000 A 
ATOM      9  C   UNL     1      -0.163  10.213  20.174  0.00  0.00    +0.000 A 
ATOM     10  H   UNL     1      -0.831  11.427  23.056  0.00  0.00    +0.000 HD
ENDROOT
BRANCH   7  11
ATOM     11  N   UNL     1       2.264   7.580  19.191  0.00  0.00    +0.000 N 
ATOM     12  C   UNL     1       3.019   7.965  18.102  0.00  0.00    +0.000 A 
ATOM     13  N   UNL     1       3.676   6.965  17.562  0.00  0.00    +0.000 NA
ATOM     14  C   UNL     1       3.305   5.868  18.286  0.00  0.00    +0.000 A 
ATOM     15  C   UNL     1       3.683   4.532  18.101  0.00  0.00    +0.000 A 
ATOM     16  C   UNL     1       3.119   3.552  18.930  0.00  0.00    +0.000 A 
ATOM     17  C   UNL     1       2.192   3.900  19.917  0.00  0.00    +0.000 A 
ATOM     18  C   UNL     1       1.816   5.231  20.119  0.00  0.00    +0.000 A 
ATOM     19  C   UNL     1       2.411   6.204  19.304  0.00  0.00    +0.000 A 
BRANCH  16  20
ATOM     20  C   UNL     1       3.482   2.180  18.749  0.00  0.00    +0.000 C 
ATOM     21  N   UNL     1       3.771   1.067  18.588  0.00  0.00    +0.000 NA
ENDBRANCH  16  20
ENDBRANCH   7  11
BRANCH   1  26
ATOM     22  C   UNL     1      -5.280  11.363  17.500  0.00  0.00    +0.000 C 
ATOM     23  N   UNL     1      -3.828  11.408  17.383  0.00  0.00    +0.000 NA
ATOM     24  C   UNL     1      -3.246  10.073  17.249  0.00  0.00    +0.000 C 
ATOM     25  C   UNL     1      -1.776  10.291  17.573  0.00  0.00    +0.000 C 
ATOM     26  C   UNL     1      -1.748  11.497  18.522  0.00  0.00    +0.000 C 
ATOM     27  C   UNL     1      -3.203  11.983  18.581  0.00  0.00    +0.000 C 
ENDBRANCH   1  26
TORSDOF 3
ENDMDL
MODEL 8
REMARK VINA RESULT:      -7.6      1.789      2.454
REMARK  Name = 
REMARK  4 active torsions:
REMARK  status: ('A' for Active; 'I' for Inactive)
REMARK    1  A    between atoms: C_1  and  N_2
REMARK    2  A    between atoms: C_5  and  C_6
REMARK    3  A    between atoms: C_12  and  N_13
REMARK    4  A    between atoms: C_18  and  C_19
REMARK                            x       y       z     vdW  Elec       q    Type
REMARK                         _______ _______ _______ _____ _____    ______ ____
ROOT
ATOM      1  C   UNL     1       4.077   3.495  17.732  0.00  0.00    +0.000 A 
ATOM      2  C   UNL     1       3.803   2.141  17.680  0.00  0.00    +0.000 A 
ATOM      3  N   UNL     1       2.740   1.876  18.499  0.00  0.00    +0.000 N 
ATOM      4  C   UNL     1       2.294   3.036  19.087  0.00  0.00    +0.000 A 
ATOM      5  C   UNL     1       1.252   3.241  19.995  0.00  0.00    +0.000 A 
ATOM      6  C   UNL     1       1.010   4.551  20.419  0.00  0.00    +0.000 A 
ATOM      7  C   UNL     1       1.781   5.614  19.938  0.00  0.00    +0.000 A 
ATOM      8  C   UNL     1       2.824   5.382  19.029  0.00  0.00    +0.000 A 
ATOM      9  C   UNL     1       3.096   4.069  18.603  0.00  0.00    +0.000 A 
ATOM     10  H   UNL     1       2.337   0.963  18.652  0.00  0.00    +0.000 HD
ENDROOT
BRANCH   7  11
ATOM     11  N   UNL     1       1.511   6.947  20.334  0.00  0.00    +0.000 N 
ATOM     12  C   UNL     1       1.010   7.327  21.562  0.00  0.00    +0.000 A 
ATOM     13  N   UNL     1       0.913   8.630  21.689  0.00  0.00    +0.000 NA
ATOM     14  C   UNL     1       1.315   9.131  20.484  0.00  0.00    +0.000 A 
ATOM     15  C   UNL     1       1.363  10.468  20.068  0.00  0.00    +0.000 A 
ATOM     16  C   UNL     1       1.748  10.749  18.749  0.00  0.00    +0.000 A 
ATOM     17  C   UNL     1       2.071   9.716  17.865  0.00  0.00    +0.000 A 
ATOM     18  C   UNL     1       2.039   8.380  18.272  0.00  0.00    +0.000 A 
ATOM     19  C   UNL     1       1.682   8.114  19.602  0.00  0.00    +0.000 A 
BRANCH  16  20
ATOM     20  C   UNL     1       1.791  12.107  18.300  0.00  0.00    +0.000 C 
ATOM     21  N   UNL     1       1.834  13.204  17.923  0.00  0.00    +0.000 NA
ENDBRANCH  16  20
ENDBRANCH   7  11
BRANCH   1  26
ATOM     22  C   UNL     1       7.688   6.491  18.467  0.00  0.00    +0.000 C 
ATOM     23  N   UNL     1       6.861   5.839  17.460  0.00  0.00    +0.000 NA
ATOM     24  C   UNL     1       5.648   6.602  17.167  0.00  0.00    +0.000 C 
ATOM     25  C   UNL     1       4.753   5.592  16.463  0.00  0.00    +0.000 C 
ATOM     26  C   UNL     1       5.180   4.225  17.014  0.00  0.00    +0.000 C 
ATOM     27  C   UNL     1       6.390   4.523  17.909  0.00  0.00    +0.000 C 
ENDBRANCH   1  26
TORSDOF 3
ENDMDL
MODEL 9
REMARK VINA RESULT:      -7.4      2.217      8.131
REMARK  Name = 
REMARK  4 active torsions:
REMARK  status: ('A' for Active; 'I' for Inactive)
REMARK    1  A    between atoms: C_1  and  N_2
REMARK    2  A    between atoms: C_5  and  C_6
REMARK    3  A    between atoms: C_12  and  N_13
REMARK    4  A    between atoms: C_18  and  C_19
REMARK                            x       y       z     vdW  Elec       q    Type
REMARK                         _______ _______ _______ _____ _____    ______ ____
ROOT
ATOM      1  C   UNL     1       1.735   8.036  19.782  0.00  0.00    +0.000 A 
ATOM      2  C   UNL     1       1.028   7.490  20.838  0.00  0.00    +0.000 A 
ATOM      3  N   UNL     1       1.493   6.225  21.070  0.00  0.00    +0.000 N 
ATOM      4  C   UNL     1       2.506   5.923  20.192  0.00  0.00    +0.000 A 
ATOM      5  C   UNL     1       3.259   4.753  20.053  0.00  0.00    +0.000 A 
ATOM      6  C   UNL     1       4.252   4.733  19.070  0.00  0.00    +0.000 A 
ATOM      7  C   UNL     1       4.485   5.853  18.264  0.00  0.00    +0.000 A 
ATOM      8  C   UNL     1       3.714   7.015  18.420  0.00  0.00    +0.000 A 
ATOM      9  C   UNL     1       2.698   7.049  19.393  0.00  0.00    +0.000 A 
ATOM     10  H   UNL     1       1.146   5.599  21.783  0.00  0.00    +0.000 HD
ENDROOT
BRANCH   7  11
ATOM     11  N   UNL     1       5.517   5.850  17.295  0.00  0.00    +0.000 N 
ATOM     12  C   UNL     1       6.680   6.589  17.367  0.00  0.00    +0.000 A 
ATOM     13  N   UNL     1       7.494   6.353  16.365  0.00  0.00    +0.000 NA
ATOM     14  C   UNL     1       6.827   5.464  15.572  0.00  0.00    +0.000 A 
ATOM     15  C   UNL     1       7.230   4.913  14.349  0.00  0.00    +0.000 A 
ATOM     16  C   UNL     1       6.346   4.065  13.668  0.00  0.00    +0.000 A 
ATOM     17  C   UNL     1       5.083   3.779  14.196  0.00  0.00    +0.000 A 
ATOM     18  C   UNL     1       4.675   4.312  15.422  0.00  0.00    +0.000 A 
ATOM     19  C   UNL     1       5.581   5.134  16.106  0.00  0.00    +0.000 A 
BRANCH  16  20
ATOM     20  C   UNL     1       6.733   3.502  12.411  0.00  0.00    +0.000 C 
ATOM     21  N   UNL     1       7.055   3.035  11.398  0.00  0.00    +0.000 NA
ENDBRANCH  16  20
ENDBRANCH   7  11
BRANCH   1  26
ATOM     22  C   UNL     1      -1.138  11.816  19.879  0.00  0.00    +0.000 C 
ATOM     23  N   UNL     1      -0.037  11.168  19.177  0.00  0.00    +0.000 NA
ATOM     24  C   UNL     1      -0.511  10.222  18.167  0.00  0.00    +0.000 C 
ATOM     25  C   UNL     1       0.715   9.370  17.874  0.00  0.00    +0.000 C 
ATOM     26  C   UNL     1       1.540   9.395  19.167  0.00  0.00    +0.000 C 
ATOM     27  C   UNL     1       0.798  10.374  20.087  0.00  0.00    +0.000 C 
ENDBRANCH   1  26
TORSDOF 3
ENDMDL
