MODEL 1
REMARK VINA RESULT:      -6.9      0.000      0.000
REMARK  Name = 
REMARK  10 active torsions:
REMARK  status: ('A' for Active; 'I' for Inactive)
REMARK    1  A    between atoms: C_1  and  O_2
REMARK    2  A    between atoms: O_2  and  C_3
REMARK    3  A    between atoms: C_6  and  C_7
REMARK    4  A    between atoms: C_9  and  C_10
REMARK    5  A    between atoms: C_12  and  O_13
REMARK    6  A    between atoms: O_13  and  C_14
REMARK    7  A    between atoms: C_15  and  O_16
REMARK    8  A    between atoms: O_16  and  C_17
REMARK    9  A    between atoms: C_18  and  O_19
REMARK   10  A    between atoms: O_19  and  C_20
REMARK                            x       y       z     vdW  Elec       q    Type
REMARK                         _______ _______ _______ _____ _____    ______ ____
ROOT
ATOM      1  C   UNL     1       7.591   5.376  16.234  0.00  0.00    +0.000 C 
ATOM      2  N   UNL     1       7.399   6.851  16.544  0.00  0.00    +0.000 NA
ATOM      3  C   UNL     1       6.728   5.981  17.164  0.00  0.00    +0.000 C 
ENDROOT
BRANCH   1   7
ATOM      4  C   UNL     1       5.882   3.569  12.661  0.00  0.00    +0.000 A 
ATOM      5  C   UNL     1       5.290   3.354  13.908  0.00  0.00    +0.000 A 
ATOM      6  C   UNL     1       5.806   3.960  15.063  0.00  0.00    +0.000 A 
ATOM      7  C   UNL     1       6.931   4.800  15.008  0.00  0.00    +0.000 A 
ATOM      8  C   UNL     1       7.503   5.014  13.743  0.00  0.00    +0.000 A 
ATOM      9  C   UNL     1       6.996   4.404  12.597  0.00  0.00    +0.000 A 
ATOM     10  F   UNL     1       7.637   4.644  11.443  0.00  0.00    +0.000 F 
BRANCH   4  12
ATOM     11  C   UNL     1       3.957   3.301  11.291  0.00  0.00    +0.000 C 
ATOM     12  O   UNL     1       5.284   2.907  11.624  0.00  0.00    +0.000 OA
ENDBRANCH   4  12
ENDBRANCH   1   7
BRANCH   3  13
ATOM     13  C   UNL     1       5.561   5.767  17.919  0.00  0.00    +0.000 A 
ATOM     14  C   UNL     1       4.471   6.591  17.685  0.00  0.00    +0.000 A 
ATOM     15  C   UNL     1       3.230   6.253  18.223  0.00  0.00    +0.000 A 
ATOM     16  C   UNL     1       3.105   5.106  19.045  0.00  0.00    +0.000 A 
ATOM     17  C   UNL     1       4.242   4.315  19.333  0.00  0.00    +0.000 A 
ATOM     18  C   UNL     1       5.467   4.651  18.751  0.00  0.00    +0.000 A 
BRANCH  15  19
ATOM     19  O   UNL     1       2.090   6.982  17.975  0.00  0.00    +0.000 OA
ATOM     20  C   UNL     1       2.259   8.398  17.904  0.00  0.00    +0.000 C 
ENDBRANCH  15  19
BRANCH  16  21
ATOM     21  O   UNL     1       1.842   4.875  19.545  0.00  0.00    +0.000 OA
ATOM     22  C   UNL     1       1.128   3.773  18.991  0.00  0.00    +0.000 C 
ENDBRANCH  16  21
BRANCH  17  23
ATOM     23  O   UNL     1       4.088   3.244  20.175  0.00  0.00    +0.000 OA
ATOM     24  C   UNL     1       4.314   1.938  19.659  0.00  0.00    +0.000 C 
ENDBRANCH  17  23
ENDBRANCH   3  13
TORSDOF 6
ENDMDL
MODEL 2
REMARK VINA RESULT:      -6.8      4.379      7.850
REMARK  Name = 
REMARK  10 active torsions:
REMARK  status: ('A' for Active; 'I' for Inactive)
REMARK    1  A    between atoms: C_1  and  O_2
REMARK    2  A    between atoms: O_2  and  C_3
REMARK    3  A    between atoms: C_6  and  C_7
REMARK    4  A    between atoms: C_9  and  C_10
REMARK    5  A    between atoms: C_12  and  O_13
REMARK    6  A    between atoms: O_13  and  C_14
REMARK    7  A    between atoms: C_15  and  O_16
REMARK    8  A    between atoms: O_16  and  C_17
REMARK    9  A    between atoms: C_18  and  O_19
REMARK   10  A    between atoms: O_19  and  C_20
REMARK                            x       y       z     vdW  Elec       q    Type
REMARK                         _______ _______ _______ _____ _____    ______ ____
ROOT
ATOM      1  C   UNL     1       1.767   8.326  17.875  0.00  0.00    +0.000 C 
ATOM      2  N   UNL     1       3.169   8.490  17.313  0.00  0.00    +0.000 NA
ATOM      3  C   UNL     1       2.812   7.388  17.814  0.00  0.00    +0.000 C 
ENDROOT
BRANCH   1   7
ATOM      4  C   UNL     1       0.654   9.940  21.762  0.00  0.00    +0.000 A 
ATOM      5  C   UNL     1       1.135   8.632  21.656  0.00  0.00    +0.000 A 
ATOM      6  C   UNL     1       1.534   8.112  20.416  0.00  0.00    +0.000 A 
ATOM      7  C   UNL     1       1.464   8.880  19.243  0.00  0.00    +0.000 A 
ATOM      8  C   UNL     1       0.990  10.196  19.372  0.00  0.00    +0.000 A 
ATOM      9  C   UNL     1       0.585  10.711  20.604  0.00  0.00    +0.000 A 
ATOM     10  F   UNL     1       0.113  11.966  20.614  0.00  0.00    +0.000 F 
BRANCH   4  12
ATOM     11  C   UNL     1      -1.096  10.544  23.255  0.00  0.00    +0.000 C 
ATOM     12  O   UNL     1       0.291  10.314  23.027  0.00  0.00    +0.000 OA
ENDBRANCH   4  12
ENDBRANCH   1   7
BRANCH   3  13
ATOM     13  C   UNL     1       3.280   6.189  18.380  0.00  0.00    +0.000 A 
ATOM     14  C   UNL     1       2.345   5.251  18.789  0.00  0.00    +0.000 A 
ATOM     15  C   UNL     1       2.767   3.963  19.116  0.00  0.00    +0.000 A 
ATOM     16  C   UNL     1       4.146   3.640  19.079  0.00  0.00    +0.000 A 
ATOM     17  C   UNL     1       5.095   4.629  18.729  0.00  0.00    +0.000 A 
ATOM     18  C   UNL     1       4.646   5.902  18.368  0.00  0.00    +0.000 A 
BRANCH  15  19
ATOM     19  O   UNL     1       1.890   2.960  19.461  0.00  0.00    +0.000 OA
ATOM     20  C   UNL     1       0.833   2.711  18.534  0.00  0.00    +0.000 C 
ENDBRANCH  15  19
BRANCH  16  21
ATOM     21  O   UNL     1       4.457   2.348  19.442  0.00  0.00    +0.000 OA
ATOM     22  C   UNL     1       4.598   2.093  20.837  0.00  0.00    +0.000 C 
ENDBRANCH  16  21
BRANCH  17  23
ATOM     23  O   UNL     1       6.423   4.290  18.757  0.00  0.00    +0.000 OA
ATOM     24  C   UNL     1       7.223   4.592  17.621  0.00  0.00    +0.000 C 
ENDBRANCH  17  23
ENDBRANCH   3  13
TORSDOF 6
ENDMDL
MODEL 3
REMARK VINA RESULT:      -6.8      5.060      7.893
REMARK  Name = 
REMARK  10 active torsions:
REMARK  status: ('A' for Active; 'I' for Inactive)
REMARK    1  A    between atoms: C_1  and  O_2
REMARK    2  A    between atoms: O_2  and  C_3
REMARK    3  A    between atoms: C_6  and  C_7
REMARK    4  A    between atoms: C_9  and  C_10
REMARK    5  A    between atoms: C_12  and  O_13
REMARK    6  A    between atoms: O_13  and  C_14
REMARK    7  A    between atoms: C_15  and  O_16
REMARK    8  A    between atoms: O_16  and  C_17
REMARK    9  A    between atoms: C_18  and  O_19
REMARK   10  A    between atoms: O_19  and  C_20
REMARK                            x       y       z     vdW  Elec       q    Type
REMARK                         _______ _______ _______ _____ _____    ______ ____
ROOT
ATOM      1  C   UNL     1       2.813   7.996  18.444  0.00  0.00    +0.000 C 
ATOM      2  N   UNL     1       2.212   8.618  17.194  0.00  0.00    +0.000 NA
ATOM      3  C   UNL     1       1.831   8.996  18.337  0.00  0.00    +0.000 C 
ENDROOT
BRANCH   1   7
ATOM      4  C   UNL     1       1.618   3.995  19.675  0.00  0.00    +0.000 A 
ATOM      5  C   UNL     1       1.699   5.024  20.616  0.00  0.00    +0.000 A 
ATOM      6  C   UNL     1       2.045   6.326  20.228  0.00  0.00    +0.000 A 
ATOM      7  C   UNL     1       2.322   6.642  18.888  0.00  0.00    +0.000 A 
ATOM      8  C   UNL     1       2.222   5.596  17.955  0.00  0.00    +0.000 A 
ATOM      9  C   UNL     1       1.887   4.299  18.342  0.00  0.00    +0.000 A 
ATOM     10  F   UNL     1       1.855   3.365  17.380  0.00  0.00    +0.000 F 
BRANCH   4  12
ATOM     11  C   UNL     1       1.476   2.592  21.591  0.00  0.00    +0.000 C 
ATOM     12  O   UNL     1       1.281   2.773  20.192  0.00  0.00    +0.000 OA
ENDBRANCH   4  12
ENDBRANCH   1   7
BRANCH   3  13
ATOM     13  C   UNL     1       0.790   9.628  19.039  0.00  0.00    +0.000 A 
ATOM     14  C   UNL     1       0.902   9.737  20.416  0.00  0.00    +0.000 A 
ATOM     15  C   UNL     1       0.025  10.570  21.110  0.00  0.00    +0.000 A 
ATOM     16  C   UNL     1      -1.003  11.252  20.413  0.00  0.00    +0.000 A 
ATOM     17  C   UNL     1      -1.150  11.073  19.017  0.00  0.00    +0.000 A 
ATOM     18  C   UNL     1      -0.235  10.264  18.337  0.00  0.00    +0.000 A 
BRANCH  15  19
ATOM     19  O   UNL     1       0.121  10.784  22.465  0.00  0.00    +0.000 OA
ATOM     20  C   UNL     1      -0.249   9.685  23.297  0.00  0.00    +0.000 C 
ENDBRANCH  15  19
BRANCH  16  21
ATOM     21  O   UNL     1      -1.828  12.029  21.195  0.00  0.00    +0.000 OA
ATOM     22  C   UNL     1      -1.549  13.427  21.223  0.00  0.00    +0.000 C 
ENDBRANCH  16  21
BRANCH  17  23
ATOM     23  O   UNL     1      -2.189  11.709  18.389  0.00  0.00    +0.000 OA
ATOM     24  C   UNL     1      -2.846  11.039  17.320  0.00  0.00    +0.000 C 
ENDBRANCH  17  23
ENDBRANCH   3  13
TORSDOF 6
ENDMDL
MODEL 4
REMARK VINA RESULT:      -6.7      0.743      2.717
REMARK  Name = 
REMARK  10 active torsions:
REMARK  status: ('A' for Active; 'I' for Inactive)
REMARK    1  A    between atoms: C_1  and  O_2
REMARK    2  A    between atoms: O_2  and  C_3
REMARK    3  A    between atoms: C_6  and  C_7
REMARK    4  A    between atoms: C_9  and  C_10
REMARK    5  A    between atoms: C_12  and  O_13
REMARK    6  A    between atoms: O_13  and  C_14
REMARK    7  A    between atoms: C_15  and  O_16
REMARK    8  A    between atoms: O_16  and  C_17
REMARK    9  A    between atoms: C_18  and  O_19
REMARK   10  A    between atoms: O_19  and  C_20
REMARK                            x       y       z     vdW  Elec       q    Type
REMARK                         _______ _______ _______ _____ _____    ______ ____
ROOT
ATOM      1  C   UNL     1       7.266   5.542  16.269  0.00  0.00    +0.000 C 
ATOM      2  N   UNL     1       6.920   6.988  16.584  0.00  0.00    +0.000 NA
ATOM      3  C   UNL     1       6.325   6.049  17.182  0.00  0.00    +0.000 C 
ENDROOT
BRANCH   1   7
ATOM      4  C   UNL     1       5.813   3.578  12.666  0.00  0.00    +0.000 A 
ATOM      5  C   UNL     1       5.103   3.462  13.864  0.00  0.00    +0.000 A 
ATOM      6  C   UNL     1       5.538   4.120  15.023  0.00  0.00    +0.000 A 
ATOM      7  C   UNL     1       6.696   4.915  15.023  0.00  0.00    +0.000 A 
ATOM      8  C   UNL     1       7.388   5.030  13.806  0.00  0.00    +0.000 A 
ATOM      9  C   UNL     1       6.960   4.368  12.655  0.00  0.00    +0.000 A 
ATOM     10  F   UNL     1       7.711   4.513  11.554  0.00  0.00    +0.000 F 
BRANCH   4  12
ATOM     11  C   UNL     1       5.849   1.596  11.352  0.00  0.00    +0.000 C 
ATOM     12  O   UNL     1       5.283   2.875  11.619  0.00  0.00    +0.000 OA
ENDBRANCH   4  12
ENDBRANCH   1   7
BRANCH   3  13
ATOM     13  C   UNL     1       5.169   5.712  17.907  0.00  0.00    +0.000 A 
ATOM     14  C   UNL     1       5.123   4.473  18.526  0.00  0.00    +0.000 A 
ATOM     15  C   UNL     1       4.115   4.207  19.451  0.00  0.00    +0.000 A 
ATOM     16  C   UNL     1       3.118   5.181  19.710  0.00  0.00    +0.000 A 
ATOM     17  C   UNL     1       3.137   6.414  19.017  0.00  0.00    +0.000 A 
ATOM     18  C   UNL     1       4.180   6.673  18.122  0.00  0.00    +0.000 A 
BRANCH  15  19
ATOM     19  O   UNL     1       4.047   3.029  20.158  0.00  0.00    +0.000 OA
ATOM     20  C   UNL     1       3.928   1.840  19.376  0.00  0.00    +0.000 C 
ENDBRANCH  15  19
BRANCH  16  21
ATOM     21  O   UNL     1       2.156   4.809  20.623  0.00  0.00    +0.000 OA
ATOM     22  C   UNL     1       1.008   4.142  20.105  0.00  0.00    +0.000 C 
ENDBRANCH  16  21
BRANCH  17  23
ATOM     23  O   UNL     1       2.126   7.307  19.257  0.00  0.00    +0.000 OA
ATOM     24  C   UNL     1       2.019   8.451  18.419  0.00  0.00    +0.000 C 
ENDBRANCH  17  23
ENDBRANCH   3  13
TORSDOF 6
ENDMDL
MODEL 5
REMARK VINA RESULT:      -6.7      4.697      7.850
REMARK  Name = 
REMARK  10 active torsions:
REMARK  status: ('A' for Active; 'I' for Inactive)
REMARK    1  A    between atoms: C_1  and  O_2
REMARK    2  A    between atoms: O_2  and  C_3
REMARK    3  A    between atoms: C_6  and  C_7
REMARK    4  A    between atoms: C_9  and  C_10
REMARK    5  A    between atoms: C_12  and  O_13
REMARK    6  A    between atoms: O_13  and  C_14
REMARK    7  A    between atoms: C_15  and  O_16
REMARK    8  A    between atoms: O_16  and  C_17
REMARK    9  A    between atoms: C_18  and  O_19
REMARK   10  A    between atoms: O_19  and  C_20
REMARK                            x       y       z     vdW  Elec       q    Type
REMARK                         _______ _______ _______ _____ _____    ______ ____
ROOT
ATOM      1  C   UNL     1       1.746   8.528  17.776  0.00  0.00    +0.000 C 
ATOM      2  N   UNL     1       3.171   8.628  17.257  0.00  0.00    +0.000 NA
ATOM      3  C   UNL     1       2.722   7.522  17.668  0.00  0.00    +0.000 C 
ENDROOT
BRANCH   1   7
ATOM      4  C   UNL     1       0.649   9.911  21.755  0.00  0.00    +0.000 A 
ATOM      5  C   UNL     1       1.157   8.622  21.575  0.00  0.00    +0.000 A 
ATOM      6  C   UNL     1       1.550   8.176  20.305  0.00  0.00    +0.000 A 
ATOM      7  C   UNL     1       1.449   9.004  19.175  0.00  0.00    +0.000 A 
ATOM      8  C   UNL     1       0.950  10.300  19.379  0.00  0.00    +0.000 A 
ATOM      9  C   UNL     1       0.550  10.741  20.640  0.00  0.00    +0.000 A 
ATOM     10  F   UNL     1       0.052  11.984  20.722  0.00  0.00    +0.000 F 
BRANCH   4  12
ATOM     11  C   UNL     1      -1.074  10.527  23.274  0.00  0.00    +0.000 C 
ATOM     12  O   UNL     1       0.294  10.211  23.042  0.00  0.00    +0.000 OA
ENDBRANCH   4  12
ENDBRANCH   1   7
BRANCH   3  13
ATOM     13  C   UNL     1       3.087   6.254  18.153  0.00  0.00    +0.000 A 
ATOM     14  C   UNL     1       4.434   5.992  18.349  0.00  0.00    +0.000 A 
ATOM     15  C   UNL     1       4.812   4.853  19.059  0.00  0.00    +0.000 A 
ATOM     16  C   UNL     1       3.825   3.950  19.525  0.00  0.00    +0.000 A 
ATOM     17  C   UNL     1       2.458   4.195  19.255  0.00  0.00    +0.000 A 
ATOM     18  C   UNL     1       2.100   5.362  18.575  0.00  0.00    +0.000 A 
BRANCH  15  19
ATOM     19  O   UNL     1       6.125   4.565  19.355  0.00  0.00    +0.000 OA
ATOM     20  C   UNL     1       7.104   5.255  18.579  0.00  0.00    +0.000 C 
ENDBRANCH  15  19
BRANCH  16  21
ATOM     21  O   UNL     1       4.307   2.846  20.194  0.00  0.00    +0.000 OA
ATOM     22  C   UNL     1       4.388   1.633  19.450  0.00  0.00    +0.000 C 
ENDBRANCH  16  21
BRANCH  17  23
ATOM     23  O   UNL     1       1.539   3.270  19.677  0.00  0.00    +0.000 OA
ATOM     24  C   UNL     1       0.840   2.513  18.696  0.00  0.00    +0.000 C 
ENDBRANCH  17  23
ENDBRANCH   3  13
TORSDOF 6
ENDMDL
MODEL 6
REMARK VINA RESULT:      -6.5      4.636      8.127
REMARK  Name = 
REMARK  10 active torsions:
REMARK  status: ('A' for Active; 'I' for Inactive)
REMARK    1  A    between atoms: C_1  and  O_2
REMARK    2  A    between atoms: O_2  and  C_3
REMARK    3  A    between atoms: C_6  and  C_7
REMARK    4  A    between atoms: C_9  and  C_10
REMARK    5  A    between atoms: C_12  and  O_13
REMARK    6  A    between atoms: O_13  and  C_14
REMARK    7  A    between atoms: C_15  and  O_16
REMARK    8  A    between atoms: O_16  and  C_17
REMARK    9  A    between atoms: C_18  and  O_19
REMARK   10  A    between atoms: O_19  and  C_20
REMARK                            x       y       z     vdW  Elec       q    Type
REMARK                         _______ _______ _______ _____ _____    ______ ____
ROOT
ATOM      1  C   UNL     1       1.128   9.016  17.830  0.00  0.00    +0.000 C 
ATOM      2  N   UNL     1       2.573   9.268  17.435  0.00  0.00    +0.000 NA
ATOM      3  C   UNL     1       2.196   8.106  17.752  0.00  0.00    +0.000 C 
ENDROOT
BRANCH   1   7
ATOM      4  C   UNL     1       0.059  10.178  21.887  0.00  0.00    +0.000 A 
ATOM      5  C   UNL     1      -0.585  10.765  20.796  0.00  0.00    +0.000 A 
ATOM      6  C   UNL     1      -0.279  10.374  19.484  0.00  0.00    +0.000 A 
ATOM      7  C   UNL     1       0.681   9.383  19.222  0.00  0.00    +0.000 A 
ATOM      8  C   UNL     1       1.308   8.795  20.332  0.00  0.00    +0.000 A 
ATOM      9  C   UNL     1       1.010   9.191  21.636  0.00  0.00    +0.000 A 
ATOM     10  F   UNL     1       1.691   8.593  22.625  0.00  0.00    +0.000 F 
BRANCH   4  12
ATOM     11  C   UNL     1      -1.356  11.645  23.111  0.00  0.00    +0.000 C 
ATOM     12  O   UNL     1      -0.327  10.661  23.107  0.00  0.00    +0.000 OA
ENDBRANCH   4  12
ENDBRANCH   1   7
BRANCH   3  13
ATOM     13  C   UNL     1       2.636   6.849  18.202  0.00  0.00    +0.000 A 
ATOM     14  C   UNL     1       1.869   5.738  17.888  0.00  0.00    +0.000 A 
ATOM     15  C   UNL     1       2.395   4.463  18.094  0.00  0.00    +0.000 A 
ATOM     16  C   UNL     1       3.682   4.314  18.669  0.00  0.00    +0.000 A 
ATOM     17  C   UNL     1       4.423   5.457  19.050  0.00  0.00    +0.000 A 
ATOM     18  C   UNL     1       3.891   6.725  18.798  0.00  0.00    +0.000 A 
BRANCH  15  19
ATOM     19  O   UNL     1       1.722   3.316  17.740  0.00  0.00    +0.000 OA
ATOM     20  C   UNL     1       0.735   2.864  18.666  0.00  0.00    +0.000 C 
ENDBRANCH  15  19
BRANCH  16  21
ATOM     21  O   UNL     1       4.097   3.013  18.850  0.00  0.00    +0.000 OA
ATOM     22  C   UNL     1       4.031   2.501  20.178  0.00  0.00    +0.000 C 
ENDBRANCH  16  21
BRANCH  17  23
ATOM     23  O   UNL     1       5.640   5.268  19.651  0.00  0.00    +0.000 OA
ATOM     24  C   UNL     1       6.814   5.389  18.857  0.00  0.00    +0.000 C 
ENDBRANCH  17  23
ENDBRANCH   3  13
TORSDOF 6
ENDMDL
MODEL 7
REMARK VINA RESULT:      -6.5      4.466      8.302
REMARK  Name = 
REMARK  10 active torsions:
REMARK  status: ('A' for Active; 'I' for Inactive)
REMARK    1  A    between atoms: C_1  and  O_2
REMARK    2  A    between atoms: O_2  and  C_3
REMARK    3  A    between atoms: C_6  and  C_7
REMARK    4  A    between atoms: C_9  and  C_10
REMARK    5  A    between atoms: C_12  and  O_13
REMARK    6  A    between atoms: O_13  and  C_14
REMARK    7  A    between atoms: C_15  and  O_16
REMARK    8  A    between atoms: O_16  and  C_17
REMARK    9  A    between atoms: C_18  and  O_19
REMARK   10  A    between atoms: O_19  and  C_20
REMARK                            x       y       z     vdW  Elec       q    Type
REMARK                         _______ _______ _______ _____ _____    ______ ____
ROOT
ATOM      1  C   UNL     1       1.191   9.194  17.979  0.00  0.00    +0.000 C 
ATOM      2  N   UNL     1       2.539   9.572  17.389  0.00  0.00    +0.000 NA
ATOM      3  C   UNL     1       2.353   8.413  17.850  0.00  0.00    +0.000 C 
ENDROOT
BRANCH   1   7
ATOM      4  C   UNL     1       0.030  10.612  21.928  0.00  0.00    +0.000 A 
ATOM      5  C   UNL     1       0.035   9.243  21.647  0.00  0.00    +0.000 A 
ATOM      6  C   UNL     1       0.444   8.770  20.392  0.00  0.00    +0.000 A 
ATOM      7  C   UNL     1       0.859   9.648  19.378  0.00  0.00    +0.000 A 
ATOM      8  C   UNL     1       0.860  11.018  19.684  0.00  0.00    +0.000 A 
ATOM      9  C   UNL     1       0.445  11.490  20.929  0.00  0.00    +0.000 A 
ATOM     10  F   UNL     1       0.447  12.820  21.109  0.00  0.00    +0.000 F 
BRANCH   4  12
ATOM     11  C   UNL     1      -1.731  11.430  23.301  0.00  0.00    +0.000 C 
ATOM     12  O   UNL     1      -0.402  10.935  23.185  0.00  0.00    +0.000 OA
ENDBRANCH   4  12
ENDBRANCH   1   7
BRANCH   3  13
ATOM     13  C   UNL     1       2.998   7.269  18.352  0.00  0.00    +0.000 A 
ATOM     14  C   UNL     1       2.425   6.616  19.432  0.00  0.00    +0.000 A 
ATOM     15  C   UNL     1       2.889   5.351  19.791  0.00  0.00    +0.000 A 
ATOM     16  C   UNL     1       3.973   4.769  19.087  0.00  0.00    +0.000 A 
ATOM     17  C   UNL     1       4.594   5.479  18.033  0.00  0.00    +0.000 A 
ATOM     18  C   UNL     1       4.087   6.729  17.666  0.00  0.00    +0.000 A 
BRANCH  15  19
ATOM     19  O   UNL     1       2.323   4.613  20.804  0.00  0.00    +0.000 OA
ATOM     20  C   UNL     1       1.018   4.095  20.543  0.00  0.00    +0.000 C 
ENDBRANCH  15  19
BRANCH  16  21
ATOM     21  O   UNL     1       4.367   3.529  19.537  0.00  0.00    +0.000 OA
ATOM     22  C   UNL     1       3.858   2.401  18.829  0.00  0.00    +0.000 C 
ENDBRANCH  16  21
BRANCH  17  23
ATOM     23  O   UNL     1       5.672   4.904  17.413  0.00  0.00    +0.000 OA
ATOM     24  C   UNL     1       6.977   5.269  17.847  0.00  0.00    +0.000 C 
ENDBRANCH  17  23
ENDBRANCH   3  13
TORSDOF 6
ENDMDL
MODEL 8
REMARK VINA RESULT:      -6.5      3.497      7.199
REMARK  Name = 
REMARK  10 active torsions:
REMARK  status: ('A' for Active; 'I' for Inactive)
REMARK    1  A    between atoms: C_1  and  O_2
REMARK    2  A    between atoms: O_2  and  C_3
REMARK    3  A    between atoms: C_6  and  C_7
REMARK    4  A    between atoms: C_9  and  C_10
REMARK    5  A    between atoms: C_12  and  O_13
REMARK    6  A    between atoms: O_13  and  C_14
REMARK    7  A    between atoms: C_15  and  O_16
REMARK    8  A    between atoms: O_16  and  C_17
REMARK    9  A    between atoms: C_18  and  O_19
REMARK   10  A    between atoms: O_19  and  C_20
REMARK                            x       y       z     vdW  Elec       q    Type
REMARK                         _______ _______ _______ _____ _____    ______ ____
ROOT
ATOM      1  C   UNL     1       3.318   4.284  18.635  0.00  0.00    +0.000 C 
ATOM      2  N   UNL     1       2.805   3.404  17.507  0.00  0.00    +0.000 NA
ATOM      3  C   UNL     1       3.915   3.995  17.396  0.00  0.00    +0.000 C 
ENDROOT
BRANCH   1   7
ATOM      4  C   UNL     1       1.881   8.353  19.213  0.00  0.00    +0.000 A 
ATOM      5  C   UNL     1       2.372   7.952  17.968  0.00  0.00    +0.000 A 
ATOM      6  C   UNL     1       2.802   6.634  17.756  0.00  0.00    +0.000 A 
ATOM      7  C   UNL     1       2.756   5.676  18.781  0.00  0.00    +0.000 A 
ATOM      8  C   UNL     1       2.248   6.094  20.021  0.00  0.00    +0.000 A 
ATOM      9  C   UNL     1       1.828   7.407  20.235  0.00  0.00    +0.000 A 
ATOM     10  F   UNL     1       1.393   7.716  21.466  0.00  0.00    +0.000 F 
BRANCH   4  12
ATOM     11  C   UNL     1       0.161   9.933  19.662  0.00  0.00    +0.000 C 
ATOM     12  O   UNL     1       1.507   9.667  19.283  0.00  0.00    +0.000 OA
ENDBRANCH   4  12
ENDBRANCH   1   7
BRANCH   3  13
ATOM     13  C   UNL     1       4.873   4.455  16.475  0.00  0.00    +0.000 A 
ATOM     14  C   UNL     1       5.743   5.455  16.882  0.00  0.00    +0.000 A 
ATOM     15  C   UNL     1       6.855   5.755  16.098  0.00  0.00    +0.000 A 
ATOM     16  C   UNL     1       7.057   5.078  14.869  0.00  0.00    +0.000 A 
ATOM     17  C   UNL     1       6.122   4.111  14.433  0.00  0.00    +0.000 A 
ATOM     18  C   UNL     1       5.035   3.799  15.255  0.00  0.00    +0.000 A 
BRANCH  15  19
ATOM     19  O   UNL     1       7.799   6.683  16.472  0.00  0.00    +0.000 OA
ATOM     20  C   UNL     1       7.440   7.532  17.562  0.00  0.00    +0.000 C 
ENDBRANCH  15  19
BRANCH  16  21
ATOM     21  O   UNL     1       8.173   5.467  14.161  0.00  0.00    +0.000 OA
ATOM     22  C   UNL     1       8.015   5.610  12.751  0.00  0.00    +0.000 C 
ENDBRANCH  16  21
BRANCH  17  23
ATOM     23  O   UNL     1       6.326   3.517  13.214  0.00  0.00    +0.000 OA
ATOM     24  C   UNL     1       5.203   3.308  12.366  0.00  0.00    +0.000 C 
ENDBRANCH  17  23
ENDBRANCH   3  13
TORSDOF 6
ENDMDL
MODEL 9
REMARK VINA RESULT:      -6.5      5.077      7.445
REMARK  Name = 
REMARK  10 active torsions:
REMARK  status: ('A' for Active; 'I' for Inactive)
REMARK    1  A    between atoms: C_1  and  O_2
REMARK    2  A    between atoms: O_2  and  C_3
REMARK    3  A    between atoms: C_6  and  C_7
REMARK    4  A    between atoms: C_9  and  C_10
REMARK    5  A    between atoms: C_12  and  O_13
REMARK    6  A    between atoms: O_13  and  C_14
REMARK    7  A    between atoms: C_15  and  O_16
REMARK    8  A    between atoms: O_16  and  C_17
REMARK    9  A    between atoms: C_18  and  O_19
REMARK   10  A    between atoms: O_19  and  C_20
REMARK                            x       y       z     vdW  Elec       q    Type
REMARK                         _______ _______ _______ _____ _____    ______ ____
ROOT
ATOM      1  C   UNL     1       3.048   7.703  18.291  0.00  0.00    +0.000 C 
ATOM      2  N   UNL     1       2.487   8.309  17.015  0.00  0.00    +0.000 NA
ATOM      3  C   UNL     1       2.189   8.805  18.136  0.00  0.00    +0.000 C 
ENDROOT
BRANCH   1   7
ATOM      4  C   UNL     1       1.429   3.968  19.834  0.00  0.00    +0.000 A 
ATOM      5  C   UNL     1       1.616   5.059  20.687  0.00  0.00    +0.000 A 
ATOM      6  C   UNL     1       2.100   6.280  20.197  0.00  0.00    +0.000 A 
ATOM      7  C   UNL     1       2.414   6.451  18.839  0.00  0.00    +0.000 A 
ATOM      8  C   UNL     1       2.207   5.347  17.995  0.00  0.00    +0.000 A 
ATOM      9  C   UNL     1       1.734   4.130  18.484  0.00  0.00    +0.000 A 
ATOM     10  F   UNL     1       1.607   3.127  17.603  0.00  0.00    +0.000 F 
BRANCH   4  12
ATOM     11  C   UNL     1       1.490   2.540  21.735  0.00  0.00    +0.000 C 
ATOM     12  O   UNL     1       0.963   2.837  20.446  0.00  0.00    +0.000 OA
ENDBRANCH   4  12
ENDBRANCH   1   7
BRANCH   3  13
ATOM     13  C   UNL     1       1.252   9.603  18.817  0.00  0.00    +0.000 A 
ATOM     14  C   UNL     1       0.138  10.042  18.119  0.00  0.00    +0.000 A 
ATOM     15  C   UNL     1      -0.924  10.613  18.817  0.00  0.00    +0.000 A 
ATOM     16  C   UNL     1      -0.835  10.790  20.220  0.00  0.00    +0.000 A 
ATOM     17  C   UNL     1       0.338  10.402  20.908  0.00  0.00    +0.000 A 
ATOM     18  C   UNL     1       1.375   9.796  20.193  0.00  0.00    +0.000 A 
BRANCH  15  19
ATOM     19  O   UNL     1      -2.091  11.006  18.202  0.00  0.00    +0.000 OA
ATOM     20  C   UNL     1      -2.894   9.956  17.663  0.00  0.00    +0.000 C 
ENDBRANCH  15  19
BRANCH  16  21
ATOM     21  O   UNL     1      -1.929  11.384  20.809  0.00  0.00    +0.000 OA
ATOM     22  C   UNL     1      -1.854  12.792  21.021  0.00  0.00    +0.000 C 
ENDBRANCH  16  21
BRANCH  17  23
ATOM     23  O   UNL     1       0.405  10.638  22.257  0.00  0.00    +0.000 OA
ATOM     24  C   UNL     1      -0.078   9.638  23.145  0.00  0.00    +0.000 C 
ENDBRANCH  17  23
ENDBRANCH   3  13
TORSDOF 6
ENDMDL
