MODEL 1
REMARK VINA RESULT:      -7.4      0.000      0.000
REMARK  Name = 
REMARK  14 active torsions:
REMARK  status: ('A' for Active; 'I' for Inactive)
REMARK    1  A    between atoms: C_1  and  S_2
REMARK    2  A    between atoms: S_2  and  C_3
REMARK    3  A    between atoms: S_2  and  C_14
REMARK    4  A    between atoms: C_3  and  C_4
REMARK    5  A    between atoms: C_4  and  C_5
REMARK    6  A    between atoms: C_5  and  N_6
REMARK    7  A    between atoms: C_5  and  C_11
REMARK    8  A    between atoms: C_7  and  CA_9
REMARK    9  A    between atoms: CA_9  and  N_10
REMARK   10  A    between atoms: C_11  and  O_13
REMARK   11  A    between atoms: C_14  and  C_15
REMARK   12  A    between atoms: C_17  and  N_18
REMARK   13  A    between atoms: C_28  and  O_29
REMARK   14  A    between atoms: C_30  and  O_31
REMARK                            x       y       z     vdW  Elec       q    Type
REMARK                         _______ _______ _______ _____ _____    ______ ____
ROOT
ATOM      1  C   UNK A   2       4.064   3.777  19.379  0.00  0.00    +0.000 C 
ATOM      2  O   UNK A   2       4.051   5.193  19.667  0.00  0.00    +0.000 OA
ATOM      3  C   UNK A   2       2.713   5.585  20.032  0.00  0.00    +0.000 C 
ATOM      4  C   UNK A   2       1.780   4.415  19.734  0.00  0.00    +0.000 C 
ATOM      5  C   UNK A   2       2.722   3.229  19.864  0.00  0.00    +0.000 C 
ENDROOT
BRANCH   3   6
ATOM      6  N   UNK A   2       2.364   6.822  19.366  0.00  0.00    +0.000 N 
ATOM      7  C   UNK A   2       2.658   7.120  18.060  0.00  0.00    +0.000 A 
ATOM      8  N   UNK A   2       2.270   8.334  17.728  0.00  0.00    +0.000 NA
ATOM      9  C   UNK A   2       1.698   8.842  18.875  0.00  0.00    +0.000 A 
ATOM     10  C   UNK A   2       1.109  10.084  19.165  0.00  0.00    +0.000 A 
ATOM     11  N   UNK A   2       1.030  11.117  18.238  0.00  0.00    +0.000 N 
ATOM     12  N   UNK A   2       0.581  10.281  20.394  0.00  0.00    +0.000 NA
ATOM     13  C   UNK A   2       0.682   9.280  21.295  0.00  0.00    +0.000 A 
ATOM     14  N   UNK A   2       1.263   8.073  21.150  0.00  0.00    +0.000 NA
ATOM     15  C   UNK A   2       1.735   7.912  19.902  0.00  0.00    +0.000 A 
ATOM     16  H   UNK A   2       1.128  10.793  17.282  0.00  0.00    +0.000 HD
ATOM     17  H   UNK A   2       0.257  11.738  18.440  0.00  0.00    +0.000 HD
ENDBRANCH   3   6
BRANCH   4  18
ATOM     18  O   UNK A   2       0.705   4.325  20.673  0.00  0.00    +0.000 OA
ATOM     19  H   UNK A   2       0.762   3.428  21.065  0.00  0.00    +0.000 HD
ENDBRANCH   4  18
BRANCH   5  20
ATOM     20  O   UNK A   2       2.781   2.870  21.261  0.00  0.00    +0.000 OA
ATOM     21  H   UNK A   2       2.959   3.672  21.788  0.00  0.00    +0.000 HD
ENDBRANCH   5  20
BRANCH   1  22
ATOM     22  C   UNK A   2       4.327   3.509  17.890  0.00  0.00    +0.000 C 
BRANCH  22  24
ATOM     23  C   UNK A   2       6.890   4.496  17.950  0.00  0.00    +0.000 C 
ATOM     24  S   UNK A   2       5.326   4.837  17.114  0.00  0.00    +0.000 S 
BRANCH  24  25
ATOM     25  C   UNK A   2       5.745   3.964  15.570  0.00  0.00    +0.000 C 
BRANCH  25  26
ATOM     26  C   UNK A   2       6.945   4.591  14.864  0.00  0.00    +0.000 C 
BRANCH  26  27
ATOM     27  C   UNK A   2       6.764   4.723  13.347  0.00  0.00    +0.000 C 
BRANCH  27  28
ATOM     28  N   UNK A   2       6.736   3.411  12.721  0.00  0.00    +0.000 N 
ATOM     29  C   GLY A   1       5.624   2.990  12.025  0.00  0.00    +0.000 C 
ATOM     30  O   GLY A   1       4.604   3.669  11.941  0.00  0.00    +0.000 OA
ATOM     31  H   UNK A   2       7.604   2.950  12.447  0.00  0.00    +0.000 HD
BRANCH  29  32
ATOM     32  CA  GLY A   1       5.766   1.584  11.436  0.00  0.00    +0.000 C 
BRANCH  32  33
ATOM     33  N   GLY A   1       7.187   1.271  11.182  0.00  0.00    +0.000 NA
ATOM     34  H1  GLY A   1       7.503   1.839  10.392  0.00  0.00    +0.000 HD
ATOM     35  H2  GLY A   1       7.243   0.306  10.854  0.00  0.00    +0.000 HD
ENDBRANCH  32  33
ENDBRANCH  29  32
ENDBRANCH  27  28
BRANCH  27  36
ATOM     36  C   UNK A   2       7.885   5.553  12.707  0.00  0.00    +0.000 C 
ATOM     37  O   UNK A   2       8.901   5.910  13.295  0.00  0.00    +0.000 OA
BRANCH  36  38
ATOM     38  O   UNK A   2       7.692   5.786  11.386  0.00  0.00    +0.000 OA
ATOM     39  H   UNK A   2       7.435   4.973  10.896  0.00  0.00    +0.000 HD
ENDBRANCH  36  38
ENDBRANCH  27  36
ENDBRANCH  26  27
ENDBRANCH  25  26
ENDBRANCH  24  25
ENDBRANCH  22  24
ENDBRANCH   1  22
TORSDOF 13
ENDMDL
MODEL 2
REMARK VINA RESULT:      -6.9      2.735      8.862
REMARK  Name = 
REMARK  14 active torsions:
REMARK  status: ('A' for Active; 'I' for Inactive)
REMARK    1  A    between atoms: C_1  and  S_2
REMARK    2  A    between atoms: S_2  and  C_3
REMARK    3  A    between atoms: S_2  and  C_14
REMARK    4  A    between atoms: C_3  and  C_4
REMARK    5  A    between atoms: C_4  and  C_5
REMARK    6  A    between atoms: C_5  and  N_6
REMARK    7  A    between atoms: C_5  and  C_11
REMARK    8  A    between atoms: C_7  and  CA_9
REMARK    9  A    between atoms: CA_9  and  N_10
REMARK   10  A    between atoms: C_11  and  O_13
REMARK   11  A    between atoms: C_14  and  C_15
REMARK   12  A    between atoms: C_17  and  N_18
REMARK   13  A    between atoms: C_28  and  O_29
REMARK   14  A    between atoms: C_30  and  O_31
REMARK                            x       y       z     vdW  Elec       q    Type
REMARK                         _______ _______ _______ _____ _____    ______ ____
ROOT
ATOM      1  C   UNK A   2       2.389   3.958  17.847  0.00  0.00    +0.000 C 
ATOM      2  O   UNK A   2       3.328   3.674  16.787  0.00  0.00    +0.000 OA
ATOM      3  C   UNK A   2       4.592   3.296  17.367  0.00  0.00    +0.000 C 
ATOM      4  C   UNK A   2       4.527   3.580  18.866  0.00  0.00    +0.000 C 
ATOM      5  C   UNK A   2       3.037   3.456  19.138  0.00  0.00    +0.000 C 
ENDROOT
BRANCH   3   6
ATOM      6  N   UNK A   2       5.672   3.961  16.671  0.00  0.00    +0.000 N 
ATOM      7  C   UNK A   2       6.628   4.741  17.270  0.00  0.00    +0.000 A 
ATOM      8  N   UNK A   2       7.460   5.267  16.395  0.00  0.00    +0.000 NA
ATOM      9  C   UNK A   2       7.020   4.801  15.174  0.00  0.00    +0.000 A 
ATOM     10  C   UNK A   2       7.482   5.009  13.863  0.00  0.00    +0.000 A 
ATOM     11  N   UNK A   2       8.560   5.833  13.564  0.00  0.00    +0.000 N 
ATOM     12  N   UNK A   2       6.861   4.369  12.847  0.00  0.00    +0.000 NA
ATOM     13  C   UNK A   2       5.800   3.587  13.145  0.00  0.00    +0.000 A 
ATOM     14  N   UNK A   2       5.239   3.351  14.348  0.00  0.00    +0.000 NA
ATOM     15  C   UNK A   2       5.916   3.977  15.325  0.00  0.00    +0.000 A 
ATOM     16  H   UNK A   2       9.162   5.996  14.364  0.00  0.00    +0.000 HD
ATOM     17  H   UNK A   2       9.005   5.561  12.697  0.00  0.00    +0.000 HD
ENDBRANCH   3   6
BRANCH   4  18
ATOM     18  O   UNK A   2       5.272   2.628  19.630  0.00  0.00    +0.000 OA
ATOM     19  H   UNK A   2       4.626   2.198  20.230  0.00  0.00    +0.000 HD
ENDBRANCH   4  18
BRANCH   5  20
ATOM     20  O   UNK A   2       2.747   2.059  19.357  0.00  0.00    +0.000 OA
ATOM     21  H   UNK A   2       2.382   1.678  18.536  0.00  0.00    +0.000 HD
ENDBRANCH   5  20
BRANCH   1  22
ATOM     22  C   UNK A   2       2.023   5.448  17.892  0.00  0.00    +0.000 C 
BRANCH  22  24
ATOM     23  C   UNK A   2       4.096   7.226  17.588  0.00  0.00    +0.000 C 
ATOM     24  S   UNK A   2       3.192   6.415  18.924  0.00  0.00    +0.000 S 
BRANCH  24  25
ATOM     25  C   UNK A   2       2.095   7.824  19.289  0.00  0.00    +0.000 C 
BRANCH  25  26
ATOM     26  C   UNK A   2       1.484   7.729  20.686  0.00  0.00    +0.000 C 
BRANCH  26  27
ATOM     27  C   UNK A   2       0.690   8.975  21.095  0.00  0.00    +0.000 C 
BRANCH  27  28
ATOM     28  N   UNK A   2       0.925  10.060  20.157  0.00  0.00    +0.000 N 
ATOM     29  C   GLY A   1      -0.049  11.004  19.918  0.00  0.00    +0.000 C 
ATOM     30  O   GLY A   1      -1.161  10.950  20.439  0.00  0.00    +0.000 OA
ATOM     31  H   UNK A   2       1.875  10.375  19.959  0.00  0.00    +0.000 HD
BRANCH  29  32
ATOM     32  CA  GLY A   1       0.366  12.070  18.901  0.00  0.00    +0.000 C 
BRANCH  32  33
ATOM     33  N   GLY A   1       1.722  11.791  18.384  0.00  0.00    +0.000 NA
ATOM     34  H1  GLY A   1       1.640  11.530  17.399  0.00  0.00    +0.000 HD
ATOM     35  H2  GLY A   1       2.070  10.952  18.852  0.00  0.00    +0.000 HD
ENDBRANCH  32  33
ENDBRANCH  29  32
ENDBRANCH  27  28
BRANCH  27  36
ATOM     36  C   UNK A   2       1.058   9.451  22.506  0.00  0.00    +0.000 C 
ATOM     37  O   UNK A   2       0.252   9.896  23.316  0.00  0.00    +0.000 OA
BRANCH  36  38
ATOM     38  O   UNK A   2       2.361   9.249  22.816  0.00  0.00    +0.000 OA
ATOM     39  H   UNK A   2       2.742   8.472  22.349  0.00  0.00    +0.000 HD
ENDBRANCH  36  38
ENDBRANCH  27  36
ENDBRANCH  26  27
ENDBRANCH  25  26
ENDBRANCH  24  25
ENDBRANCH  22  24
ENDBRANCH   1  22
TORSDOF 13
ENDMDL
MODEL 3
REMARK VINA RESULT:      -6.9      3.125      8.503
REMARK  Name = 
REMARK  14 active torsions:
REMARK  status: ('A' for Active; 'I' for Inactive)
REMARK    1  A    between atoms: C_1  and  S_2
REMARK    2  A    between atoms: S_2  and  C_3
REMARK    3  A    between atoms: S_2  and  C_14
REMARK    4  A    between atoms: C_3  and  C_4
REMARK    5  A    between atoms: C_4  and  C_5
REMARK    6  A    between atoms: C_5  and  N_6
REMARK    7  A    between atoms: C_5  and  C_11
REMARK    8  A    between atoms: C_7  and  CA_9
REMARK    9  A    between atoms: CA_9  and  N_10
REMARK   10  A    between atoms: C_11  and  O_13
REMARK   11  A    between atoms: C_14  and  C_15
REMARK   12  A    between atoms: C_17  and  N_18
REMARK   13  A    between atoms: C_28  and  O_29
REMARK   14  A    between atoms: C_30  and  O_31
REMARK                            x       y       z     vdW  Elec       q    Type
REMARK                         _______ _______ _______ _____ _____    ______ ____
ROOT
ATOM      1  C   UNK A   2       2.353   4.008  17.767  0.00  0.00    +0.000 C 
ATOM      2  O   UNK A   2       3.285   3.730  16.699  0.00  0.00    +0.000 OA
ATOM      3  C   UNK A   2       4.541   3.310  17.269  0.00  0.00    +0.000 C 
ATOM      4  C   UNK A   2       4.483   3.559  18.774  0.00  0.00    +0.000 C 
ATOM      5  C   UNK A   2       2.991   3.461  19.044  0.00  0.00    +0.000 C 
ENDROOT
BRANCH   3   6
ATOM      6  N   UNK A   2       5.635   3.969  16.588  0.00  0.00    +0.000 N 
ATOM      7  C   UNK A   2       6.582   4.751  17.200  0.00  0.00    +0.000 A 
ATOM      8  N   UNK A   2       7.431   5.269  16.336  0.00  0.00    +0.000 NA
ATOM      9  C   UNK A   2       7.012   4.797  15.111  0.00  0.00    +0.000 A 
ATOM     10  C   UNK A   2       7.497   4.996  13.807  0.00  0.00    +0.000 A 
ATOM     11  N   UNK A   2       8.583   5.816  13.522  0.00  0.00    +0.000 N 
ATOM     12  N   UNK A   2       6.893   4.351  12.784  0.00  0.00    +0.000 NA
ATOM     13  C   UNK A   2       5.825   3.574  13.067  0.00  0.00    +0.000 A 
ATOM     14  N   UNK A   2       5.243   3.347  14.261  0.00  0.00    +0.000 NA
ATOM     15  C   UNK A   2       5.903   3.977  15.247  0.00  0.00    +0.000 A 
ATOM     16  H   UNK A   2       9.170   5.982  14.332  0.00  0.00    +0.000 HD
ATOM     17  H   UNK A   2       9.042   5.538  12.665  0.00  0.00    +0.000 HD
ENDBRANCH   3   6
BRANCH   4  18
ATOM     18  O   UNK A   2       5.208   2.573  19.514  0.00  0.00    +0.000 OA
ATOM     19  H   UNK A   2       5.988   2.343  18.966  0.00  0.00    +0.000 HD
ENDBRANCH   4  18
BRANCH   5  20
ATOM     20  O   UNK A   2       2.672   2.065  19.229  0.00  0.00    +0.000 OA
ATOM     21  H   UNK A   2       1.924   1.831  18.647  0.00  0.00    +0.000 HD
ENDBRANCH   5  20
BRANCH   1  22
ATOM     22  C   UNK A   2       2.020   5.504  17.848  0.00  0.00    +0.000 C 
BRANCH  22  24
ATOM     23  C   UNK A   2       4.011   7.350  17.423  0.00  0.00    +0.000 C 
ATOM     24  S   UNK A   2       3.277   6.441  18.801  0.00  0.00    +0.000 S 
BRANCH  24  25
ATOM     25  C   UNK A   2       2.200   7.797  19.368  0.00  0.00    +0.000 C 
BRANCH  25  26
ATOM     26  C   UNK A   2       1.773   8.709  18.220  0.00  0.00    +0.000 C 
BRANCH  26  27
ATOM     27  C   UNK A   2       0.784   9.803  18.640  0.00  0.00    +0.000 C 
BRANCH  27  28
ATOM     28  N   UNK A   2      -0.213  10.014  17.603  0.00  0.00    +0.000 N 
ATOM     29  C   GLY A   1      -1.428  10.587  17.905  0.00  0.00    +0.000 C 
ATOM     30  O   GLY A   1      -1.743  10.898  19.050  0.00  0.00    +0.000 OA
ATOM     31  H   UNK A   2       0.069  10.112  16.627  0.00  0.00    +0.000 HD
BRANCH  29  32
ATOM     32  CA  GLY A   1      -2.356  10.730  16.695  0.00  0.00    +0.000 C 
BRANCH  32  33
ATOM     33  N   GLY A   1      -3.422  11.714  16.974  0.00  0.00    +0.000 NA
ATOM     34  H1  GLY A   1      -3.158  12.241  17.810  0.00  0.00    +0.000 HD
ATOM     35  H2  GLY A   1      -4.263  11.199  17.240  0.00  0.00    +0.000 HD
ENDBRANCH  32  33
ENDBRANCH  29  32
ENDBRANCH  27  28
BRANCH  27  36
ATOM     36  C   UNK A   2       1.490  11.134  18.927  0.00  0.00    +0.000 C 
ATOM     37  O   UNK A   2       2.280  11.676  18.160  0.00  0.00    +0.000 OA
BRANCH  36  38
ATOM     38  O   UNK A   2       1.089  11.715  20.083  0.00  0.00    +0.000 OA
ATOM     39  H   UNK A   2       1.419  11.236  20.877  0.00  0.00    +0.000 HD
ENDBRANCH  36  38
ENDBRANCH  27  36
ENDBRANCH  26  27
ENDBRANCH  25  26
ENDBRANCH  24  25
ENDBRANCH  22  24
ENDBRANCH   1  22
TORSDOF 13
ENDMDL
MODEL 4
REMARK VINA RESULT:      -6.9      3.350      5.195
REMARK  Name = 
REMARK  14 active torsions:
REMARK  status: ('A' for Active; 'I' for Inactive)
REMARK    1  A    between atoms: C_1  and  S_2
REMARK    2  A    between atoms: S_2  and  C_3
REMARK    3  A    between atoms: S_2  and  C_14
REMARK    4  A    between atoms: C_3  and  C_4
REMARK    5  A    between atoms: C_4  and  C_5
REMARK    6  A    between atoms: C_5  and  N_6
REMARK    7  A    between atoms: C_5  and  C_11
REMARK    8  A    between atoms: C_7  and  CA_9
REMARK    9  A    between atoms: CA_9  and  N_10
REMARK   10  A    between atoms: C_11  and  O_13
REMARK   11  A    between atoms: C_14  and  C_15
REMARK   12  A    between atoms: C_17  and  N_18
REMARK   13  A    between atoms: C_28  and  O_29
REMARK   14  A    between atoms: C_30  and  O_31
REMARK                            x       y       z     vdW  Elec       q    Type
REMARK                         _______ _______ _______ _____ _____    ______ ____
ROOT
ATOM      1  C   UNK A   2       4.423   3.124  17.696  0.00  0.00    +0.000 C 
ATOM      2  O   UNK A   2       4.345   3.984  18.853  0.00  0.00    +0.000 OA
ATOM      3  C   UNK A   2       3.043   3.847  19.455  0.00  0.00    +0.000 C 
ATOM      4  C   UNK A   2       2.165   3.040  18.501  0.00  0.00    +0.000 C 
ATOM      5  C   UNK A   2       3.200   2.208  17.761  0.00  0.00    +0.000 C 
ENDROOT
BRANCH   3   6
ATOM      6  N   UNK A   2       2.520   5.151  19.801  0.00  0.00    +0.000 N 
ATOM      7  C   UNK A   2       1.810   5.434  20.940  0.00  0.00    +0.000 A 
ATOM      8  N   UNK A   2       1.410   6.688  20.977  0.00  0.00    +0.000 NA
ATOM      9  C   UNK A   2       1.888   7.240  19.807  0.00  0.00    +0.000 A 
ATOM     10  C   UNK A   2       1.789   8.532  19.264  0.00  0.00    +0.000 A 
ATOM     11  N   UNK A   2       1.090   9.561  19.885  0.00  0.00    +0.000 N 
ATOM     12  N   UNK A   2       2.413   8.794  18.093  0.00  0.00    +0.000 NA
ATOM     13  C   UNK A   2       3.071   7.783  17.486  0.00  0.00    +0.000 A 
ATOM     14  N   UNK A   2       3.194   6.501  17.882  0.00  0.00    +0.000 NA
ATOM     15  C   UNK A   2       2.592   6.303  19.067  0.00  0.00    +0.000 A 
ATOM     16  H   UNK A   2       0.949   9.396  20.876  0.00  0.00    +0.000 HD
ATOM     17  H   UNK A   2       1.445  10.468  19.612  0.00  0.00    +0.000 HD
ENDBRANCH   3   6
BRANCH   4  18
ATOM     18  O   UNK A   2       1.234   2.206  19.195  0.00  0.00    +0.000 OA
ATOM     19  H   UNK A   2       1.718   1.844  19.968  0.00  0.00    +0.000 HD
ENDBRANCH   4  18
BRANCH   5  20
ATOM     20  O   UNK A   2       3.469   1.036  18.558  0.00  0.00    +0.000 OA
ATOM     21  H   UNK A   2       4.431   0.870  18.565  0.00  0.00    +0.000 HD
ENDBRANCH   5  20
BRANCH   1  22
ATOM     22  C   UNK A   2       4.504   3.935  16.396  0.00  0.00    +0.000 C 
BRANCH  22  24
ATOM     23  C   UNK A   2       5.911   4.250  14.056  0.00  0.00    +0.000 C 
ATOM     24  S   UNK A   2       6.235   4.163  15.830  0.00  0.00    +0.000 S 
BRANCH  24  25
ATOM     25  C   UNK A   2       6.347   5.963  16.088  0.00  0.00    +0.000 C 
BRANCH  25  26
ATOM     26  C   UNK A   2       7.652   6.364  16.774  0.00  0.00    +0.000 C 
BRANCH  26  27
ATOM     27  C   UNK A   2       7.490   6.682  18.265  0.00  0.00    +0.000 C 
BRANCH  27  28
ATOM     28  N   UNK A   2       8.439   7.703  18.675  0.00  0.00    +0.000 N 
ATOM     29  C   GLY A   1       8.261   9.017  18.300  0.00  0.00    +0.000 C 
ATOM     30  O   GLY A   1       7.336   9.376  17.575  0.00  0.00    +0.000 OA
ATOM     31  H   UNK A   2       9.003   7.578  19.516  0.00  0.00    +0.000 HD
BRANCH  29  32
ATOM     32  CA  GLY A   1       9.356   9.955  18.815  0.00  0.00    +0.000 C 
BRANCH  32  33
ATOM     33  N   GLY A   1       9.432  11.169  17.977  0.00  0.00    +0.000 NA
ATOM     34  H1  GLY A   1       9.779  10.899  17.054  0.00  0.00    +0.000 HD
ATOM     35  H2  GLY A   1      10.157  11.775  18.367  0.00  0.00    +0.000 HD
ENDBRANCH  32  33
ENDBRANCH  29  32
ENDBRANCH  27  28
BRANCH  27  36
ATOM     36  C   UNK A   2       7.692   5.438  19.141  0.00  0.00    +0.000 C 
ATOM     37  O   UNK A   2       7.287   5.333  20.294  0.00  0.00    +0.000 OA
BRANCH  36  38
ATOM     38  O   UNK A   2       8.289   4.413  18.486  0.00  0.00    +0.000 OA
ATOM     39  H   UNK A   2       8.625   3.722  19.099  0.00  0.00    +0.000 HD
ENDBRANCH  36  38
ENDBRANCH  27  36
ENDBRANCH  26  27
ENDBRANCH  25  26
ENDBRANCH  24  25
ENDBRANCH  22  24
ENDBRANCH   1  22
TORSDOF 13
ENDMDL
MODEL 5
REMARK VINA RESULT:      -6.8      3.394      9.379
REMARK  Name = 
REMARK  14 active torsions:
REMARK  status: ('A' for Active; 'I' for Inactive)
REMARK    1  A    between atoms: C_1  and  S_2
REMARK    2  A    between atoms: S_2  and  C_3
REMARK    3  A    between atoms: S_2  and  C_14
REMARK    4  A    between atoms: C_3  and  C_4
REMARK    5  A    between atoms: C_4  and  C_5
REMARK    6  A    between atoms: C_5  and  N_6
REMARK    7  A    between atoms: C_5  and  C_11
REMARK    8  A    between atoms: C_7  and  CA_9
REMARK    9  A    between atoms: CA_9  and  N_10
REMARK   10  A    between atoms: C_11  and  O_13
REMARK   11  A    between atoms: C_14  and  C_15
REMARK   12  A    between atoms: C_17  and  N_18
REMARK   13  A    between atoms: C_28  and  O_29
REMARK   14  A    between atoms: C_30  and  O_31
REMARK                            x       y       z     vdW  Elec       q    Type
REMARK                         _______ _______ _______ _____ _____    ______ ____
ROOT
ATOM      1  C   UNK A   2       2.830   5.336  18.566  0.00  0.00    +0.000 C 
ATOM      2  O   UNK A   2       3.433   5.055  17.284  0.00  0.00    +0.000 OA
ATOM      3  C   UNK A   2       4.602   4.236  17.483  0.00  0.00    +0.000 C 
ATOM      4  C   UNK A   2       4.895   4.188  18.981  0.00  0.00    +0.000 C 
ATOM      5  C   UNK A   2       3.512   4.407  19.572  0.00  0.00    +0.000 C 
ENDROOT
BRANCH   3   6
ATOM      6  N   UNK A   2       5.693   4.728  16.669  0.00  0.00    +0.000 N 
ATOM      7  C   UNK A   2       6.655   5.608  17.095  0.00  0.00    +0.000 A 
ATOM      8  N   UNK A   2       7.497   5.927  16.134  0.00  0.00    +0.000 NA
ATOM      9  C   UNK A   2       7.056   5.217  15.037  0.00  0.00    +0.000 A 
ATOM     10  C   UNK A   2       7.526   5.138  13.714  0.00  0.00    +0.000 A 
ATOM     11  N   UNK A   2       8.615   5.869  13.254  0.00  0.00    +0.000 N 
ATOM     12  N   UNK A   2       6.902   4.303  12.853  0.00  0.00    +0.000 NA
ATOM     13  C   UNK A   2       5.831   3.613  13.303  0.00  0.00    +0.000 A 
ATOM     14  N   UNK A   2       5.263   3.643  14.525  0.00  0.00    +0.000 NA
ATOM     15  C   UNK A   2       5.943   4.455  15.352  0.00  0.00    +0.000 A 
ATOM     16  H   UNK A   2       9.215   6.192  14.006  0.00  0.00    +0.000 HD
ATOM     17  H   UNK A   2       9.060   5.414  12.468  0.00  0.00    +0.000 HD
ENDBRANCH   3   6
BRANCH   4  18
ATOM     18  O   UNK A   2       5.437   2.928  19.387  0.00  0.00    +0.000 OA
ATOM     19  H   UNK A   2       4.975   2.692  20.220  0.00  0.00    +0.000 HD
ENDBRANCH   4  18
BRANCH   5  20
ATOM     20  O   UNK A   2       2.852   3.125  19.626  0.00  0.00    +0.000 OA
ATOM     21  H   UNK A   2       3.524   2.419  19.567  0.00  0.00    +0.000 HD
ENDBRANCH   5  20
BRANCH   1  22
ATOM     22  C   UNK A   2       2.954   6.821  18.933  0.00  0.00    +0.000 C 
BRANCH  22  24
ATOM     23  C   UNK A   2       1.715   7.940  21.115  0.00  0.00    +0.000 C 
ATOM     24  S   UNK A   2       1.336   7.556  19.392  0.00  0.00    +0.000 S 
BRANCH  24  25
ATOM     25  C   UNK A   2       1.636   9.237  18.755  0.00  0.00    +0.000 C 
BRANCH  25  26
ATOM     26  C   UNK A   2       0.341   9.936  18.349  0.00  0.00    +0.000 C 
BRANCH  26  27
ATOM     27  C   UNK A   2      -0.046  11.098  19.271  0.00  0.00    +0.000 C 
BRANCH  27  28
ATOM     28  N   UNK A   2      -0.619  10.596  20.509  0.00  0.00    +0.000 N 
ATOM     29  C   GLY A   1      -0.196  11.083  21.726  0.00  0.00    +0.000 C 
ATOM     30  O   GLY A   1       0.703  11.914  21.827  0.00  0.00    +0.000 OA
ATOM     31  H   UNK A   2      -1.557  10.195  20.519  0.00  0.00    +0.000 HD
BRANCH  29  32
ATOM     32  CA  GLY A   1      -0.903  10.441  22.923  0.00  0.00    +0.000 C 
BRANCH  32  33
ATOM     33  N   GLY A   1       0.064   9.697  23.756  0.00  0.00    +0.000 NA
ATOM     34  H1  GLY A   1       0.704   9.199  23.134  0.00  0.00    +0.000 HD
ATOM     35  H2  GLY A   1      -0.448   8.965  24.253  0.00  0.00    +0.000 HD
ENDBRANCH  32  33
ENDBRANCH  29  32
ENDBRANCH  27  28
BRANCH  27  36
ATOM     36  C   UNK A   2      -1.053  12.046  18.607  0.00  0.00    +0.000 C 
ATOM     37  O   UNK A   2      -0.741  13.041  17.960  0.00  0.00    +0.000 OA
BRANCH  36  38
ATOM     38  O   UNK A   2      -2.337  11.632  18.725  0.00  0.00    +0.000 OA
ATOM     39  H   UNK A   2      -2.622  11.557  19.664  0.00  0.00    +0.000 HD
ENDBRANCH  36  38
ENDBRANCH  27  36
ENDBRANCH  26  27
ENDBRANCH  25  26
ENDBRANCH  24  25
ENDBRANCH  22  24
ENDBRANCH   1  22
TORSDOF 13
ENDMDL
MODEL 6
REMARK VINA RESULT:      -6.8      3.314      5.488
REMARK  Name = 
REMARK  14 active torsions:
REMARK  status: ('A' for Active; 'I' for Inactive)
REMARK    1  A    between atoms: C_1  and  S_2
REMARK    2  A    between atoms: S_2  and  C_3
REMARK    3  A    between atoms: S_2  and  C_14
REMARK    4  A    between atoms: C_3  and  C_4
REMARK    5  A    between atoms: C_4  and  C_5
REMARK    6  A    between atoms: C_5  and  N_6
REMARK    7  A    between atoms: C_5  and  C_11
REMARK    8  A    between atoms: C_7  and  CA_9
REMARK    9  A    between atoms: CA_9  and  N_10
REMARK   10  A    between atoms: C_11  and  O_13
REMARK   11  A    between atoms: C_14  and  C_15
REMARK   12  A    between atoms: C_17  and  N_18
REMARK   13  A    between atoms: C_28  and  O_29
REMARK   14  A    between atoms: C_30  and  O_31
REMARK                            x       y       z     vdW  Elec       q    Type
REMARK                         _______ _______ _______ _____ _____    ______ ____
ROOT
ATOM      1  C   UNK A   2       1.762   7.997  20.754  0.00  0.00    +0.000 C 
ATOM      2  O   UNK A   2       1.454   8.964  19.725  0.00  0.00    +0.000 OA
ATOM      3  C   UNK A   2       0.574   9.966  20.270  0.00  0.00    +0.000 C 
ATOM      4  C   UNK A   2       0.107   9.488  21.643  0.00  0.00    +0.000 C 
ATOM      5  C   UNK A   2       1.264   8.598  22.068  0.00  0.00    +0.000 C 
ENDROOT
BRANCH   3   6
ATOM      6  N   UNK A   2      -0.492  10.247  19.333  0.00  0.00    +0.000 N 
ATOM      7  C   UNK A   2      -0.583   9.722  18.069  0.00  0.00    +0.000 A 
ATOM      8  N   UNK A   2      -1.626  10.187  17.412  0.00  0.00    +0.000 NA
ATOM      9  C   UNK A   2      -2.237  11.051  18.297  0.00  0.00    +0.000 A 
ATOM     10  C   UNK A   2      -3.383  11.857  18.189  0.00  0.00    +0.000 A 
ATOM     11  N   UNK A   2      -4.146  11.933  17.030  0.00  0.00    +0.000 N 
ATOM     12  N   UNK A   2      -3.772  12.579  19.263  0.00  0.00    +0.000 NA
ATOM     13  C   UNK A   2      -3.012  12.516  20.378  0.00  0.00    +0.000 A 
ATOM     14  N   UNK A   2      -1.874  11.823  20.583  0.00  0.00    +0.000 NA
ATOM     15  C   UNK A   2      -1.554  11.093  19.502  0.00  0.00    +0.000 A 
ATOM     16  H   UNK A   2      -4.002  11.140  16.413  0.00  0.00    +0.000 HD
ATOM     17  H   UNK A   2      -5.102  12.195  17.232  0.00  0.00    +0.000 HD
ENDBRANCH   3   6
BRANCH   4  18
ATOM     18  O   UNK A   2      -0.077  10.569  22.561  0.00  0.00    +0.000 OA
ATOM     19  H   UNK A   2      -0.858  11.067  22.239  0.00  0.00    +0.000 HD
ENDBRANCH   4  18
BRANCH   5  20
ATOM     20  O   UNK A   2       2.268   9.444  22.668  0.00  0.00    +0.000 OA
ATOM     21  H   UNK A   2       1.879   9.902  23.437  0.00  0.00    +0.000 HD
ENDBRANCH   5  20
BRANCH   1  22
ATOM     22  C   UNK A   2       1.144   6.627  20.441  0.00  0.00    +0.000 C 
BRANCH  22  24
ATOM     23  C   UNK A   2       1.276   3.897  20.155  0.00  0.00    +0.000 C 
ATOM     24  S   UNK A   2       2.345   5.259  20.671  0.00  0.00    +0.000 S 
BRANCH  24  25
ATOM     25  C   UNK A   2       3.219   5.423  19.080  0.00  0.00    +0.000 C 
BRANCH  25  26
ATOM     26  C   UNK A   2       4.730   5.542  19.266  0.00  0.00    +0.000 C 
BRANCH  26  27
ATOM     27  C   UNK A   2       5.518   4.379  18.652  0.00  0.00    +0.000 C 
BRANCH  27  28
ATOM     28  N   UNK A   2       5.655   4.558  17.216  0.00  0.00    +0.000 N 
ATOM     29  C   GLY A   1       6.896   4.519  16.620  0.00  0.00    +0.000 C 
ATOM     30  O   GLY A   1       7.933   4.382  17.265  0.00  0.00    +0.000 OA
ATOM     31  H   UNK A   2       4.880   4.335  16.591  0.00  0.00    +0.000 HD
BRANCH  29  32
ATOM     32  CA  GLY A   1       6.855   4.730  15.104  0.00  0.00    +0.000 C 
BRANCH  32  33
ATOM     33  N   GLY A   1       6.257   3.556  14.435  0.00  0.00    +0.000 NA
ATOM     34  H1  GLY A   1       7.015   2.984  14.057  0.00  0.00    +0.000 HD
ATOM     35  H2  GLY A   1       5.742   3.888  13.618  0.00  0.00    +0.000 HD
ENDBRANCH  32  33
ENDBRANCH  29  32
ENDBRANCH  27  28
BRANCH  27  36
ATOM     36  C   UNK A   2       4.844   3.027  18.920  0.00  0.00    +0.000 C 
ATOM     37  O   UNK A   2       4.760   2.505  20.028  0.00  0.00    +0.000 OA
BRANCH  36  38
ATOM     38  O   UNK A   2       4.262   2.490  17.821  0.00  0.00    +0.000 OA
ATOM     39  H   UNK A   2       3.353   2.836  17.672  0.00  0.00    +0.000 HD
ENDBRANCH  36  38
ENDBRANCH  27  36
ENDBRANCH  26  27
ENDBRANCH  25  26
ENDBRANCH  24  25
ENDBRANCH  22  24
ENDBRANCH   1  22
TORSDOF 13
ENDMDL
MODEL 7
REMARK VINA RESULT:      -6.7      3.685      8.467
REMARK  Name = 
REMARK  14 active torsions:
REMARK  status: ('A' for Active; 'I' for Inactive)
REMARK    1  A    between atoms: C_1  and  S_2
REMARK    2  A    between atoms: S_2  and  C_3
REMARK    3  A    between atoms: S_2  and  C_14
REMARK    4  A    between atoms: C_3  and  C_4
REMARK    5  A    between atoms: C_4  and  C_5
REMARK    6  A    between atoms: C_5  and  N_6
REMARK    7  A    between atoms: C_5  and  C_11
REMARK    8  A    between atoms: C_7  and  CA_9
REMARK    9  A    between atoms: CA_9  and  N_10
REMARK   10  A    between atoms: C_11  and  O_13
REMARK   11  A    between atoms: C_14  and  C_15
REMARK   12  A    between atoms: C_17  and  N_18
REMARK   13  A    between atoms: C_28  and  O_29
REMARK   14  A    between atoms: C_30  and  O_31
REMARK                            x       y       z     vdW  Elec       q    Type
REMARK                         _______ _______ _______ _____ _____    ______ ____
ROOT
ATOM      1  C   UNK A   2       1.863   3.214  18.367  0.00  0.00    +0.000 C 
ATOM      2  O   UNK A   2       2.721   3.602  17.272  0.00  0.00    +0.000 OA
ATOM      3  C   UNK A   2       4.092   3.336  17.631  0.00  0.00    +0.000 C 
ATOM      4  C   UNK A   2       4.130   2.984  19.116  0.00  0.00    +0.000 C 
ATOM      5  C   UNK A   2       2.738   2.414  19.333  0.00  0.00    +0.000 C 
ENDROOT
BRANCH   3   6
ATOM      6  N   UNK A   2       4.926   4.457  17.254  0.00  0.00    +0.000 N 
ATOM      7  C   UNK A   2       4.855   5.118  16.053  0.00  0.00    +0.000 A 
ATOM      8  N   UNK A   2       5.765   6.065  15.954  0.00  0.00    +0.000 NA
ATOM      9  C   UNK A   2       6.453   6.013  17.148  0.00  0.00    +0.000 A 
ATOM     10  C   UNK A   2       7.536   6.757  17.645  0.00  0.00    +0.000 A 
ATOM     11  N   UNK A   2       8.167   7.755  16.912  0.00  0.00    +0.000 N 
ATOM     12  N   UNK A   2       7.977   6.503  18.898  0.00  0.00    +0.000 NA
ATOM     13  C   UNK A   2       7.373   5.517  19.595  0.00  0.00    +0.000 A 
ATOM     14  N   UNK A   2       6.365   4.709  19.208  0.00  0.00    +0.000 NA
ATOM     15  C   UNK A   2       5.938   5.027  17.975  0.00  0.00    +0.000 A 
ATOM     16  H   UNK A   2       7.591   8.109  16.156  0.00  0.00    +0.000 HD
ATOM     17  H   UNK A   2       8.608   8.436  17.516  0.00  0.00    +0.000 HD
ENDBRANCH   3   6
BRANCH   4  18
ATOM     18  O   UNK A   2       5.138   2.014  19.417  0.00  0.00    +0.000 OA
ATOM     19  H   UNK A   2       5.569   1.799  18.563  0.00  0.00    +0.000 HD
ENDBRANCH   4  18
BRANCH   5  20
ATOM     20  O   UNK A   2       2.776   1.018  18.966  0.00  0.00    +0.000 OA
ATOM     21  H   UNK A   2       3.073   0.496  19.736  0.00  0.00    +0.000 HD
ENDBRANCH   5  20
BRANCH   1  22
ATOM     22  C   UNK A   2       1.199   4.434  19.020  0.00  0.00    +0.000 C 
BRANCH  22  24
ATOM     23  C   UNK A   2       2.646   6.714  18.515  0.00  0.00    +0.000 C 
ATOM     24  S   UNK A   2       2.418   5.523  19.853  0.00  0.00    +0.000 S 
BRANCH  24  25
ATOM     25  C   UNK A   2       1.240   6.534  20.806  0.00  0.00    +0.000 C 
BRANCH  25  26
ATOM     26  C   UNK A   2       1.708   7.981  20.947  0.00  0.00    +0.000 C 
BRANCH  26  27
ATOM     27  C   UNK A   2       0.563   8.981  21.138  0.00  0.00    +0.000 C 
BRANCH  27  28
ATOM     28  N   UNK A   2       0.850  10.224  20.441  0.00  0.00    +0.000 N 
ATOM     29  C   GLY A   1      -0.159  11.119  20.158  0.00  0.00    +0.000 C 
ATOM     30  O   GLY A   1      -1.335  10.894  20.433  0.00  0.00    +0.000 OA
ATOM     31  H   UNK A   2       1.781  10.639  20.487  0.00  0.00    +0.000 HD
BRANCH  29  32
ATOM     32  CA  GLY A   1       0.321  12.370  19.418  0.00  0.00    +0.000 C 
BRANCH  32  33
ATOM     33  N   GLY A   1       1.318  12.010  18.388  0.00  0.00    +0.000 NA
ATOM     34  H1  GLY A   1       2.039  12.736  18.375  0.00  0.00    +0.000 HD
ATOM     35  H2  GLY A   1       0.863  12.071  17.476  0.00  0.00    +0.000 HD
ENDBRANCH  32  33
ENDBRANCH  29  32
ENDBRANCH  27  28
BRANCH  27  36
ATOM     36  C   UNK A   2       0.314   9.291  22.620  0.00  0.00    +0.000 C 
ATOM     37  O   UNK A   2       1.179   9.675  23.400  0.00  0.00    +0.000 OA
BRANCH  36  38
ATOM     38  O   UNK A   2      -0.989   9.184  22.978  0.00  0.00    +0.000 OA
ATOM     39  H   UNK A   2      -1.226   9.792  23.714  0.00  0.00    +0.000 HD
ENDBRANCH  36  38
ENDBRANCH  27  36
ENDBRANCH  26  27
ENDBRANCH  25  26
ENDBRANCH  24  25
ENDBRANCH  22  24
ENDBRANCH   1  22
TORSDOF 13
ENDMDL
MODEL 8
REMARK VINA RESULT:      -6.6      3.833      8.530
REMARK  Name = 
REMARK  14 active torsions:
REMARK  status: ('A' for Active; 'I' for Inactive)
REMARK    1  A    between atoms: C_1  and  S_2
REMARK    2  A    between atoms: S_2  and  C_3
REMARK    3  A    between atoms: S_2  and  C_14
REMARK    4  A    between atoms: C_3  and  C_4
REMARK    5  A    between atoms: C_4  and  C_5
REMARK    6  A    between atoms: C_5  and  N_6
REMARK    7  A    between atoms: C_5  and  C_11
REMARK    8  A    between atoms: C_7  and  CA_9
REMARK    9  A    between atoms: CA_9  and  N_10
REMARK   10  A    between atoms: C_11  and  O_13
REMARK   11  A    between atoms: C_14  and  C_15
REMARK   12  A    between atoms: C_17  and  N_18
REMARK   13  A    between atoms: C_28  and  O_29
REMARK   14  A    between atoms: C_30  and  O_31
REMARK                            x       y       z     vdW  Elec       q    Type
REMARK                         _______ _______ _______ _____ _____    ______ ____
ROOT
ATOM      1  C   UNK A   2       1.978   3.917  18.113  0.00  0.00    +0.000 C 
ATOM      2  O   UNK A   2       3.210   4.430  17.561  0.00  0.00    +0.000 OA
ATOM      3  C   UNK A   2       4.307   3.616  18.023  0.00  0.00    +0.000 C 
ATOM      4  C   UNK A   2       3.777   2.685  19.111  0.00  0.00    +0.000 C 
ATOM      5  C   UNK A   2       2.315   2.554  18.719  0.00  0.00    +0.000 C 
ENDROOT
BRANCH   3   6
ATOM      6  N   UNK A   2       5.408   4.462  18.433  0.00  0.00    +0.000 N 
ATOM      7  C   UNK A   2       6.031   4.401  19.654  0.00  0.00    +0.000 A 
ATOM      8  N   UNK A   2       6.966   5.319  19.780  0.00  0.00    +0.000 NA
ATOM      9  C   UNK A   2       6.945   6.003  18.582  0.00  0.00    +0.000 A 
ATOM     10  C   UNK A   2       7.695   7.091  18.105  0.00  0.00    +0.000 A 
ATOM     11  N   UNK A   2       8.664   7.734  18.867  0.00  0.00    +0.000 N 
ATOM     12  N   UNK A   2       7.477   7.526  16.843  0.00  0.00    +0.000 NA
ATOM     13  C   UNK A   2       6.519   6.910  16.118  0.00  0.00    +0.000 A 
ATOM     14  N   UNK A   2       5.708   5.897  16.482  0.00  0.00    +0.000 NA
ATOM     15  C   UNK A   2       5.991   5.477  17.726  0.00  0.00    +0.000 A 
ATOM     16  H   UNK A   2       8.999   7.163  19.636  0.00  0.00    +0.000 HD
ATOM     17  H   UNK A   2       9.360   8.178  18.283  0.00  0.00    +0.000 HD
ENDBRANCH   3   6
BRANCH   4  18
ATOM     18  O   UNK A   2       4.431   1.413  19.101  0.00  0.00    +0.000 OA
ATOM     19  H   UNK A   2       3.799   0.789  18.684  0.00  0.00    +0.000 HD
ENDBRANCH   4  18
BRANCH   5  20
ATOM     20  O   UNK A   2       2.220   1.507  17.730  0.00  0.00    +0.000 OA
ATOM     21  H   UNK A   2       3.016   1.531  17.165  0.00  0.00    +0.000 HD
ENDBRANCH   5  20
BRANCH   1  22
ATOM     22  C   UNK A   2       1.365   4.895  19.124  0.00  0.00    +0.000 C 
BRANCH  22  24
ATOM     23  C   UNK A   2       2.400   7.247  18.150  0.00  0.00    +0.000 C 
ATOM     24  S   UNK A   2       2.547   6.208  19.620  0.00  0.00    +0.000 S 
BRANCH  24  25
ATOM     25  C   UNK A   2       1.412   7.188  20.656  0.00  0.00    +0.000 C 
BRANCH  25  26
ATOM     26  C   UNK A   2       1.421   8.667  20.277  0.00  0.00    +0.000 C 
BRANCH  26  27
ATOM     27  C   UNK A   2       0.393   9.504  21.047  0.00  0.00    +0.000 C 
BRANCH  27  28
ATOM     28  N   UNK A   2       0.225  10.805  20.421  0.00  0.00    +0.000 N 
ATOM     29  C   GLY A   1      -0.688  10.982  19.405  0.00  0.00    +0.000 C 
ATOM     30  O   GLY A   1      -1.358  10.056  18.953  0.00  0.00    +0.000 OA
ATOM     31  H   UNK A   2       0.459  11.658  20.930  0.00  0.00    +0.000 HD
BRANCH  29  32
ATOM     32  CA  GLY A   1      -0.731  12.412  18.860  0.00  0.00    +0.000 C 
BRANCH  32  33
ATOM     33  N   GLY A   1      -1.340  12.435  17.515  0.00  0.00    +0.000 NA
ATOM     34  H1  GLY A   1      -1.719  11.505  17.320  0.00  0.00    +0.000 HD
ATOM     35  H2  GLY A   1      -0.591  12.565  16.833  0.00  0.00    +0.000 HD
ENDBRANCH  32  33
ENDBRANCH  29  32
ENDBRANCH  27  28
BRANCH  27  36
ATOM     36  C   UNK A   2       0.803   9.708  22.511  0.00  0.00    +0.000 C 
ATOM     37  O   UNK A   2       1.921   9.471  22.955  0.00  0.00    +0.000 OA
BRANCH  36  38
ATOM     38  O   UNK A   2      -0.173  10.268  23.267  0.00  0.00    +0.000 OA
ATOM     39  H   UNK A   2      -1.052   9.855  23.111  0.00  0.00    +0.000 HD
ENDBRANCH  36  38
ENDBRANCH  27  36
ENDBRANCH  26  27
ENDBRANCH  25  26
ENDBRANCH  24  25
ENDBRANCH  22  24
ENDBRANCH   1  22
TORSDOF 13
ENDMDL
MODEL 9
REMARK VINA RESULT:      -6.5      4.096      9.223
REMARK  Name = 
REMARK  14 active torsions:
REMARK  status: ('A' for Active; 'I' for Inactive)
REMARK    1  A    between atoms: C_1  and  S_2
REMARK    2  A    between atoms: S_2  and  C_3
REMARK    3  A    between atoms: S_2  and  C_14
REMARK    4  A    between atoms: C_3  and  C_4
REMARK    5  A    between atoms: C_4  and  C_5
REMARK    6  A    between atoms: C_5  and  N_6
REMARK    7  A    between atoms: C_5  and  C_11
REMARK    8  A    between atoms: C_7  and  CA_9
REMARK    9  A    between atoms: CA_9  and  N_10
REMARK   10  A    between atoms: C_11  and  O_13
REMARK   11  A    between atoms: C_14  and  C_15
REMARK   12  A    between atoms: C_17  and  N_18
REMARK   13  A    between atoms: C_28  and  O_29
REMARK   14  A    between atoms: C_30  and  O_31
REMARK                            x       y       z     vdW  Elec       q    Type
REMARK                         _______ _______ _______ _____ _____    ______ ____
ROOT
ATOM      1  C   UNK A   2       1.445   5.474  20.252  0.00  0.00    +0.000 C 
ATOM      2  O   UNK A   2       1.774   5.024  18.920  0.00  0.00    +0.000 OA
ATOM      3  C   UNK A   2       2.684   3.910  19.011  0.00  0.00    +0.000 C 
ATOM      4  C   UNK A   2       3.143   3.793  20.462  0.00  0.00    +0.000 C 
ATOM      5  C   UNK A   2       1.964   4.399  21.207  0.00  0.00    +0.000 C 
ENDROOT
BRANCH   3   6
ATOM      6  N   UNK A   2       3.754   4.067  18.049  0.00  0.00    +0.000 N 
ATOM      7  C   UNK A   2       3.695   3.667  16.738  0.00  0.00    +0.000 A 
ATOM      8  N   UNK A   2       4.827   3.883  16.102  0.00  0.00    +0.000 NA
ATOM      9  C   UNK A   2       5.653   4.453  17.047  0.00  0.00    +0.000 A 
ATOM     10  C   UNK A   2       6.984   4.901  16.989  0.00  0.00    +0.000 A 
ATOM     11  N   UNK A   2       7.766   4.801  15.844  0.00  0.00    +0.000 N 
ATOM     12  N   UNK A   2       7.526   5.469  18.089  0.00  0.00    +0.000 NA
ATOM     13  C   UNK A   2       6.767   5.542  19.204  0.00  0.00    +0.000 A 
ATOM     14  N   UNK A   2       5.506   5.105  19.394  0.00  0.00    +0.000 NA
ATOM     15  C   UNK A   2       5.001   4.587  18.262  0.00  0.00    +0.000 A 
ATOM     16  H   UNK A   2       7.212   4.690  15.001  0.00  0.00    +0.000 HD
ATOM     17  H   UNK A   2       8.494   5.502  15.830  0.00  0.00    +0.000 HD
ENDBRANCH   3   6
BRANCH   4  18
ATOM     18  O   UNK A   2       3.359   2.435  20.855  0.00  0.00    +0.000 OA
ATOM     19  H   UNK A   2       2.472   2.069  21.062  0.00  0.00    +0.000 HD
ENDBRANCH   4  18
BRANCH   5  20
ATOM     20  O   UNK A   2       0.985   3.355  21.398  0.00  0.00    +0.000 OA
ATOM     21  H   UNK A   2       1.417   2.588  21.819  0.00  0.00    +0.000 HD
ENDBRANCH   5  20
BRANCH   1  22
ATOM     22  C   UNK A   2       2.024   6.867  20.535  0.00  0.00    +0.000 C 
BRANCH  22  24
ATOM     23  C   UNK A   2       1.522   8.982  22.216  0.00  0.00    +0.000 C 
ATOM     24  S   UNK A   2       0.712   8.108  20.859  0.00  0.00    +0.000 S 
BRANCH  24  25
ATOM     25  C   UNK A   2       1.173   9.303  19.563  0.00  0.00    +0.000 C 
BRANCH  25  26
ATOM     26  C   UNK A   2      -0.048   9.861  18.837  0.00  0.00    +0.000 C 
BRANCH  26  27
ATOM     27  C   UNK A   2      -0.362  11.319  19.193  0.00  0.00    +0.000 C 
BRANCH  27  28
ATOM     28  N   UNK A   2      -0.968  11.403  20.511  0.00  0.00    +0.000 N 
ATOM     29  C   GLY A   1      -0.350  12.103  21.524  0.00  0.00    +0.000 C 
ATOM     30  O   GLY A   1       0.745  12.641  21.380  0.00  0.00    +0.000 OA
ATOM     31  H   UNK A   2      -1.977  11.300  20.624  0.00  0.00    +0.000 HD
BRANCH  29  32
ATOM     32  CA  GLY A   1      -1.125  12.083  22.844  0.00  0.00    +0.000 C 
BRANCH  32  33
ATOM     33  N   GLY A   1      -1.259  13.451  23.385  0.00  0.00    +0.000 NA
ATOM     34  H1  GLY A   1      -0.764  14.091  22.761  0.00  0.00    +0.000 HD
ATOM     35  H2  GLY A   1      -0.747  13.492  24.268  0.00  0.00    +0.000 HD
ENDBRANCH  32  33
ENDBRANCH  29  32
ENDBRANCH  27  28
BRANCH  27  36
ATOM     36  C   UNK A   2      -1.306  11.968  18.172  0.00  0.00    +0.000 C 
ATOM     37  O   UNK A   2      -2.408  11.521  17.869  0.00  0.00    +0.000 OA
BRANCH  36  38
ATOM     38  O   UNK A   2      -0.846  13.148  17.690  0.00  0.00    +0.000 OA
ATOM     39  H   UNK A   2      -0.868  13.186  16.708  0.00  0.00    +0.000 HD
ENDBRANCH  36  38
ENDBRANCH  27  36
ENDBRANCH  26  27
ENDBRANCH  25  26
ENDBRANCH  24  25
ENDBRANCH  22  24
ENDBRANCH   1  22
TORSDOF 13
ENDMDL
