MODEL 1
REMARK VINA RESULT:      -7.1      0.000      0.000
REMARK  Name = 
REMARK  8 active torsions:
REMARK  status: ('A' for Active; 'I' for Inactive)
REMARK    1  A    between atoms: C_1  and  C_2
REMARK    2  A    between atoms: C_2  and  O_3
REMARK    3  A    between atoms: O_3  and  C_4
REMARK    4  A    between atoms: C_6  and  C_7
REMARK    5  A    between atoms: C_17  and  C_18
REMARK    6  A    between atoms: C_21  and  O_22
REMARK    7  A    between atoms: O_22  and  C_23
REMARK    8  A    between atoms: C_30  and  O_31
REMARK                            x       y       z     vdW  Elec       q    Type
REMARK                         _______ _______ _______ _____ _____    ______ ____
ROOT
ATOM      1  C   UNL     1      -6.651  12.075  18.186  0.00  0.00    +0.000 C 
ATOM      2  C   UNL     1      -7.205  13.022  17.109  0.00  0.00    +0.000 C 
ATOM      3  C   UNL     1      -6.974  14.476  17.438  0.00  0.00    +0.000 C 
ATOM      4  O   UNL     1      -6.798  15.339  16.583  0.00  0.00    +0.000 OA
ATOM      5  N   UNL     1      -7.059  14.806  18.769  0.00  0.00    +0.000 N 
ATOM      6  C   UNL     1      -7.131  13.910  19.815  0.00  0.00    +0.000 C 
ATOM      7  C   UNL     1      -6.935  12.605  19.576  0.00  0.00    +0.000 C 
ATOM      8  C   UNL     1      -7.027  11.623  20.684  0.00  0.00    +0.000 C 
ATOM      9  O   UNL     1      -6.981  10.417  20.429  0.00  0.00    +0.000 OA
ATOM     10  C   UNL     1      -7.235  12.083  22.106  0.00  0.00    +0.000 C 
ATOM     11  C   UNL     1      -7.198  13.590  22.375  0.00  0.00    +0.000 C 
ATOM     12  C   UNL     1      -7.404  14.509  21.162  0.00  0.00    +0.000 C 
ATOM     13  H   UNL     1      -7.032  15.804  18.958  0.00  0.00    +0.000 HD
ENDROOT
BRANCH   1  16
ATOM     14  C   UNL     1      -2.860  11.787  18.851  0.00  0.00    +0.000 A 
ATOM     15  C   UNL     1      -4.232  12.055  19.006  0.00  0.00    +0.000 A 
ATOM     16  C   UNL     1      -5.163  11.794  17.978  0.00  0.00    +0.000 A 
ATOM     17  C   UNL     1      -4.682  11.285  16.766  0.00  0.00    +0.000 A 
ATOM     18  C   UNL     1      -3.326  11.020  16.599  0.00  0.00    +0.000 A 
ATOM     19 CL   UNL     1      -2.788  10.380  15.087  0.00  0.00    +0.000 Cl
ATOM     20  C   UNL     1      -2.412  11.263  17.632  0.00  0.00    +0.000 A 
BRANCH  20  21
ATOM     21  O   UNL     1      -1.091  10.972  17.412  0.00  0.00    +0.000 OA
ATOM     22  H   UNL     1      -0.575  11.391  18.126  0.00  0.00    +0.000 HD
ENDBRANCH  20  21
BRANCH  14  23
ATOM     23  O   UNL     1      -2.107  12.082  19.964  0.00  0.00    +0.000 OA
BRANCH  23  25
ATOM     24  C   UNL     1      -2.236  14.206  21.100  0.00  0.00    +0.000 C 
ATOM     25  C   UNL     1      -1.530  13.385  20.037  0.00  0.00    +0.000 C 
ENDBRANCH  23  25
ENDBRANCH  14  23
ENDBRANCH   1  16
BRANCH  11  26
ATOM     26  C   UNL     1      -5.972  14.001  23.175  0.00  0.00    +0.000 A 
ATOM     27  C   UNL     1      -5.031  13.064  23.622  0.00  0.00    +0.000 A 
ATOM     28  C   UNL     1      -3.915  13.479  24.355  0.00  0.00    +0.000 A 
ATOM     29  C   UNL     1      -3.705  14.831  24.632  0.00  0.00    +0.000 A 
ATOM     30  C   UNL     1      -4.636  15.771  24.198  0.00  0.00    +0.000 A 
ATOM     31  C   UNL     1      -5.759  15.358  23.472  0.00  0.00    +0.000 A 
BRANCH  29  32
ATOM     32  O   UNL     1      -2.587  15.111  25.367  0.00  0.00    +0.000 OA
ATOM     33  C   UNL     1      -1.353  15.043  24.661  0.00  0.00    +0.000 C 
ENDBRANCH  29  32
ENDBRANCH  11  26
TORSDOF 6
ENDMDL
MODEL 2
REMARK VINA RESULT:      -6.9      1.460      2.774
REMARK  Name = 
REMARK  8 active torsions:
REMARK  status: ('A' for Active; 'I' for Inactive)
REMARK    1  A    between atoms: C_1  and  C_2
REMARK    2  A    between atoms: C_2  and  O_3
REMARK    3  A    between atoms: O_3  and  C_4
REMARK    4  A    between atoms: C_6  and  C_7
REMARK    5  A    between atoms: C_17  and  C_18
REMARK    6  A    between atoms: C_21  and  O_22
REMARK    7  A    between atoms: O_22  and  C_23
REMARK    8  A    between atoms: C_30  and  O_31
REMARK                            x       y       z     vdW  Elec       q    Type
REMARK                         _______ _______ _______ _____ _____    ______ ____
ROOT
ATOM      1  C   UNL     1      -6.550  12.086  18.157  0.00  0.00    +0.000 C 
ATOM      2  C   UNL     1      -7.098  12.925  16.990  0.00  0.00    +0.000 C 
ATOM      3  C   UNL     1      -6.954  14.408  17.223  0.00  0.00    +0.000 C 
ATOM      4  O   UNL     1      -6.779  15.217  16.316  0.00  0.00    +0.000 OA
ATOM      5  N   UNL     1      -7.118  14.826  18.522  0.00  0.00    +0.000 N 
ATOM      6  C   UNL     1      -7.197  14.003  19.625  0.00  0.00    +0.000 C 
ATOM      7  C   UNL     1      -6.927  12.697  19.490  0.00  0.00    +0.000 C 
ATOM      8  C   UNL     1      -7.023  11.791  20.662  0.00  0.00    +0.000 C 
ATOM      9  O   UNL     1      -6.906  10.574  20.497  0.00  0.00    +0.000 OA
ATOM     10  C   UNL     1      -7.321  12.338  22.036  0.00  0.00    +0.000 C 
ATOM     11  C   UNL     1      -7.370  13.860  22.197  0.00  0.00    +0.000 C 
ATOM     12  C   UNL     1      -7.562  14.680  20.912  0.00  0.00    +0.000 C 
ATOM     13  H   UNL     1      -7.149  15.835  18.639  0.00  0.00    +0.000 HD
ENDROOT
BRANCH   1  16
ATOM     14  C   UNL     1      -3.088  11.256  16.668  0.00  0.00    +0.000 A 
ATOM     15  C   UNL     1      -4.474  11.445  16.816  0.00  0.00    +0.000 A 
ATOM     16  C   UNL     1      -5.042  11.868  18.036  0.00  0.00    +0.000 A 
ATOM     17  C   UNL     1      -4.189  12.068  19.128  0.00  0.00    +0.000 A 
ATOM     18  C   UNL     1      -2.817  11.881  18.995  0.00  0.00    +0.000 A 
ATOM     19 CL   UNL     1      -1.808  12.154  20.371  0.00  0.00    +0.000 Cl
ATOM     20  C   UNL     1      -2.259  11.480  17.775  0.00  0.00    +0.000 A 
BRANCH  20  21
ATOM     21  O   UNL     1      -0.899  11.322  17.704  0.00  0.00    +0.000 OA
ATOM     22  H   UNL     1      -0.674  10.500  18.180  0.00  0.00    +0.000 HD
ENDBRANCH  20  21
BRANCH  14  23
ATOM     23  O   UNL     1      -2.711  10.865  15.405  0.00  0.00    +0.000 OA
BRANCH  23  25
ATOM     24  C   UNL     1      -3.054   9.731  13.303  0.00  0.00    +0.000 C 
ATOM     25  C   UNL     1      -3.641  10.082  14.657  0.00  0.00    +0.000 C 
ENDBRANCH  23  25
ENDBRANCH  14  23
ENDBRANCH   1  16
BRANCH  11  26
ATOM     26  C   UNL     1      -6.205  14.389  23.018  0.00  0.00    +0.000 A 
ATOM     27  C   UNL     1      -6.125  15.733  23.408  0.00  0.00    +0.000 A 
ATOM     28  C   UNL     1      -5.039  16.185  24.163  0.00  0.00    +0.000 A 
ATOM     29  C   UNL     1      -4.030  15.305  24.561  0.00  0.00    +0.000 A 
ATOM     30  C   UNL     1      -4.096  13.970  24.173  0.00  0.00    +0.000 A 
ATOM     31  C   UNL     1      -5.177  13.516  23.410  0.00  0.00    +0.000 A 
BRANCH  29  32
ATOM     32  O   UNL     1      -3.014  15.867  25.283  0.00  0.00    +0.000 OA
ATOM     33  C   UNL     1      -2.957  17.289  25.263  0.00  0.00    +0.000 C 
ENDBRANCH  29  32
ENDBRANCH  11  26
TORSDOF 6
ENDMDL
MODEL 3
REMARK VINA RESULT:      -6.8      0.888      1.217
REMARK  Name = 
REMARK  8 active torsions:
REMARK  status: ('A' for Active; 'I' for Inactive)
REMARK    1  A    between atoms: C_1  and  C_2
REMARK    2  A    between atoms: C_2  and  O_3
REMARK    3  A    between atoms: O_3  and  C_4
REMARK    4  A    between atoms: C_6  and  C_7
REMARK    5  A    between atoms: C_17  and  C_18
REMARK    6  A    between atoms: C_21  and  O_22
REMARK    7  A    between atoms: O_22  and  C_23
REMARK    8  A    between atoms: C_30  and  O_31
REMARK                            x       y       z     vdW  Elec       q    Type
REMARK                         _______ _______ _______ _____ _____    ______ ____
ROOT
ATOM      1  C   UNL     1      -6.534  12.088  18.377  0.00  0.00    +0.000 C 
ATOM      2  C   UNL     1      -7.093  12.847  17.162  0.00  0.00    +0.000 C 
ATOM      3  C   UNL     1      -6.938  14.341  17.287  0.00  0.00    +0.000 C 
ATOM      4  O   UNL     1      -6.771  15.083  16.324  0.00  0.00    +0.000 OA
ATOM      5  N   UNL     1      -7.081  14.851  18.555  0.00  0.00    +0.000 N 
ATOM      6  C   UNL     1      -7.149  14.108  19.715  0.00  0.00    +0.000 C 
ATOM      7  C   UNL     1      -6.888  12.794  19.669  0.00  0.00    +0.000 C 
ATOM      8  C   UNL     1      -6.973  11.974  20.903  0.00  0.00    +0.000 C 
ATOM      9  O   UNL     1      -6.865  10.747  20.823  0.00  0.00    +0.000 OA
ATOM     10  C   UNL     1      -7.248  12.618  22.239  0.00  0.00    +0.000 C 
ATOM     11  C   UNL     1      -7.287  14.148  22.293  0.00  0.00    +0.000 C 
ATOM     12  C   UNL     1      -7.492  14.876  20.956  0.00  0.00    +0.000 C 
ATOM     13  H   UNL     1      -7.105  15.865  18.602  0.00  0.00    +0.000 HD
ENDROOT
BRANCH   1  16
ATOM     14  C   UNL     1      -2.760  12.058  19.188  0.00  0.00    +0.000 A 
ATOM     15  C   UNL     1      -4.148  12.279  19.267  0.00  0.00    +0.000 A 
ATOM     16  C   UNL     1      -5.028  11.852  18.251  0.00  0.00    +0.000 A 
ATOM     17  C   UNL     1      -4.483  11.223  17.125  0.00  0.00    +0.000 A 
ATOM     18  C   UNL     1      -3.113  11.003  17.034  0.00  0.00    +0.000 A 
ATOM     19 CL   UNL     1      -2.494  10.210  15.629  0.00  0.00    +0.000 Cl
ATOM     20  C   UNL     1      -2.247  11.411  18.057  0.00  0.00    +0.000 A 
BRANCH  20  21
ATOM     21  O   UNL     1      -0.908  11.157  17.914  0.00  0.00    +0.000 OA
ATOM     22  H   UNL     1      -0.435  11.700  18.572  0.00  0.00    +0.000 HD
ENDBRANCH  20  21
BRANCH  14  23
ATOM     23  O   UNL     1      -2.061  12.520  20.279  0.00  0.00    +0.000 OA
BRANCH  23  25
ATOM     24  C   UNL     1      -1.567  11.792  22.524  0.00  0.00    +0.000 C 
ATOM     25  C   UNL     1      -1.333  11.560  21.044  0.00  0.00    +0.000 C 
ENDBRANCH  23  25
ENDBRANCH  14  23
ENDBRANCH   1  16
BRANCH  11  26
ATOM     26  C   UNL     1      -6.107  14.726  23.058  0.00  0.00    +0.000 A 
ATOM     27  C   UNL     1      -6.213  15.915  23.794  0.00  0.00    +0.000 A 
ATOM     28  C   UNL     1      -5.107  16.417  24.486  0.00  0.00    +0.000 A 
ATOM     29  C   UNL     1      -3.889  15.735  24.477  0.00  0.00    +0.000 A 
ATOM     30  C   UNL     1      -3.770  14.557  23.744  0.00  0.00    +0.000 A 
ATOM     31  C   UNL     1      -4.872  14.056  23.043  0.00  0.00    +0.000 A 
BRANCH  29  32
ATOM     32  O   UNL     1      -2.879  16.332  25.179  0.00  0.00    +0.000 OA
ATOM     33  C   UNL     1      -1.922  15.450  25.753  0.00  0.00    +0.000 C 
ENDBRANCH  29  32
ENDBRANCH  11  26
TORSDOF 6
ENDMDL
MODEL 4
REMARK VINA RESULT:      -6.7      4.094      7.543
REMARK  Name = 
REMARK  8 active torsions:
REMARK  status: ('A' for Active; 'I' for Inactive)
REMARK    1  A    between atoms: C_1  and  C_2
REMARK    2  A    between atoms: C_2  and  O_3
REMARK    3  A    between atoms: O_3  and  C_4
REMARK    4  A    between atoms: C_6  and  C_7
REMARK    5  A    between atoms: C_17  and  C_18
REMARK    6  A    between atoms: C_21  and  O_22
REMARK    7  A    between atoms: O_22  and  C_23
REMARK    8  A    between atoms: C_30  and  O_31
REMARK                            x       y       z     vdW  Elec       q    Type
REMARK                         _______ _______ _______ _____ _____    ______ ____
ROOT
ATOM      1  C   UNL     1      -0.001  10.178  19.528  0.00  0.00    +0.000 C 
ATOM      2  C   UNL     1      -0.351   9.756  20.966  0.00  0.00    +0.000 C 
ATOM      3  C   UNL     1      -0.467  10.930  21.905  0.00  0.00    +0.000 C 
ATOM      4  O   UNL     1      -1.229  10.950  22.867  0.00  0.00    +0.000 OA
ATOM      5  N   UNL     1       0.407  11.965  21.674  0.00  0.00    +0.000 N 
ATOM      6  C   UNL     1       1.213  12.102  20.563  0.00  0.00    +0.000 C 
ATOM      7  C   UNL     1       1.043  11.274  19.522  0.00  0.00    +0.000 C 
ATOM      8  C   UNL     1       1.912  11.393  18.326  0.00  0.00    +0.000 C 
ATOM      9  O   UNL     1       1.836  10.542  17.436  0.00  0.00    +0.000 OA
ATOM     10  C   UNL     1       2.925  12.506  18.217  0.00  0.00    +0.000 C 
ATOM     11  C   UNL     1       2.916  13.581  19.307  0.00  0.00    +0.000 C 
ATOM     12  C   UNL     1       2.215  13.216  20.624  0.00  0.00    +0.000 C 
ATOM     13  H   UNL     1       0.406  12.685  22.390  0.00  0.00    +0.000 HD
ENDROOT
BRANCH   1  16
ATOM     14  C   UNL     1      -3.398  11.770  18.620  0.00  0.00    +0.000 A 
ATOM     15  C   UNL     1      -2.250  11.372  19.329  0.00  0.00    +0.000 A 
ATOM     16  C   UNL     1      -1.248  10.574  18.738  0.00  0.00    +0.000 A 
ATOM     17  C   UNL     1      -1.437  10.149  17.417  0.00  0.00    +0.000 A 
ATOM     18  C   UNL     1      -2.570  10.532  16.707  0.00  0.00    +0.000 A 
ATOM     19 CL   UNL     1      -2.746   9.990  15.076  0.00  0.00    +0.000 Cl
ATOM     20  C   UNL     1      -3.550  11.342  17.295  0.00  0.00    +0.000 A 
BRANCH  20  21
ATOM     21  O   UNL     1      -4.638  11.694  16.541  0.00  0.00    +0.000 OA
ATOM     22  H   UNL     1      -4.759  12.658  16.633  0.00  0.00    +0.000 HD
ENDBRANCH  20  21
BRANCH  14  23
ATOM     23  O   UNL     1      -4.253  12.564  19.347  0.00  0.00    +0.000 OA
BRANCH  23  25
ATOM     24  C   UNL     1      -5.158  12.949  21.550  0.00  0.00    +0.000 C 
ATOM     25  C   UNL     1      -3.904  12.830  20.705  0.00  0.00    +0.000 C 
ENDBRANCH  23  25
ENDBRANCH  14  23
ENDBRANCH   1  16
BRANCH  11  26
ATOM     26  C   UNL     1       2.438  14.926  18.784  0.00  0.00    +0.000 A 
ATOM     27  C   UNL     1       1.246  15.513  19.232  0.00  0.00    +0.000 A 
ATOM     28  C   UNL     1       0.838  16.752  18.729  0.00  0.00    +0.000 A 
ATOM     29  C   UNL     1       1.619  17.436  17.795  0.00  0.00    +0.000 A 
ATOM     30  C   UNL     1       2.801  16.860  17.339  0.00  0.00    +0.000 A 
ATOM     31  C   UNL     1       3.208  15.616  17.833  0.00  0.00    +0.000 A 
BRANCH  29  32
ATOM     32  O   UNL     1       1.108  18.631  17.369  0.00  0.00    +0.000 OA
ATOM     33  C   UNL     1       0.384  18.590  16.144  0.00  0.00    +0.000 C 
ENDBRANCH  29  32
ENDBRANCH  11  26
TORSDOF 6
ENDMDL
MODEL 5
REMARK VINA RESULT:      -6.7      0.692      1.081
REMARK  Name = 
REMARK  8 active torsions:
REMARK  status: ('A' for Active; 'I' for Inactive)
REMARK    1  A    between atoms: C_1  and  C_2
REMARK    2  A    between atoms: C_2  and  O_3
REMARK    3  A    between atoms: O_3  and  C_4
REMARK    4  A    between atoms: C_6  and  C_7
REMARK    5  A    between atoms: C_17  and  C_18
REMARK    6  A    between atoms: C_21  and  O_22
REMARK    7  A    between atoms: O_22  and  C_23
REMARK    8  A    between atoms: C_30  and  O_31
REMARK                            x       y       z     vdW  Elec       q    Type
REMARK                         _______ _______ _______ _____ _____    ______ ____
ROOT
ATOM      1  C   UNL     1      -6.555  12.135  18.160  0.00  0.00    +0.000 C 
ATOM      2  C   UNL     1      -7.152  13.032  17.062  0.00  0.00    +0.000 C 
ATOM      3  C   UNL     1      -6.803  14.488  17.247  0.00  0.00    +0.000 C 
ATOM      4  O   UNL     1      -6.657  15.269  16.311  0.00  0.00    +0.000 OA
ATOM      5  N   UNL     1      -6.740  14.924  18.549  0.00  0.00    +0.000 N 
ATOM      6  C   UNL     1      -6.765  14.118  19.667  0.00  0.00    +0.000 C 
ATOM      7  C   UNL     1      -6.673  12.789  19.520  0.00  0.00    +0.000 C 
ATOM      8  C   UNL     1      -6.717  11.903  20.710  0.00  0.00    +0.000 C 
ATOM      9  O   UNL     1      -6.768  10.680  20.553  0.00  0.00    +0.000 OA
ATOM     10  C   UNL     1      -6.760  12.484  22.102  0.00  0.00    +0.000 C 
ATOM     11  C   UNL     1      -6.606  14.001  22.241  0.00  0.00    +0.000 C 
ATOM     12  C   UNL     1      -6.871  14.836  20.979  0.00  0.00    +0.000 C 
ATOM     13  H   UNL     1      -6.634  15.929  18.651  0.00  0.00    +0.000 HD
ENDROOT
BRANCH   1  16
ATOM     14  C   UNL     1      -2.771  11.489  18.560  0.00  0.00    +0.000 A 
ATOM     15  C   UNL     1      -4.102  11.865  18.817  0.00  0.00    +0.000 A 
ATOM     16  C   UNL     1      -5.113  11.738  17.842  0.00  0.00    +0.000 A 
ATOM     17  C   UNL     1      -4.755  11.253  16.578  0.00  0.00    +0.000 A 
ATOM     18  C   UNL     1      -3.442  10.881  16.311  0.00  0.00    +0.000 A 
ATOM     19 CL   UNL     1      -3.056  10.276  14.739  0.00  0.00    +0.000 Cl
ATOM     20  C   UNL     1      -2.448  10.991  17.291  0.00  0.00    +0.000 A 
BRANCH  20  21
ATOM     21  O   UNL     1      -1.174  10.600  16.971  0.00  0.00    +0.000 OA
ATOM     22  H   UNL     1      -0.922  11.063  16.151  0.00  0.00    +0.000 HD
ENDBRANCH  20  21
BRANCH  14  23
ATOM     23  O   UNL     1      -1.928  11.660  19.633  0.00  0.00    +0.000 OA
BRANCH  23  25
ATOM     24  C   UNL     1      -1.777  13.740  20.845  0.00  0.00    +0.000 C 
ATOM     25  C   UNL     1      -1.217  12.895  19.716  0.00  0.00    +0.000 C 
ENDBRANCH  23  25
ENDBRANCH  14  23
ENDBRANCH   1  16
BRANCH  11  26
ATOM     26  C   UNL     1      -5.286  14.389  22.889  0.00  0.00    +0.000 A 
ATOM     27  C   UNL     1      -4.738  15.670  22.743  0.00  0.00    +0.000 A 
ATOM     28  C   UNL     1      -3.522  15.991  23.353  0.00  0.00    +0.000 A 
ATOM     29  C   UNL     1      -2.846  15.053  24.137  0.00  0.00    +0.000 A 
ATOM     30  C   UNL     1      -3.378  13.775  24.284  0.00  0.00    +0.000 A 
ATOM     31  C   UNL     1      -4.590  13.448  23.667  0.00  0.00    +0.000 A 
BRANCH  29  32
ATOM     32  O   UNL     1      -1.662  15.480  24.670  0.00  0.00    +0.000 OA
ATOM     33  C   UNL     1      -1.655  15.677  26.079  0.00  0.00    +0.000 C 
ENDBRANCH  29  32
ENDBRANCH  11  26
TORSDOF 6
ENDMDL
MODEL 6
REMARK VINA RESULT:      -6.6      4.064      7.578
REMARK  Name = 
REMARK  8 active torsions:
REMARK  status: ('A' for Active; 'I' for Inactive)
REMARK    1  A    between atoms: C_1  and  C_2
REMARK    2  A    between atoms: C_2  and  O_3
REMARK    3  A    between atoms: O_3  and  C_4
REMARK    4  A    between atoms: C_6  and  C_7
REMARK    5  A    between atoms: C_17  and  C_18
REMARK    6  A    between atoms: C_21  and  O_22
REMARK    7  A    between atoms: O_22  and  C_23
REMARK    8  A    between atoms: C_30  and  O_31
REMARK                            x       y       z     vdW  Elec       q    Type
REMARK                         _______ _______ _______ _____ _____    ______ ____
ROOT
ATOM      1  C   UNL     1      -0.062  10.231  19.563  0.00  0.00    +0.000 C 
ATOM      2  C   UNL     1      -0.414   9.840  21.008  0.00  0.00    +0.000 C 
ATOM      3  C   UNL     1      -0.504  11.031  21.928  0.00  0.00    +0.000 C 
ATOM      4  O   UNL     1      -1.262  11.080  22.893  0.00  0.00    +0.000 OA
ATOM      5  N   UNL     1       0.387  12.046  21.677  0.00  0.00    +0.000 N 
ATOM      6  C   UNL     1       1.191  12.149  20.562  0.00  0.00    +0.000 C 
ATOM      7  C   UNL     1       1.002  11.308  19.535  0.00  0.00    +0.000 C 
ATOM      8  C   UNL     1       1.869  11.391  18.334  0.00  0.00    +0.000 C 
ATOM      9  O   UNL     1       1.773  10.528  17.458  0.00  0.00    +0.000 OA
ATOM     10  C   UNL     1       2.901  12.484  18.203  0.00  0.00    +0.000 C 
ATOM     11  C   UNL     1       2.915  13.577  19.275  0.00  0.00    +0.000 C 
ATOM     12  C   UNL     1       2.213  13.247  20.600  0.00  0.00    +0.000 C 
ATOM     13  H   UNL     1       0.402  12.778  22.382  0.00  0.00    +0.000 HD
ENDROOT
BRANCH   1  16
ATOM     14  C   UNL     1      -3.426  11.880  18.636  0.00  0.00    +0.000 A 
ATOM     15  C   UNL     1      -2.283  11.474  19.347  0.00  0.00    +0.000 A 
ATOM     16  C   UNL     1      -1.304  10.637  18.770  0.00  0.00    +0.000 A 
ATOM     17  C   UNL     1      -1.512  10.182  17.462  0.00  0.00    +0.000 A 
ATOM     18  C   UNL     1      -2.641  10.575  16.750  0.00  0.00    +0.000 A 
ATOM     19 CL   UNL     1      -2.842   9.995  15.135  0.00  0.00    +0.000 Cl
ATOM     20  C   UNL     1      -3.597  11.422  17.324  0.00  0.00    +0.000 A 
BRANCH  20  21
ATOM     21  O   UNL     1      -4.683  11.781  16.568  0.00  0.00    +0.000 OA
ATOM     22  H   UNL     1      -4.347  12.207  15.757  0.00  0.00    +0.000 HD
ENDBRANCH  20  21
BRANCH  14  23
ATOM     23  O   UNL     1      -4.257  12.713  19.348  0.00  0.00    +0.000 OA
BRANCH  23  25
ATOM     24  C   UNL     1      -6.659  12.880  19.492  0.00  0.00    +0.000 C 
ATOM     25  C   UNL     1      -5.418  12.130  19.939  0.00  0.00    +0.000 C 
ENDBRANCH  23  25
ENDBRANCH  14  23
ENDBRANCH   1  16
BRANCH  11  26
ATOM     26  C   UNL     1       2.460  14.922  18.732  0.00  0.00    +0.000 A 
ATOM     27  C   UNL     1       3.236  15.655  17.824  0.00  0.00    +0.000 A 
ATOM     28  C   UNL     1       2.785  16.889  17.346  0.00  0.00    +0.000 A 
ATOM     29  C   UNL     1       1.547  17.399  17.742  0.00  0.00    +0.000 A 
ATOM     30  C   UNL     1       0.770  16.682  18.648  0.00  0.00    +0.000 A 
ATOM     31  C   UNL     1       1.222  15.452  19.136  0.00  0.00    +0.000 A 
BRANCH  29  32
ATOM     32  O   UNL     1       1.223  18.620  17.218  0.00  0.00    +0.000 OA
ATOM     33  C   UNL     1       0.347  18.595  16.096  0.00  0.00    +0.000 C 
ENDBRANCH  29  32
ENDBRANCH  11  26
TORSDOF 6
ENDMDL
MODEL 7
REMARK VINA RESULT:      -6.6      4.329      7.896
REMARK  Name = 
REMARK  8 active torsions:
REMARK  status: ('A' for Active; 'I' for Inactive)
REMARK    1  A    between atoms: C_1  and  C_2
REMARK    2  A    between atoms: C_2  and  O_3
REMARK    3  A    between atoms: O_3  and  C_4
REMARK    4  A    between atoms: C_6  and  C_7
REMARK    5  A    between atoms: C_17  and  C_18
REMARK    6  A    between atoms: C_21  and  O_22
REMARK    7  A    between atoms: O_22  and  C_23
REMARK    8  A    between atoms: C_30  and  O_31
REMARK                            x       y       z     vdW  Elec       q    Type
REMARK                         _______ _______ _______ _____ _____    ______ ____
ROOT
ATOM      1  C   UNL     1      -0.107  10.241  19.731  0.00  0.00    +0.000 C 
ATOM      2  C   UNL     1      -0.326   9.856  21.204  0.00  0.00    +0.000 C 
ATOM      3  C   UNL     1      -0.297  11.047  22.128  0.00  0.00    +0.000 C 
ATOM      4  O   UNL     1      -0.956  11.113  23.161  0.00  0.00    +0.000 OA
ATOM      5  N   UNL     1       0.591  12.040  21.791  0.00  0.00    +0.000 N 
ATOM      6  C   UNL     1       1.285  12.126  20.603  0.00  0.00    +0.000 C 
ATOM      7  C   UNL     1       0.975  11.292  19.600  0.00  0.00    +0.000 C 
ATOM      8  C   UNL     1       1.723  11.356  18.320  0.00  0.00    +0.000 C 
ATOM      9  O   UNL     1       1.522  10.497  17.457  0.00  0.00    +0.000 OA
ATOM     10  C   UNL     1       2.764  12.423  18.088  0.00  0.00    +0.000 C 
ATOM     11  C   UNL     1       2.911  13.513  19.154  0.00  0.00    +0.000 C 
ATOM     12  C   UNL     1       2.333  13.198  20.541  0.00  0.00    +0.000 C 
ATOM     13  H   UNL     1       0.692  12.770  22.490  0.00  0.00    +0.000 HD
ENDROOT
BRANCH   1  16
ATOM     14  C   UNL     1      -3.031  10.462  17.221  0.00  0.00    +0.000 A 
ATOM     15  C   UNL     1      -1.827  10.094  17.849  0.00  0.00    +0.000 A 
ATOM     16  C   UNL     1      -1.410  10.680  19.063  0.00  0.00    +0.000 A 
ATOM     17  C   UNL     1      -2.215  11.678  19.625  0.00  0.00    +0.000 A 
ATOM     18  C   UNL     1      -3.406  12.053  19.012  0.00  0.00    +0.000 A 
ATOM     19 CL   UNL     1      -4.369  13.280  19.755  0.00  0.00    +0.000 Cl
ATOM     20  C   UNL     1      -3.823  11.452  17.818  0.00  0.00    +0.000 A 
BRANCH  20  21
ATOM     21  O   UNL     1      -5.010  11.857  17.267  0.00  0.00    +0.000 OA
ATOM     22  H   UNL     1      -5.686  11.197  17.510  0.00  0.00    +0.000 HD
ENDBRANCH  20  21
BRANCH  14  23
ATOM     23  O   UNL     1      -3.286   9.771  16.061  0.00  0.00    +0.000 OA
BRANCH  23  25
ATOM     24  C   UNL     1      -3.852   9.970  13.725  0.00  0.00    +0.000 C 
ATOM     25  C   UNL     1      -2.905  10.389  14.833  0.00  0.00    +0.000 C 
ENDBRANCH  23  25
ENDBRANCH  14  23
ENDBRANCH   1  16
BRANCH  11  26
ATOM     26  C   UNL     1       2.438  14.870  18.657  0.00  0.00    +0.000 A 
ATOM     27  C   UNL     1       1.218  15.425  19.069  0.00  0.00    +0.000 A 
ATOM     28  C   UNL     1       0.816  16.676  18.592  0.00  0.00    +0.000 A 
ATOM     29  C   UNL     1       1.629  17.403  17.720  0.00  0.00    +0.000 A 
ATOM     30  C   UNL     1       2.840  16.859  17.299  0.00  0.00    +0.000 A 
ATOM     31  C   UNL     1       3.241  15.603  17.768  0.00  0.00    +0.000 A 
BRANCH  29  32
ATOM     32  O   UNL     1       1.122  18.606  17.313  0.00  0.00    +0.000 OA
ATOM     33  C   UNL     1      -0.092  18.544  16.573  0.00  0.00    +0.000 C 
ENDBRANCH  29  32
ENDBRANCH  11  26
TORSDOF 6
ENDMDL
MODEL 8
REMARK VINA RESULT:      -6.5      2.613      5.264
REMARK  Name = 
REMARK  8 active torsions:
REMARK  status: ('A' for Active; 'I' for Inactive)
REMARK    1  A    between atoms: C_1  and  C_2
REMARK    2  A    between atoms: C_2  and  O_3
REMARK    3  A    between atoms: O_3  and  C_4
REMARK    4  A    between atoms: C_6  and  C_7
REMARK    5  A    between atoms: C_17  and  C_18
REMARK    6  A    between atoms: C_21  and  O_22
REMARK    7  A    between atoms: O_22  and  C_23
REMARK    8  A    between atoms: C_30  and  O_31
REMARK                            x       y       z     vdW  Elec       q    Type
REMARK                         _______ _______ _______ _____ _____    ______ ____
ROOT
ATOM      1  C   UNL     1      -0.420  11.697  19.404  0.00  0.00    +0.000 C 
ATOM      2  C   UNL     1       0.227  10.363  19.812  0.00  0.00    +0.000 C 
ATOM      3  C   UNL     1      -0.383   9.779  21.061  0.00  0.00    +0.000 C 
ATOM      4  O   UNL     1      -0.467   8.571  21.268  0.00  0.00    +0.000 OA
ATOM      5  N   UNL     1      -0.770  10.688  22.016  0.00  0.00    +0.000 N 
ATOM      6  C   UNL     1      -0.834  12.054  21.843  0.00  0.00    +0.000 C 
ATOM      7  C   UNL     1      -0.679  12.569  20.615  0.00  0.00    +0.000 C 
ATOM      8  C   UNL     1      -0.726  14.038  20.411  0.00  0.00    +0.000 C 
ATOM      9  O   UNL     1      -0.448  14.504  19.303  0.00  0.00    +0.000 OA
ATOM     10  C   UNL     1      -1.052  14.964  21.556  0.00  0.00    +0.000 C 
ATOM     11  C   UNL     1      -1.475  14.329  22.884  0.00  0.00    +0.000 C 
ATOM     12  C   UNL     1      -1.106  12.851  23.084  0.00  0.00    +0.000 C 
ATOM     13  H   UNL     1      -1.055  10.275  22.900  0.00  0.00    +0.000 HD
ENDROOT
BRANCH   1  16
ATOM     14  C   UNL     1      -4.129  11.697  18.335  0.00  0.00    +0.000 A 
ATOM     15  C   UNL     1      -2.948  11.866  19.080  0.00  0.00    +0.000 A 
ATOM     16  C   UNL     1      -1.688  11.481  18.577  0.00  0.00    +0.000 A 
ATOM     17  C   UNL     1      -1.636  10.885  17.311  0.00  0.00    +0.000 A 
ATOM     18  C   UNL     1      -2.797  10.710  16.565  0.00  0.00    +0.000 A 
ATOM     19 CL   UNL     1      -2.676   9.982  15.003  0.00  0.00    +0.000 Cl
ATOM     20  C   UNL     1      -4.042  11.114  17.064  0.00  0.00    +0.000 A 
BRANCH  20  21
ATOM     21  O   UNL     1      -5.149  10.924  16.279  0.00  0.00    +0.000 OA
ATOM     22  H   UNL     1      -5.222  11.694  15.684  0.00  0.00    +0.000 HD
ENDBRANCH  20  21
BRANCH  14  23
ATOM     23  O   UNL     1      -5.259  12.151  18.973  0.00  0.00    +0.000 OA
BRANCH  23  25
ATOM     24  C   UNL     1      -6.368  13.827  20.308  0.00  0.00    +0.000 C 
ATOM     25  C   UNL     1      -5.078  13.071  20.049  0.00  0.00    +0.000 C 
ENDBRANCH  23  25
ENDBRANCH  14  23
ENDBRANCH   1  16
BRANCH  11  26
ATOM     26  C   UNL     1      -2.941  14.577  23.200  0.00  0.00    +0.000 A 
ATOM     27  C   UNL     1      -3.806  13.536  23.563  0.00  0.00    +0.000 A 
ATOM     28  C   UNL     1      -5.149  13.802  23.847  0.00  0.00    +0.000 A 
ATOM     29  C   UNL     1      -5.644  15.107  23.799  0.00  0.00    +0.000 A 
ATOM     30  C   UNL     1      -4.795  16.147  23.434  0.00  0.00    +0.000 A 
ATOM     31  C   UNL     1      -3.453  15.884  23.140  0.00  0.00    +0.000 A 
BRANCH  29  32
ATOM     32  O   UNL     1      -6.975  15.237  24.084  0.00  0.00    +0.000 OA
ATOM     33  C   UNL     1      -7.701  14.020  24.211  0.00  0.00    +0.000 C 
ENDBRANCH  29  32
ENDBRANCH  11  26
TORSDOF 6
ENDMDL
MODEL 9
REMARK VINA RESULT:      -6.4      3.453      7.810
REMARK  Name = 
REMARK  8 active torsions:
REMARK  status: ('A' for Active; 'I' for Inactive)
REMARK    1  A    between atoms: C_1  and  C_2
REMARK    2  A    between atoms: C_2  and  O_3
REMARK    3  A    between atoms: O_3  and  C_4
REMARK    4  A    between atoms: C_6  and  C_7
REMARK    5  A    between atoms: C_17  and  C_18
REMARK    6  A    between atoms: C_21  and  O_22
REMARK    7  A    between atoms: O_22  and  C_23
REMARK    8  A    between atoms: C_30  and  O_31
REMARK                            x       y       z     vdW  Elec       q    Type
REMARK                         _______ _______ _______ _____ _____    ______ ____
ROOT
ATOM      1  C   UNL     1      -1.203  13.815  23.480  0.00  0.00    +0.000 C 
ATOM      2  C   UNL     1      -0.457  15.159  23.522  0.00  0.00    +0.000 C 
ATOM      3  C   UNL     1      -0.270  15.764  22.154  0.00  0.00    +0.000 C 
ATOM      4  O   UNL     1      -0.240  16.975  21.952  0.00  0.00    +0.000 OA
ATOM      5  N   UNL     1      -0.042  14.872  21.135  0.00  0.00    +0.000 N 
ATOM      6  C   UNL     1      -0.173  13.502  21.224  0.00  0.00    +0.000 C 
ATOM      7  C   UNL     1      -0.727  12.965  22.320  0.00  0.00    +0.000 C 
ATOM      8  C   UNL     1      -0.859  11.492  22.443  0.00  0.00    +0.000 C 
ATOM      9  O   UNL     1      -1.243  11.006  23.511  0.00  0.00    +0.000 OA
ATOM     10  C   UNL     1      -0.474  10.586  21.301  0.00  0.00    +0.000 C 
ATOM     11  C   UNL     1      -0.089  11.245  19.973  0.00  0.00    +0.000 C 
ATOM     12  C   UNL     1       0.308  12.727  20.033  0.00  0.00    +0.000 C 
ATOM     13  H   UNL     1       0.211  15.299  20.249  0.00  0.00    +0.000 HD
ENDROOT
BRANCH   1  16
ATOM     14  C   UNL     1      -4.958  13.185  22.851  0.00  0.00    +0.000 A 
ATOM     15  C   UNL     1      -3.559  13.042  22.869  0.00  0.00    +0.000 A 
ATOM     16  C   UNL     1      -2.719  14.011  23.457  0.00  0.00    +0.000 A 
ATOM     17  C   UNL     1      -3.311  15.156  24.002  0.00  0.00    +0.000 A 
ATOM     18  C   UNL     1      -4.694  15.311  23.986  0.00  0.00    +0.000 A 
ATOM     19 CL   UNL     1      -5.375  16.737  24.685  0.00  0.00    +0.000 Cl
ATOM     20  C   UNL     1      -5.523  14.335  23.419  0.00  0.00    +0.000 A 
BRANCH  20  21
ATOM     21  O   UNL     1      -6.877  14.539  23.443  0.00  0.00    +0.000 OA
ATOM     22  H   UNL     1      -7.262  13.886  24.057  0.00  0.00    +0.000 HD
ENDBRANCH  20  21
BRANCH  14  23
ATOM     23  O   UNL     1      -5.617  12.134  22.259  0.00  0.00    +0.000 OA
BRANCH  23  25
ATOM     24  C   UNL     1      -7.359  11.304  20.811  0.00  0.00    +0.000 C 
ATOM     25  C   UNL     1      -6.353  12.410  21.067  0.00  0.00    +0.000 C 
ENDBRANCH  23  25
ENDBRANCH  14  23
ENDBRANCH   1  16
BRANCH  11  26
ATOM     26  C   UNL     1      -1.122  10.996  18.886  0.00  0.00    +0.000 A 
ATOM     27  C   UNL     1      -0.894  10.089  17.841  0.00  0.00    +0.000 A 
ATOM     28  C   UNL     1      -1.867   9.886  16.859  0.00  0.00    +0.000 A 
ATOM     29  C   UNL     1      -3.088  10.562  16.913  0.00  0.00    +0.000 A 
ATOM     30  C   UNL     1      -3.323  11.469  17.942  0.00  0.00    +0.000 A 
ATOM     31  C   UNL     1      -2.348  11.682  18.922  0.00  0.00    +0.000 A 
BRANCH  29  32
ATOM     32  O   UNL     1      -3.953  10.290  15.889  0.00  0.00    +0.000 OA
ATOM     33  C   UNL     1      -3.384  10.294  14.584  0.00  0.00    +0.000 C 
ENDBRANCH  29  32
ENDBRANCH  11  26
TORSDOF 6
ENDMDL
