MODEL 1
REMARK VINA RESULT:      -6.5      0.000      0.000
REMARK  Name = 
REMARK  4 active torsions:
REMARK  status: ('A' for Active; 'I' for Inactive)
REMARK    1  A    between atoms: N_1  and  C_2
REMARK    2  A    between atoms: C_2  and  C_3
REMARK    3  A    between atoms: C_3  and  N_4
REMARK    4  A    between atoms: C_3  and  C_5
REMARK                            x       y       z     vdW  Elec       q    Type
REMARK                         _______ _______ _______ _____ _____    ______ ____
ROOT
ATOM      1  C   UNL     1       4.427   4.057  18.722  0.00  0.00    +0.000 C 
ATOM      2  C   UNL     1       3.895   3.611  17.323  0.00  0.00    +0.000 C 
ATOM      3  C   UNL     1       2.389   3.284  17.358  0.00  0.00    +0.000 C 
ATOM      4  C   UNL     1       2.123   2.163  18.372  0.00  0.00    +0.000 C 
ATOM      5  C   UNL     1       2.575   2.613  19.764  0.00  0.00    +0.000 C 
ATOM      6  C   UNL     1       1.835   3.894  20.179  0.00  0.00    +0.000 C 
ATOM      7  C   UNL     1       2.106   5.014  19.164  0.00  0.00    +0.000 C 
ATOM      8  C   UNL     1       1.623   4.546  17.779  0.00  0.00    +0.000 C 
ATOM      9  C   UNL     1       3.620   5.315  19.125  0.00  0.00    +0.000 C 
ATOM     10  C   UNL     1       4.080   2.899  19.720  0.00  0.00    +0.000 C 
ENDROOT
BRANCH   1  11
ATOM     11  C   UNL     1       5.983   4.305  18.709  0.00  0.00    +0.000 C 
BRANCH  11  12
ATOM     12  N   UNL     1       6.434   5.308  19.695  0.00  0.00    +0.000 NA
ATOM     13  H   UNL     1       5.666   5.675  20.244  0.00  0.00    +0.000 HD
ATOM     14  H   UNL     1       7.095   4.870  20.337  0.00  0.00    +0.000 HD
ENDBRANCH  11  12
BRANCH  11  15
ATOM     15  C   UNL     1       6.662   4.768  17.385  0.00  0.00    +0.000 C 
BRANCH  15  16
ATOM     16  N   UNL     1       7.971   4.209  17.041  0.00  0.00    +0.000 NA
ATOM     17  H   UNL     1       7.950   3.991  16.045  0.00  0.00    +0.000 HD
ATOM     18  H   UNL     1       8.695   4.899  17.190  0.00  0.00    +0.000 HD
ENDBRANCH  15  16
ENDBRANCH  11  15
ENDBRANCH   1  11
TORSDOF 4
ENDMDL
MODEL 2
REMARK VINA RESULT:      -6.5      2.297      4.417
REMARK  Name = 
REMARK  4 active torsions:
REMARK  status: ('A' for Active; 'I' for Inactive)
REMARK    1  A    between atoms: N_1  and  C_2
REMARK    2  A    between atoms: C_2  and  C_3
REMARK    3  A    between atoms: C_3  and  N_4
REMARK    4  A    between atoms: C_3  and  C_5
REMARK                            x       y       z     vdW  Elec       q    Type
REMARK                         _______ _______ _______ _____ _____    ______ ____
ROOT
ATOM      1  C   UNL     1       5.009   4.466  17.828  0.00  0.00    +0.000 C 
ATOM      2  C   UNL     1       6.545   4.467  18.107  0.00  0.00    +0.000 C 
ATOM      3  C   UNL     1       7.299   5.430  17.169  0.00  0.00    +0.000 C 
ATOM      4  C   UNL     1       7.060   5.026  15.708  0.00  0.00    +0.000 C 
ATOM      5  C   UNL     1       5.562   5.087  15.397  0.00  0.00    +0.000 C 
ATOM      6  C   UNL     1       5.020   6.502  15.656  0.00  0.00    +0.000 C 
ATOM      7  C   UNL     1       5.259   6.901  17.119  0.00  0.00    +0.000 C 
ATOM      8  C   UNL     1       6.771   6.853  17.398  0.00  0.00    +0.000 C 
ATOM      9  C   UNL     1       4.514   5.916  18.046  0.00  0.00    +0.000 C 
ATOM     10  C   UNL     1       4.832   4.099  16.314  0.00  0.00    +0.000 C 
ENDROOT
BRANCH   1  11
ATOM     11  C   UNL     1       4.248   3.417  18.725  0.00  0.00    +0.000 C 
BRANCH  11  12
ATOM     12  N   UNL     1       5.113   2.735  19.707  0.00  0.00    +0.000 NA
ATOM     13  H   UNL     1       5.795   2.132  19.260  0.00  0.00    +0.000 HD
ATOM     14  H   UNL     1       5.622   3.435  20.247  0.00  0.00    +0.000 HD
ENDBRANCH  11  12
BRANCH  11  15
ATOM     15  C   UNL     1       3.488   2.244  18.035  0.00  0.00    +0.000 C 
BRANCH  15  16
ATOM     16  N   UNL     1       3.941   0.876  18.289  0.00  0.00    +0.000 NA
ATOM     17  H   UNL     1       4.311   0.516  17.408  0.00  0.00    +0.000 HD
ATOM     18  H   UNL     1       4.695   0.877  18.962  0.00  0.00    +0.000 HD
ENDBRANCH  15  16
ENDBRANCH  11  15
ENDBRANCH   1  11
TORSDOF 4
ENDMDL
MODEL 3
REMARK VINA RESULT:      -6.4      2.283      4.496
REMARK  Name = 
REMARK  4 active torsions:
REMARK  status: ('A' for Active; 'I' for Inactive)
REMARK    1  A    between atoms: N_1  and  C_2
REMARK    2  A    between atoms: C_2  and  C_3
REMARK    3  A    between atoms: C_3  and  N_4
REMARK    4  A    between atoms: C_3  and  C_5
REMARK                            x       y       z     vdW  Elec       q    Type
REMARK                         _______ _______ _______ _____ _____    ______ ____
ROOT
ATOM      1  C   UNL     1       4.967   4.403  17.793  0.00  0.00    +0.000 C 
ATOM      2  C   UNL     1       4.428   5.860  17.948  0.00  0.00    +0.000 C 
ATOM      3  C   UNL     1       5.216   6.860  17.079  0.00  0.00    +0.000 C 
ATOM      4  C   UNL     1       6.700   6.833  17.470  0.00  0.00    +0.000 C 
ATOM      5  C   UNL     1       7.262   5.425  17.257  0.00  0.00    +0.000 C 
ATOM      6  C   UNL     1       7.090   4.997  15.791  0.00  0.00    +0.000 C 
ATOM      7  C   UNL     1       5.604   5.022  15.404  0.00  0.00    +0.000 C 
ATOM      8  C   UNL     1       5.070   6.451  15.606  0.00  0.00    +0.000 C 
ATOM      9  C   UNL     1       4.826   4.032  16.297  0.00  0.00    +0.000 C 
ATOM     10  C   UNL     1       6.491   4.451  18.155  0.00  0.00    +0.000 C 
ENDROOT
BRANCH   1  11
ATOM     11  C   UNL     1       4.222   3.395  18.748  0.00  0.00    +0.000 C 
BRANCH  11  12
ATOM     12  N   UNL     1       5.109   2.732  19.724  0.00  0.00    +0.000 NA
ATOM     13  H   UNL     1       5.645   1.981  19.304  0.00  0.00    +0.000 HD
ATOM     14  H   UNL     1       5.769   3.417  20.094  0.00  0.00    +0.000 HD
ENDBRANCH  11  12
BRANCH  11  15
ATOM     15  C   UNL     1       3.425   2.211  18.121  0.00  0.00    +0.000 C 
BRANCH  15  16
ATOM     16  N   UNL     1       3.947   0.853  18.288  0.00  0.00    +0.000 NA
ATOM     17  H   UNL     1       3.742   0.347  17.427  0.00  0.00    +0.000 HD
ATOM     18  H   UNL     1       4.952   0.877  18.400  0.00  0.00    +0.000 HD
ENDBRANCH  15  16
ENDBRANCH  11  15
ENDBRANCH   1  11
TORSDOF 4
ENDMDL
MODEL 4
REMARK VINA RESULT:      -6.4      0.275      2.077
REMARK  Name = 
REMARK  4 active torsions:
REMARK  status: ('A' for Active; 'I' for Inactive)
REMARK    1  A    between atoms: N_1  and  C_2
REMARK    2  A    between atoms: C_2  and  C_3
REMARK    3  A    between atoms: C_3  and  N_4
REMARK    4  A    between atoms: C_3  and  C_5
REMARK                            x       y       z     vdW  Elec       q    Type
REMARK                         _______ _______ _______ _____ _____    ______ ____
ROOT
ATOM      1  C   UNL     1       4.582   4.078  18.670  0.00  0.00    +0.000 C 
ATOM      2  C   UNL     1       3.725   5.262  19.220  0.00  0.00    +0.000 C 
ATOM      3  C   UNL     1       2.220   4.928  19.227  0.00  0.00    +0.000 C 
ATOM      4  C   UNL     1       1.754   4.595  17.803  0.00  0.00    +0.000 C 
ATOM      5  C   UNL     1       2.537   3.390  17.275  0.00  0.00    +0.000 C 
ATOM      6  C   UNL     1       2.339   2.177  18.198  0.00  0.00    +0.000 C 
ATOM      7  C   UNL     1       2.809   2.513  19.621  0.00  0.00    +0.000 C 
ATOM      8  C   UNL     1       1.992   3.711  20.136  0.00  0.00    +0.000 C 
ATOM      9  C   UNL     1       4.312   2.865  19.594  0.00  0.00    +0.000 C 
ATOM     10  C   UNL     1       4.026   3.752  17.241  0.00  0.00    +0.000 C 
ENDROOT
BRANCH   1  11
ATOM     11  C   UNL     1       6.110   4.449  18.578  0.00  0.00    +0.000 C 
BRANCH  11  12
ATOM     12  N   UNL     1       6.573   5.339  19.662  0.00  0.00    +0.000 NA
ATOM     13  H   UNL     1       7.581   5.447  19.662  0.00  0.00    +0.000 HD
ATOM     14  H   UNL     1       6.160   6.263  19.534  0.00  0.00    +0.000 HD
ENDBRANCH  11  12
BRANCH  11  15
ATOM     15  C   UNL     1       6.642   5.144  17.288  0.00  0.00    +0.000 C 
BRANCH  15  16
ATOM     16  N   UNL     1       7.765   4.529  16.578  0.00  0.00    +0.000 NA
ATOM     17  H   UNL     1       7.411   3.679  16.139  0.00  0.00    +0.000 HD
ATOM     18  H   UNL     1       8.091   5.143  15.843  0.00  0.00    +0.000 HD
ENDBRANCH  15  16
ENDBRANCH  11  15
ENDBRANCH   1  11
TORSDOF 4
ENDMDL
MODEL 5
REMARK VINA RESULT:      -6.4      1.116      1.394
REMARK  Name = 
REMARK  4 active torsions:
REMARK  status: ('A' for Active; 'I' for Inactive)
REMARK    1  A    between atoms: N_1  and  C_2
REMARK    2  A    between atoms: C_2  and  C_3
REMARK    3  A    between atoms: C_3  and  N_4
REMARK    4  A    between atoms: C_3  and  C_5
REMARK                            x       y       z     vdW  Elec       q    Type
REMARK                         _______ _______ _______ _____ _____    ______ ____
ROOT
ATOM      1  C   UNL     1       4.378   4.333  17.807  0.00  0.00    +0.000 C 
ATOM      2  C   UNL     1       3.572   3.259  17.010  0.00  0.00    +0.000 C 
ATOM      3  C   UNL     1       2.296   2.826  17.758  0.00  0.00    +0.000 C 
ATOM      4  C   UNL     1       2.667   2.251  19.132  0.00  0.00    +0.000 C 
ATOM      5  C   UNL     1       3.398   3.317  19.953  0.00  0.00    +0.000 C 
ATOM      6  C   UNL     1       2.515   4.564  20.117  0.00  0.00    +0.000 C 
ATOM      7  C   UNL     1       2.147   5.138  18.741  0.00  0.00    +0.000 C 
ATOM      8  C   UNL     1       1.396   4.056  17.945  0.00  0.00    +0.000 C 
ATOM      9  C   UNL     1       3.437   5.547  17.997  0.00  0.00    +0.000 C 
ATOM     10  C   UNL     1       4.681   3.710  19.212  0.00  0.00    +0.000 C 
ENDROOT
BRANCH   1  11
ATOM     11  C   UNL     1       5.728   4.711  17.086  0.00  0.00    +0.000 C 
BRANCH  11  12
ATOM     12  N   UNL     1       6.171   3.715  16.091  0.00  0.00    +0.000 NA
ATOM     13  H   UNL     1       6.074   2.765  16.433  0.00  0.00    +0.000 HD
ATOM     14  H   UNL     1       5.597   3.804  15.252  0.00  0.00    +0.000 HD
ENDBRANCH  11  12
BRANCH  11  15
ATOM     15  C   UNL     1       7.003   4.952  17.950  0.00  0.00    +0.000 C 
BRANCH  15  16
ATOM     16  N   UNL     1       8.179   4.116  17.703  0.00  0.00    +0.000 NA
ATOM     17  H   UNL     1       7.849   3.259  17.260  0.00  0.00    +0.000 HD
ATOM     18  H   UNL     1       8.804   4.577  17.055  0.00  0.00    +0.000 HD
ENDBRANCH  15  16
ENDBRANCH  11  15
ENDBRANCH   1  11
TORSDOF 4
ENDMDL
MODEL 6
REMARK VINA RESULT:      -6.4      0.378      2.009
REMARK  Name = 
REMARK  4 active torsions:
REMARK  status: ('A' for Active; 'I' for Inactive)
REMARK    1  A    between atoms: N_1  and  C_2
REMARK    2  A    between atoms: C_2  and  C_3
REMARK    3  A    between atoms: C_3  and  N_4
REMARK    4  A    between atoms: C_3  and  C_5
REMARK                            x       y       z     vdW  Elec       q    Type
REMARK                         _______ _______ _______ _____ _____    ______ ____
ROOT
ATOM      1  C   UNL     1       4.600   4.116  18.549  0.00  0.00    +0.000 C 
ATOM      2  C   UNL     1       4.365   2.910  19.513  0.00  0.00    +0.000 C 
ATOM      3  C   UNL     1       2.869   2.566  19.648  0.00  0.00    +0.000 C 
ATOM      4  C   UNL     1       2.099   3.784  20.177  0.00  0.00    +0.000 C 
ATOM      5  C   UNL     1       2.263   4.955  19.205  0.00  0.00    +0.000 C 
ATOM      6  C   UNL     1       1.752   4.567  17.808  0.00  0.00    +0.000 C 
ATOM      7  C   UNL     1       2.526   3.350  17.282  0.00  0.00    +0.000 C 
ATOM      8  C   UNL     1       2.327   2.182  18.264  0.00  0.00    +0.000 C 
ATOM      9  C   UNL     1       4.024   3.705  17.172  0.00  0.00    +0.000 C 
ATOM     10  C   UNL     1       3.751   5.308  19.111  0.00  0.00    +0.000 C 
ENDROOT
BRANCH   1  11
ATOM     11  C   UNL     1       6.120   4.527  18.480  0.00  0.00    +0.000 C 
BRANCH  11  12
ATOM     12  N   UNL     1       6.579   5.309  19.645  0.00  0.00    +0.000 NA
ATOM     13  H   UNL     1       7.402   4.903  20.076  0.00  0.00    +0.000 HD
ATOM     14  H   UNL     1       6.821   6.252  19.339  0.00  0.00    +0.000 HD
ENDBRANCH  11  12
BRANCH  11  15
ATOM     15  C   UNL     1       6.621   5.362  17.263  0.00  0.00    +0.000 C 
BRANCH  15  16
ATOM     16  N   UNL     1       7.589   4.751  16.350  0.00  0.00    +0.000 NA
ATOM     17  H   UNL     1       8.270   4.255  16.926  0.00  0.00    +0.000 HD
ATOM     18  H   UNL     1       7.130   4.069  15.760  0.00  0.00    +0.000 HD
ENDBRANCH  15  16
ENDBRANCH  11  15
ENDBRANCH   1  11
TORSDOF 4
ENDMDL
MODEL 7
REMARK VINA RESULT:      -6.3      1.148      2.202
REMARK  Name = 
REMARK  4 active torsions:
REMARK  status: ('A' for Active; 'I' for Inactive)
REMARK    1  A    between atoms: N_1  and  C_2
REMARK    2  A    between atoms: C_2  and  C_3
REMARK    3  A    between atoms: C_3  and  N_4
REMARK    4  A    between atoms: C_3  and  C_5
REMARK                            x       y       z     vdW  Elec       q    Type
REMARK                         _______ _______ _______ _____ _____    ______ ____
ROOT
ATOM      1  C   UNL     1       4.475   4.463  17.698  0.00  0.00    +0.000 C 
ATOM      2  C   UNL     1       3.584   5.739  17.829  0.00  0.00    +0.000 C 
ATOM      3  C   UNL     1       2.252   5.440  18.544  0.00  0.00    +0.000 C 
ATOM      4  C   UNL     1       1.475   4.367  17.769  0.00  0.00    +0.000 C 
ATOM      5  C   UNL     1       2.307   3.085  17.692  0.00  0.00    +0.000 C 
ATOM      6  C   UNL     1       2.645   2.582  19.105  0.00  0.00    +0.000 C 
ATOM      7  C   UNL     1       3.425   3.656  19.876  0.00  0.00    +0.000 C 
ATOM      8  C   UNL     1       2.559   4.925  19.958  0.00  0.00    +0.000 C 
ATOM      9  C   UNL     1       4.746   3.960  19.137  0.00  0.00    +0.000 C 
ATOM     10  C   UNL     1       3.612   3.393  16.948  0.00  0.00    +0.000 C 
ENDROOT
BRANCH   1  11
ATOM     11  C   UNL     1       5.797   4.748  16.890  0.00  0.00    +0.000 C 
BRANCH  11  12
ATOM     12  N   UNL     1       6.212   3.634  16.014  0.00  0.00    +0.000 NA
ATOM     13  H   UNL     1       7.181   3.714  15.729  0.00  0.00    +0.000 HD
ATOM     14  H   UNL     1       6.107   2.755  16.522  0.00  0.00    +0.000 HD
ENDBRANCH  11  12
BRANCH  11  15
ATOM     15  C   UNL     1       7.099   5.098  17.671  0.00  0.00    +0.000 C 
BRANCH  15  16
ATOM     16  N   UNL     1       8.180   4.111  17.702  0.00  0.00    +0.000 NA
ATOM     17  H   UNL     1       8.042   3.493  16.902  0.00  0.00    +0.000 HD
ATOM     18  H   UNL     1       9.075   4.569  17.587  0.00  0.00    +0.000 HD
ENDBRANCH  15  16
ENDBRANCH  11  15
ENDBRANCH   1  11
TORSDOF 4
ENDMDL
MODEL 8
REMARK VINA RESULT:      -6.3      1.125      2.519
REMARK  Name = 
REMARK  4 active torsions:
REMARK  status: ('A' for Active; 'I' for Inactive)
REMARK    1  A    between atoms: N_1  and  C_2
REMARK    2  A    between atoms: C_2  and  C_3
REMARK    3  A    between atoms: C_3  and  N_4
REMARK    4  A    between atoms: C_3  and  C_5
REMARK                            x       y       z     vdW  Elec       q    Type
REMARK                         _______ _______ _______ _____ _____    ______ ____
ROOT
ATOM      1  C   UNL     1       4.373   4.298  17.821  0.00  0.00    +0.000 C 
ATOM      2  C   UNL     1       4.607   3.737  19.260  0.00  0.00    +0.000 C 
ATOM      3  C   UNL     1       3.279   3.444  19.985  0.00  0.00    +0.000 C 
ATOM      4  C   UNL     1       2.443   4.728  20.081  0.00  0.00    +0.000 C 
ATOM      5  C   UNL     1       2.146   5.252  18.674  0.00  0.00    +0.000 C 
ATOM      6  C   UNL     1       1.398   4.189  17.854  0.00  0.00    +0.000 C 
ATOM      7  C   UNL     1       2.238   2.907  17.758  0.00  0.00    +0.000 C 
ATOM      8  C   UNL     1       2.504   2.389  19.183  0.00  0.00    +0.000 C 
ATOM      9  C   UNL     1       3.572   3.222  17.048  0.00  0.00    +0.000 C 
ATOM     10  C   UNL     1       3.475   5.572  17.980  0.00  0.00    +0.000 C 
ENDROOT
BRANCH   1  11
ATOM     11  C   UNL     1       5.726   4.682  17.112  0.00  0.00    +0.000 C 
BRANCH  11  12
ATOM     12  N   UNL     1       6.170   3.700  16.102  0.00  0.00    +0.000 NA
ATOM     13  H   UNL     1       6.497   2.839  16.526  0.00  0.00    +0.000 HD
ATOM     14  H   UNL     1       5.383   3.469  15.494  0.00  0.00    +0.000 HD
ENDBRANCH  11  12
BRANCH  11  15
ATOM     15  C   UNL     1       6.999   4.904  17.984  0.00  0.00    +0.000 C 
BRANCH  15  16
ATOM     16  N   UNL     1       8.194   4.111  17.687  0.00  0.00    +0.000 NA
ATOM     17  H   UNL     1       7.917   3.395  17.015  0.00  0.00    +0.000 HD
ATOM     18  H   UNL     1       8.897   4.690  17.249  0.00  0.00    +0.000 HD
ENDBRANCH  15  16
ENDBRANCH  11  15
ENDBRANCH   1  11
TORSDOF 4
ENDMDL
MODEL 9
REMARK VINA RESULT:      -6.3      1.330      1.683
REMARK  Name = 
REMARK  4 active torsions:
REMARK  status: ('A' for Active; 'I' for Inactive)
REMARK    1  A    between atoms: N_1  and  C_2
REMARK    2  A    between atoms: C_2  and  C_3
REMARK    3  A    between atoms: C_3  and  N_4
REMARK    4  A    between atoms: C_3  and  C_5
REMARK                            x       y       z     vdW  Elec       q    Type
REMARK                         _______ _______ _______ _____ _____    ______ ____
ROOT
ATOM      1  C   UNL     1       4.599   5.081  17.648  0.00  0.00    +0.000 C 
ATOM      2  C   UNL     1       3.997   3.892  16.835  0.00  0.00    +0.000 C 
ATOM      3  C   UNL     1       2.770   3.278  17.537  0.00  0.00    +0.000 C 
ATOM      4  C   UNL     1       3.165   2.777  18.934  0.00  0.00    +0.000 C 
ATOM      5  C   UNL     1       3.693   3.947  19.768  0.00  0.00    +0.000 C 
ATOM      6  C   UNL     1       2.627   5.049  19.879  0.00  0.00    +0.000 C 
ATOM      7  C   UNL     1       2.236   5.549  18.481  0.00  0.00    +0.000 C 
ATOM      8  C   UNL     1       1.689   4.360  17.671  0.00  0.00    +0.000 C 
ATOM      9  C   UNL     1       3.479   6.141  17.783  0.00  0.00    +0.000 C 
ATOM     10  C   UNL     1       4.933   4.522  19.074  0.00  0.00    +0.000 C 
ENDROOT
BRANCH   1  11
ATOM     11  C   UNL     1       5.906   5.652  16.977  0.00  0.00    +0.000 C 
BRANCH  11  12
ATOM     12  N   UNL     1       5.645   6.557  15.840  0.00  0.00    +0.000 NA
ATOM     13  H   UNL     1       6.187   7.411  15.902  0.00  0.00    +0.000 HD
ATOM     14  H   UNL     1       5.903   6.085  14.973  0.00  0.00    +0.000 HD
ENDBRANCH  11  12
BRANCH  11  15
ATOM     15  C   UNL     1       6.961   4.654  16.411  0.00  0.00    +0.000 C 
BRANCH  15  16
ATOM     16  N   UNL     1       8.020   4.179  17.304  0.00  0.00    +0.000 NA
ATOM     17  H   UNL     1       8.622   3.567  16.752  0.00  0.00    +0.000 HD
ATOM     18  H   UNL     1       8.582   4.958  17.622  0.00  0.00    +0.000 HD
ENDBRANCH  15  16
ENDBRANCH  11  15
ENDBRANCH   1  11
TORSDOF 4
ENDMDL
