MODEL 1
REMARK VINA RESULT:      -8.0      0.000      0.000
REMARK  Name = 
REMARK  5 active torsions:
REMARK  status: ('A' for Active; 'I' for Inactive)
REMARK    1  A    between atoms: C_2  and  C_3
REMARK    2  A    between atoms: C_6  and  N_7
REMARK    3  A    between atoms: C_15  and  C_16
REMARK    4  A    between atoms: C_16  and  C_17
REMARK    5  A    between atoms: C_16  and  C_23
REMARK                            x       y       z     vdW  Elec       q    Type
REMARK                         _______ _______ _______ _____ _____    ______ ____
ROOT
ATOM      1  N   UNL     1       0.552  10.963  19.774  0.00  0.00    +0.000 N 
ATOM      2  C   UNL     1       1.811  11.296  19.072  0.00  0.00    +0.000 C 
ATOM      3  C   UNL     1       2.217  10.333  17.928  0.00  0.00    +0.000 C 
ATOM      4  N   UNL     1       1.717   8.951  17.964  0.00  0.00    +0.000 NA
ATOM      5  C   UNL     1       0.293   8.983  18.279  0.00  0.00    +0.000 C 
ATOM      6  C   UNL     1       0.066   9.565  19.676  0.00  0.00    +0.000 C 
ATOM      7  C   UNL     1       0.730   8.680  20.733  0.00  0.00    +0.000 C 
ATOM      8  C   UNL     1       1.921   7.839  20.269  0.00  0.00    +0.000 C 
ATOM      9  C   UNL     1       2.493   8.049  18.845  0.00  0.00    +0.000 C 
ENDROOT
BRANCH   1  13
ATOM     10  C   UNL     1      -0.861  13.526  22.874  0.00  0.00    +0.000 A 
ATOM     11  C   UNL     1       0.147  13.948  22.011  0.00  0.00    +0.000 A 
ATOM     12  C   UNL     1       0.616  13.097  20.997  0.00  0.00    +0.000 A 
ATOM     13  C   UNL     1       0.105  11.798  20.806  0.00  0.00    +0.000 A 
ATOM     14  C   UNL     1      -0.908  11.405  21.705  0.00  0.00    +0.000 A 
ATOM     15  C   UNL     1      -1.385  12.245  22.719  0.00  0.00    +0.000 A 
BRANCH  10  17
ATOM     16  N   UNL     1      -1.754  15.087  24.722  0.00  0.00    +0.000 NA
ATOM     17  C   UNL     1      -1.350  14.387  23.895  0.00  0.00    +0.000 C 
ENDBRANCH  10  17
ENDBRANCH   1  13
BRANCH   9  18
ATOM     18  C   UNL     1       2.692   6.644  18.113  0.00  0.00    +0.000 C 
BRANCH  18  19
ATOM     19  C   UNL     1       4.173   6.399  17.794  0.00  0.00    +0.000 A 
ATOM     20  C   UNL     1       4.707   6.705  16.533  0.00  0.00    +0.000 A 
ATOM     21  C   UNL     1       6.006   6.320  16.200  0.00  0.00    +0.000 A 
ATOM     22  C   UNL     1       6.794   5.643  17.128  0.00  0.00    +0.000 A 
ATOM     23  C   UNL     1       6.293   5.373  18.400  0.00  0.00    +0.000 A 
ATOM     24  C   UNL     1       4.992   5.751  18.734  0.00  0.00    +0.000 A 
ENDBRANCH  18  19
BRANCH  18  25
ATOM     25  C   UNL     1       2.048   5.421  18.779  0.00  0.00    +0.000 A 
ATOM     26  C   UNL     1       1.553   4.381  17.968  0.00  0.00    +0.000 A 
ATOM     27  C   UNL     1       0.955   3.249  18.527  0.00  0.00    +0.000 A 
ATOM     28  C   UNL     1       0.841   3.133  19.909  0.00  0.00    +0.000 A 
ATOM     29  C   UNL     1       1.325   4.148  20.729  0.00  0.00    +0.000 A 
ATOM     30  C   UNL     1       1.930   5.279  20.171  0.00  0.00    +0.000 A 
ENDBRANCH  18  25
ENDBRANCH   9  18
TORSDOF 5
ENDMDL
MODEL 2
REMARK VINA RESULT:      -7.9      0.368      1.275
REMARK  Name = 
REMARK  5 active torsions:
REMARK  status: ('A' for Active; 'I' for Inactive)
REMARK    1  A    between atoms: C_2  and  C_3
REMARK    2  A    between atoms: C_6  and  N_7
REMARK    3  A    between atoms: C_15  and  C_16
REMARK    4  A    between atoms: C_16  and  C_17
REMARK    5  A    between atoms: C_16  and  C_23
REMARK                            x       y       z     vdW  Elec       q    Type
REMARK                         _______ _______ _______ _____ _____    ______ ____
ROOT
ATOM      1  N   UNL     1       0.519  10.867  19.631  0.00  0.00    +0.000 N 
ATOM      2  C   UNL     1       1.785  11.220  18.952  0.00  0.00    +0.000 C 
ATOM      3  C   UNL     1       2.255  10.235  17.852  0.00  0.00    +0.000 C 
ATOM      4  N   UNL     1       1.801   8.838  17.923  0.00  0.00    +0.000 NA
ATOM      5  C   UNL     1       0.370   8.830  18.199  0.00  0.00    +0.000 C 
ATOM      6  C   UNL     1       0.085   9.450  19.569  0.00  0.00    +0.000 C 
ATOM      7  C   UNL     1       0.749   8.625  20.673  0.00  0.00    +0.000 C 
ATOM      8  C   UNL     1       1.981   7.812  20.269  0.00  0.00    +0.000 C 
ATOM      9  C   UNL     1       2.584   7.994  18.853  0.00  0.00    +0.000 C 
ENDROOT
BRANCH   1  13
ATOM     10  C   UNL     1      -0.969  13.428  22.698  0.00  0.00    +0.000 A 
ATOM     11  C   UNL     1      -1.630  12.244  22.381  0.00  0.00    +0.000 A 
ATOM     12  C   UNL     1      -1.142  11.408  21.364  0.00  0.00    +0.000 A 
ATOM     13  C   UNL     1       0.016  11.719  20.623  0.00  0.00    +0.000 A 
ATOM     14  C   UNL     1       0.651  12.929  20.968  0.00  0.00    +0.000 A 
ATOM     15  C   UNL     1       0.174  13.771  21.981  0.00  0.00    +0.000 A 
BRANCH  10  17
ATOM     16  N   UNL     1      -1.846  14.965  24.574  0.00  0.00    +0.000 NA
ATOM     17  C   UNL     1      -1.451  14.273  23.735  0.00  0.00    +0.000 C 
ENDBRANCH  10  17
ENDBRANCH   1  13
BRANCH   9  18
ATOM     18  C   UNL     1       2.852   6.574  18.175  0.00  0.00    +0.000 C 
BRANCH  18  19
ATOM     19  C   UNL     1       4.356   6.313  18.028  0.00  0.00    +0.000 A 
ATOM     20  C   UNL     1       5.042   5.481  18.926  0.00  0.00    +0.000 A 
ATOM     21  C   UNL     1       6.434   5.389  18.887  0.00  0.00    +0.000 A 
ATOM     22  C   UNL     1       7.156   6.109  17.937  0.00  0.00    +0.000 A 
ATOM     23  C   UNL     1       6.485   6.903  17.009  0.00  0.00    +0.000 A 
ATOM     24  C   UNL     1       5.093   7.002  17.051  0.00  0.00    +0.000 A 
ENDBRANCH  18  19
BRANCH  18  25
ATOM     25  C   UNL     1       2.128   5.368  18.790  0.00  0.00    +0.000 A 
ATOM     26  C   UNL     1       1.628   4.363  17.938  0.00  0.00    +0.000 A 
ATOM     27  C   UNL     1       0.959   3.248  18.449  0.00  0.00    +0.000 A 
ATOM     28  C   UNL     1       0.776   3.115  19.822  0.00  0.00    +0.000 A 
ATOM     29  C   UNL     1       1.263   4.096  20.682  0.00  0.00    +0.000 A 
ATOM     30  C   UNL     1       1.939   5.208  20.172  0.00  0.00    +0.000 A 
ENDBRANCH  18  25
ENDBRANCH   9  18
TORSDOF 5
ENDMDL
MODEL 3
REMARK VINA RESULT:      -7.9      0.832      1.260
REMARK  Name = 
REMARK  5 active torsions:
REMARK  status: ('A' for Active; 'I' for Inactive)
REMARK    1  A    between atoms: C_2  and  C_3
REMARK    2  A    between atoms: C_6  and  N_7
REMARK    3  A    between atoms: C_15  and  C_16
REMARK    4  A    between atoms: C_16  and  C_17
REMARK    5  A    between atoms: C_16  and  C_23
REMARK                            x       y       z     vdW  Elec       q    Type
REMARK                         _______ _______ _______ _____ _____    ______ ____
ROOT
ATOM      1  N   UNL     1       0.678  10.946  19.568  0.00  0.00    +0.000 N 
ATOM      2  C   UNL     1       1.971  11.087  18.863  0.00  0.00    +0.000 C 
ATOM      3  C   UNL     1       2.294   9.983  17.824  0.00  0.00    +0.000 C 
ATOM      4  N   UNL     1       1.661   8.665  17.983  0.00  0.00    +0.000 NA
ATOM      5  C   UNL     1       0.244   8.863  18.265  0.00  0.00    +0.000 C 
ATOM      6  C   UNL     1       0.060   9.597  19.595  0.00  0.00    +0.000 C 
ATOM      7  C   UNL     1       0.623   8.761  20.745  0.00  0.00    +0.000 C 
ATOM      8  C   UNL     1       1.733   7.769  20.388  0.00  0.00    +0.000 C 
ATOM      9  C   UNL     1       2.337   7.783  18.961  0.00  0.00    +0.000 C 
ENDROOT
BRANCH   1  13
ATOM     10  C   UNL     1      -0.420  13.866  22.474  0.00  0.00    +0.000 A 
ATOM     11  C   UNL     1      -1.195  12.725  22.289  0.00  0.00    +0.000 A 
ATOM     12  C   UNL     1      -0.835  11.770  21.324  0.00  0.00    +0.000 A 
ATOM     13  C   UNL     1       0.303  11.916  20.507  0.00  0.00    +0.000 A 
ATOM     14  C   UNL     1       1.058  13.088  20.719  0.00  0.00    +0.000 A 
ATOM     15  C   UNL     1       0.709  14.047  21.679  0.00  0.00    +0.000 A 
BRANCH  10  17
ATOM     16  N   UNL     1      -1.050  15.617  24.259  0.00  0.00    +0.000 NA
ATOM     17  C   UNL     1      -0.771  14.831  23.457  0.00  0.00    +0.000 C 
ENDBRANCH  10  17
ENDBRANCH   1  13
BRANCH   9  18
ATOM     18  C   UNL     1       2.407   6.301  18.372  0.00  0.00    +0.000 C 
BRANCH  18  19
ATOM     19  C   UNL     1       3.751   6.053  17.675  0.00  0.00    +0.000 A 
ATOM     20  C   UNL     1       4.667   7.096  17.467  0.00  0.00    +0.000 A 
ATOM     21  C   UNL     1       5.804   6.896  16.683  0.00  0.00    +0.000 A 
ATOM     22  C   UNL     1       6.051   5.648  16.115  0.00  0.00    +0.000 A 
ATOM     23  C   UNL     1       5.174   4.591  16.350  0.00  0.00    +0.000 A 
ATOM     24  C   UNL     1       4.033   4.790  17.129  0.00  0.00    +0.000 A 
ENDBRANCH  18  19
BRANCH  18  25
ATOM     25  C   UNL     1       2.050   5.158  19.332  0.00  0.00    +0.000 A 
ATOM     26  C   UNL     1       1.124   4.180  18.918  0.00  0.00    +0.000 A 
ATOM     27  C   UNL     1       0.765   3.123  19.757  0.00  0.00    +0.000 A 
ATOM     28  C   UNL     1       1.324   3.021  21.028  0.00  0.00    +0.000 A 
ATOM     29  C   UNL     1       2.242   3.976  21.456  0.00  0.00    +0.000 A 
ATOM     30  C   UNL     1       2.608   5.031  20.614  0.00  0.00    +0.000 A 
ENDBRANCH  18  25
ENDBRANCH   9  18
TORSDOF 5
ENDMDL
MODEL 4
REMARK VINA RESULT:      -7.8      0.815      1.226
REMARK  Name = 
REMARK  5 active torsions:
REMARK  status: ('A' for Active; 'I' for Inactive)
REMARK    1  A    between atoms: C_2  and  C_3
REMARK    2  A    between atoms: C_6  and  N_7
REMARK    3  A    between atoms: C_15  and  C_16
REMARK    4  A    between atoms: C_16  and  C_17
REMARK    5  A    between atoms: C_16  and  C_23
REMARK                            x       y       z     vdW  Elec       q    Type
REMARK                         _______ _______ _______ _____ _____    ______ ____
ROOT
ATOM      1  N   UNL     1       0.733  10.865  19.578  0.00  0.00    +0.000 N 
ATOM      2  C   UNL     1       2.002  11.018  18.835  0.00  0.00    +0.000 C 
ATOM      3  C   UNL     1       2.297   9.925  17.777  0.00  0.00    +0.000 C 
ATOM      4  N   UNL     1       1.676   8.603  17.944  0.00  0.00    +0.000 NA
ATOM      5  C   UNL     1       0.268   8.792  18.271  0.00  0.00    +0.000 C 
ATOM      6  C   UNL     1       0.122   9.514  19.613  0.00  0.00    +0.000 C 
ATOM      7  C   UNL     1       0.725   8.670  20.737  0.00  0.00    +0.000 C 
ATOM      8  C   UNL     1       1.826   7.686  20.337  0.00  0.00    +0.000 C 
ATOM      9  C   UNL     1       2.386   7.716  18.893  0.00  0.00    +0.000 C 
ENDROOT
BRANCH   1  13
ATOM     10  C   UNL     1      -0.382  13.812  22.451  0.00  0.00    +0.000 A 
ATOM     11  C   UNL     1       0.658  14.051  21.558  0.00  0.00    +0.000 A 
ATOM     12  C   UNL     1       1.029  13.075  20.620  0.00  0.00    +0.000 A 
ATOM     13  C   UNL     1       0.383  11.825  20.537  0.00  0.00    +0.000 A 
ATOM     14  C   UNL     1      -0.660  11.618  21.464  0.00  0.00    +0.000 A 
ATOM     15  C   UNL     1      -1.038  12.584  22.403  0.00  0.00    +0.000 A 
BRANCH  10  17
ATOM     16  N   UNL     1      -1.082  15.604  24.168  0.00  0.00    +0.000 NA
ATOM     17  C   UNL     1      -0.771  14.801  23.396  0.00  0.00    +0.000 C 
ENDBRANCH  10  17
ENDBRANCH   1  13
BRANCH   9  18
ATOM     18  C   UNL     1       2.444   6.239  18.288  0.00  0.00    +0.000 C 
BRANCH  18  19
ATOM     19  C   UNL     1       3.804   5.971  17.630  0.00  0.00    +0.000 A 
ATOM     20  C   UNL     1       4.741   7.001  17.450  0.00  0.00    +0.000 A 
ATOM     21  C   UNL     1       5.897   6.784  16.699  0.00  0.00    +0.000 A 
ATOM     22  C   UNL     1       6.142   5.532  16.137  0.00  0.00    +0.000 A 
ATOM     23  C   UNL     1       5.243   4.489  16.346  0.00  0.00    +0.000 A 
ATOM     24  C   UNL     1       4.083   4.704  17.091  0.00  0.00    +0.000 A 
ENDBRANCH  18  19
BRANCH  18  25
ATOM     25  C   UNL     1       2.034   5.093  19.223  0.00  0.00    +0.000 A 
ATOM     26  C   UNL     1       2.612   5.017  20.506  0.00  0.00    +0.000 A 
ATOM     27  C   UNL     1       2.274   3.991  21.392  0.00  0.00    +0.000 A 
ATOM     28  C   UNL     1       1.351   3.020  21.013  0.00  0.00    +0.000 A 
ATOM     29  C   UNL     1       0.767   3.079  19.751  0.00  0.00    +0.000 A 
ATOM     30  C   UNL     1       1.099   4.109  18.866  0.00  0.00    +0.000 A 
ENDBRANCH  18  25
ENDBRANCH   9  18
TORSDOF 5
ENDMDL
MODEL 5
REMARK VINA RESULT:      -7.8      0.939      1.621
REMARK  Name = 
REMARK  5 active torsions:
REMARK  status: ('A' for Active; 'I' for Inactive)
REMARK    1  A    between atoms: C_2  and  C_3
REMARK    2  A    between atoms: C_6  and  N_7
REMARK    3  A    between atoms: C_15  and  C_16
REMARK    4  A    between atoms: C_16  and  C_17
REMARK    5  A    between atoms: C_16  and  C_23
REMARK                            x       y       z     vdW  Elec       q    Type
REMARK                         _______ _______ _______ _____ _____    ______ ____
ROOT
ATOM      1  N   UNL     1       0.918  10.931  19.318  0.00  0.00    +0.000 N 
ATOM      2  C   UNL     1       2.200  11.012  18.584  0.00  0.00    +0.000 C 
ATOM      3  C   UNL     1       2.465   9.872  17.568  0.00  0.00    +0.000 C 
ATOM      4  N   UNL     1       1.795   8.580  17.773  0.00  0.00    +0.000 NA
ATOM      5  C   UNL     1       0.391   8.831  18.078  0.00  0.00    +0.000 C 
ATOM      6  C   UNL     1       0.258   9.604  19.393  0.00  0.00    +0.000 C 
ATOM      7  C   UNL     1       0.818   8.779  20.552  0.00  0.00    +0.000 C 
ATOM      8  C   UNL     1       1.887   7.743  20.199  0.00  0.00    +0.000 C 
ATOM      9  C   UNL     1       2.463   7.702  18.761  0.00  0.00    +0.000 C 
ENDROOT
BRANCH   1  13
ATOM     10  C   UNL     1      -0.032  13.954  22.171  0.00  0.00    +0.000 A 
ATOM     11  C   UNL     1      -0.909  12.898  21.939  0.00  0.00    +0.000 A 
ATOM     12  C   UNL     1      -0.597  11.909  20.992  0.00  0.00    +0.000 A 
ATOM     13  C   UNL     1       0.594  11.936  20.239  0.00  0.00    +0.000 A 
ATOM     14  C   UNL     1       1.452  13.024  20.497  0.00  0.00    +0.000 A 
ATOM     15  C   UNL     1       1.152  14.016  21.440  0.00  0.00    +0.000 A 
BRANCH  10  17
ATOM     16  N   UNL     1      -0.586  15.759  23.927  0.00  0.00    +0.000 NA
ATOM     17  C   UNL     1      -0.335  14.951  23.137  0.00  0.00    +0.000 C 
ENDBRANCH  10  17
ENDBRANCH   1  13
BRANCH   9  18
ATOM     18  C   UNL     1       2.473   6.204  18.208  0.00  0.00    +0.000 C 
BRANCH  18  19
ATOM     19  C   UNL     1       3.799   5.890  17.503  0.00  0.00    +0.000 A 
ATOM     20  C   UNL     1       4.092   4.596  17.048  0.00  0.00    +0.000 A 
ATOM     21  C   UNL     1       5.365   4.285  16.565  0.00  0.00    +0.000 A 
ATOM     22  C   UNL     1       6.352   5.268  16.513  0.00  0.00    +0.000 A 
ATOM     23  C   UNL     1       6.060   6.568  16.919  0.00  0.00    +0.000 A 
ATOM     24  C   UNL     1       4.791   6.880  17.407  0.00  0.00    +0.000 A 
ENDBRANCH  18  19
BRANCH  18  25
ATOM     25  C   UNL     1       2.087   5.099  19.201  0.00  0.00    +0.000 A 
ATOM     26  C   UNL     1       2.707   5.069  20.466  0.00  0.00    +0.000 A 
ATOM     27  C   UNL     1       2.392   4.081  21.403  0.00  0.00    +0.000 A 
ATOM     28  C   UNL     1       1.451   3.104  21.094  0.00  0.00    +0.000 A 
ATOM     29  C   UNL     1       0.825   3.116  19.851  0.00  0.00    +0.000 A 
ATOM     30  C   UNL     1       1.135   4.108  18.915  0.00  0.00    +0.000 A 
ENDBRANCH  18  25
ENDBRANCH   9  18
TORSDOF 5
ENDMDL
MODEL 6
REMARK VINA RESULT:      -7.6      2.242      9.348
REMARK  Name = 
REMARK  5 active torsions:
REMARK  status: ('A' for Active; 'I' for Inactive)
REMARK    1  A    between atoms: C_2  and  C_3
REMARK    2  A    between atoms: C_6  and  N_7
REMARK    3  A    between atoms: C_15  and  C_16
REMARK    4  A    between atoms: C_16  and  C_17
REMARK    5  A    between atoms: C_16  and  C_23
REMARK                            x       y       z     vdW  Elec       q    Type
REMARK                         _______ _______ _______ _____ _____    ______ ____
ROOT
ATOM      1  N   UNL     1       1.529   8.391  19.083  0.00  0.00    +0.000 N 
ATOM      2  C   UNL     1       1.235   8.548  20.524  0.00  0.00    +0.000 C 
ATOM      3  C   UNL     1       0.040   9.473  20.869  0.00  0.00    +0.000 C 
ATOM      4  N   UNL     1      -0.341  10.514  19.904  0.00  0.00    +0.000 NA
ATOM      5  C   UNL     1      -0.375   9.921  18.573  0.00  0.00    +0.000 C 
ATOM      6  C   UNL     1       1.020   9.440  18.165  0.00  0.00    +0.000 C 
ATOM      7  C   UNL     1       1.989  10.622  18.095  0.00  0.00    +0.000 C 
ATOM      8  C   UNL     1       1.652  11.833  18.966  0.00  0.00    +0.000 C 
ATOM      9  C   UNL     1       0.483  11.742  19.980  0.00  0.00    +0.000 C 
ENDROOT
BRANCH   1  13
ATOM     10  C   UNL     1       4.774   5.882  17.922  0.00  0.00    +0.000 A 
ATOM     11  C   UNL     1       4.407   6.972  17.139  0.00  0.00    +0.000 A 
ATOM     12  C   UNL     1       3.331   7.791  17.520  0.00  0.00    +0.000 A 
ATOM     13  C   UNL     1       2.580   7.554  18.688  0.00  0.00    +0.000 A 
ATOM     14  C   UNL     1       2.979   6.436  19.450  0.00  0.00    +0.000 A 
ATOM     15  C   UNL     1       4.050   5.613  19.081  0.00  0.00    +0.000 A 
BRANCH  10  17
ATOM     16  N   UNL     1       6.761   4.386  17.239  0.00  0.00    +0.000 NA
ATOM     17  C   UNL     1       5.870   5.056  17.549  0.00  0.00    +0.000 C 
ENDBRANCH  10  17
ENDBRANCH   1  13
BRANCH   9  18
ATOM     18  C   UNL     1      -0.465  13.020  19.853  0.00  0.00    +0.000 C 
BRANCH  18  19
ATOM     19  C   UNL     1      -1.565  12.993  20.923  0.00  0.00    +0.000 A 
ATOM     20  C   UNL     1      -1.259  12.778  22.275  0.00  0.00    +0.000 A 
ATOM     21  C   UNL     1      -2.277  12.584  23.211  0.00  0.00    +0.000 A 
ATOM     22  C   UNL     1      -3.611  12.623  22.810  0.00  0.00    +0.000 A 
ATOM     23  C   UNL     1      -3.930  12.880  21.478  0.00  0.00    +0.000 A 
ATOM     24  C   UNL     1      -2.914  13.069  20.540  0.00  0.00    +0.000 A 
ENDBRANCH  18  19
BRANCH  18  25
ATOM     25  C   UNL     1       0.226  14.389  19.789  0.00  0.00    +0.000 A 
ATOM     26  C   UNL     1      -0.135  15.291  18.769  0.00  0.00    +0.000 A 
ATOM     27  C   UNL     1       0.468  16.547  18.667  0.00  0.00    +0.000 A 
ATOM     28  C   UNL     1       1.444  16.927  19.583  0.00  0.00    +0.000 A 
ATOM     29  C   UNL     1       1.815  16.052  20.600  0.00  0.00    +0.000 A 
ATOM     30  C   UNL     1       1.207  14.797  20.707  0.00  0.00    +0.000 A 
ENDBRANCH  18  25
ENDBRANCH   9  18
TORSDOF 5
ENDMDL
MODEL 7
REMARK VINA RESULT:      -7.6      0.772      1.451
REMARK  Name = 
REMARK  5 active torsions:
REMARK  status: ('A' for Active; 'I' for Inactive)
REMARK    1  A    between atoms: C_2  and  C_3
REMARK    2  A    between atoms: C_6  and  N_7
REMARK    3  A    between atoms: C_15  and  C_16
REMARK    4  A    between atoms: C_16  and  C_17
REMARK    5  A    between atoms: C_16  and  C_23
REMARK                            x       y       z     vdW  Elec       q    Type
REMARK                         _______ _______ _______ _____ _____    ______ ____
ROOT
ATOM      1  N   UNL     1       0.624  11.004  19.184  0.00  0.00    +0.000 N 
ATOM      2  C   UNL     1       1.976  11.303  18.663  0.00  0.00    +0.000 C 
ATOM      3  C   UNL     1       2.544  10.283  17.645  0.00  0.00    +0.000 C 
ATOM      4  N   UNL     1       2.037   8.904  17.676  0.00  0.00    +0.000 NA
ATOM      5  C   UNL     1       0.582   8.948  17.771  0.00  0.00    +0.000 C 
ATOM      6  C   UNL     1       0.151   9.602  19.087  0.00  0.00    +0.000 C 
ATOM      7  C   UNL     1       0.643   8.775  20.275  0.00  0.00    +0.000 C 
ATOM      8  C   UNL     1       1.886   7.913  20.040  0.00  0.00    +0.000 C 
ATOM      9  C   UNL     1       2.667   8.050  18.709  0.00  0.00    +0.000 C 
ENDROOT
BRANCH   1  13
ATOM     10  C   UNL     1      -1.185  13.749  21.898  0.00  0.00    +0.000 A 
ATOM     11  C   UNL     1       0.200  13.665  21.795  0.00  0.00    +0.000 A 
ATOM     12  C   UNL     1       0.793  12.753  20.906  0.00  0.00    +0.000 A 
ATOM     13  C   UNL     1       0.032  11.890  20.093  0.00  0.00    +0.000 A 
ATOM     14  C   UNL     1      -1.367  12.001  20.232  0.00  0.00    +0.000 A 
ATOM     15  C   UNL     1      -1.969  12.907  21.114  0.00  0.00    +0.000 A 
BRANCH  10  17
ATOM     16  N   UNL     1      -2.282  15.433  23.514  0.00  0.00    +0.000 NA
ATOM     17  C   UNL     1      -1.792  14.680  22.786  0.00  0.00    +0.000 C 
ENDBRANCH  10  17
ENDBRANCH   1  13
BRANCH   9  18
ATOM     18  C   UNL     1       2.966   6.610  18.089  0.00  0.00    +0.000 C 
BRANCH  18  19
ATOM     19  C   UNL     1       4.476   6.345  18.025  0.00  0.00    +0.000 A 
ATOM     20  C   UNL     1       5.106   5.498  18.948  0.00  0.00    +0.000 A 
ATOM     21  C   UNL     1       6.498   5.400  18.988  0.00  0.00    +0.000 A 
ATOM     22  C   UNL     1       7.275   6.132  18.092  0.00  0.00    +0.000 A 
ATOM     23  C   UNL     1       6.661   6.942  17.139  0.00  0.00    +0.000 A 
ATOM     24  C   UNL     1       5.270   7.046  17.102  0.00  0.00    +0.000 A 
ENDBRANCH  18  19
BRANCH  18  25
ATOM     25  C   UNL     1       2.211   5.423  18.704  0.00  0.00    +0.000 A 
ATOM     26  C   UNL     1       2.075   5.350  20.104  0.00  0.00    +0.000 A 
ATOM     27  C   UNL     1       1.400   4.287  20.711  0.00  0.00    +0.000 A 
ATOM     28  C   UNL     1       0.846   3.277  19.930  0.00  0.00    +0.000 A 
ATOM     29  C   UNL     1       0.968   3.331  18.544  0.00  0.00    +0.000 A 
ATOM     30  C   UNL     1       1.638   4.397  17.935  0.00  0.00    +0.000 A 
ENDBRANCH  18  25
ENDBRANCH   9  18
TORSDOF 5
ENDMDL
MODEL 8
REMARK VINA RESULT:      -7.5      2.220      9.426
REMARK  Name = 
REMARK  5 active torsions:
REMARK  status: ('A' for Active; 'I' for Inactive)
REMARK    1  A    between atoms: C_2  and  C_3
REMARK    2  A    between atoms: C_6  and  N_7
REMARK    3  A    between atoms: C_15  and  C_16
REMARK    4  A    between atoms: C_16  and  C_17
REMARK    5  A    between atoms: C_16  and  C_23
REMARK                            x       y       z     vdW  Elec       q    Type
REMARK                         _______ _______ _______ _____ _____    ______ ____
ROOT
ATOM      1  N   UNL     1       1.484   8.420  19.092  0.00  0.00    +0.000 N 
ATOM      2  C   UNL     1       1.156   8.547  20.529  0.00  0.00    +0.000 C 
ATOM      3  C   UNL     1      -0.056   9.452  20.863  0.00  0.00    +0.000 C 
ATOM      4  N   UNL     1      -0.428  10.507  19.909  0.00  0.00    +0.000 NA
ATOM      5  C   UNL     1      -0.424   9.938  18.566  0.00  0.00    +0.000 C 
ATOM      6  C   UNL     1       0.986   9.481  18.182  0.00  0.00    +0.000 C 
ATOM      7  C   UNL     1       1.942  10.674  18.156  0.00  0.00    +0.000 C 
ATOM      8  C   UNL     1       1.572  11.865  19.043  0.00  0.00    +0.000 C 
ATOM      9  C   UNL     1       0.381  11.742  20.027  0.00  0.00    +0.000 C 
ENDROOT
BRANCH   1  13
ATOM     10  C   UNL     1       4.695   5.891  17.876  0.00  0.00    +0.000 A 
ATOM     11  C   UNL     1       3.994   5.631  19.049  0.00  0.00    +0.000 A 
ATOM     12  C   UNL     1       2.943   6.471  19.452  0.00  0.00    +0.000 A 
ATOM     13  C   UNL     1       2.554   7.602  18.706  0.00  0.00    +0.000 A 
ATOM     14  C   UNL     1       3.294   7.836  17.528  0.00  0.00    +0.000 A 
ATOM     15  C   UNL     1       4.342   7.004  17.117  0.00  0.00    +0.000 A 
BRANCH  10  17
ATOM     16  N   UNL     1       6.612   4.346  17.110  0.00  0.00    +0.000 NA
ATOM     17  C   UNL     1       5.751   5.037  17.456  0.00  0.00    +0.000 C 
ENDBRANCH  10  17
ENDBRANCH   1  13
BRANCH   9  18
ATOM     18  C   UNL     1      -0.578  13.012  19.902  0.00  0.00    +0.000 C 
BRANCH  18  19
ATOM     19  C   UNL     1      -1.664  12.985  20.986  0.00  0.00    +0.000 A 
ATOM     20  C   UNL     1      -1.357  12.659  22.316  0.00  0.00    +0.000 A 
ATOM     21  C   UNL     1      -2.374  12.470  23.253  0.00  0.00    +0.000 A 
ATOM     22  C   UNL     1      -3.707  12.624  22.878  0.00  0.00    +0.000 A 
ATOM     23  C   UNL     1      -4.024  12.992  21.573  0.00  0.00    +0.000 A 
ATOM     24  C   UNL     1      -3.010  13.176  20.632  0.00  0.00    +0.000 A 
ENDBRANCH  18  19
BRANCH  18  25
ATOM     25  C   UNL     1       0.102  14.385  19.819  0.00  0.00    +0.000 A 
ATOM     26  C   UNL     1       0.960  14.788  20.861  0.00  0.00    +0.000 A 
ATOM     27  C   UNL     1       1.599  16.030  20.832  0.00  0.00    +0.000 A 
ATOM     28  C   UNL     1       1.394  16.895  19.761  0.00  0.00    +0.000 A 
ATOM     29  C   UNL     1       0.551  16.515  18.720  0.00  0.00    +0.000 A 
ATOM     30  C   UNL     1      -0.084  15.269  18.744  0.00  0.00    +0.000 A 
ENDBRANCH  18  25
ENDBRANCH   9  18
TORSDOF 5
ENDMDL
MODEL 9
REMARK VINA RESULT:      -7.5      2.910     10.030
REMARK  Name = 
REMARK  5 active torsions:
REMARK  status: ('A' for Active; 'I' for Inactive)
REMARK    1  A    between atoms: C_2  and  C_3
REMARK    2  A    between atoms: C_6  and  N_7
REMARK    3  A    between atoms: C_15  and  C_16
REMARK    4  A    between atoms: C_16  and  C_17
REMARK    5  A    between atoms: C_16  and  C_23
REMARK                            x       y       z     vdW  Elec       q    Type
REMARK                         _______ _______ _______ _____ _____    ______ ____
ROOT
ATOM      1  N   UNL     1      -0.049  10.725  19.338  0.00  0.00    +0.000 N 
ATOM      2  C   UNL     1      -1.379  10.620  18.699  0.00  0.00    +0.000 C 
ATOM      3  C   UNL     1      -2.225  11.918  18.692  0.00  0.00    +0.000 C 
ATOM      4  N   UNL     1      -1.962  12.932  19.724  0.00  0.00    +0.000 NA
ATOM      5  C   UNL     1      -0.521  13.126  19.825  0.00  0.00    +0.000 C 
ATOM      6  C   UNL     1       0.162  11.839  20.295  0.00  0.00    +0.000 C 
ATOM      7  C   UNL     1      -0.329  11.459  21.693  0.00  0.00    +0.000 C 
ATOM      8  C   UNL     1      -1.721  11.959  22.088  0.00  0.00    +0.000 C 
ATOM      9  C   UNL     1      -2.611  12.652  21.025  0.00  0.00    +0.000 C 
ENDROOT
BRANCH   1  13
ATOM     10  C   UNL     1       2.437   7.262  19.398  0.00  0.00    +0.000 A 
ATOM     11  C   UNL     1       1.743   7.655  20.539  0.00  0.00    +0.000 A 
ATOM     12  C   UNL     1       0.933   8.802  20.518  0.00  0.00    +0.000 A 
ATOM     13  C   UNL     1       0.786   9.600  19.366  0.00  0.00    +0.000 A 
ATOM     14  C   UNL     1       1.510   9.173  18.234  0.00  0.00    +0.000 A 
ATOM     15  C   UNL     1       2.320   8.031  18.243  0.00  0.00    +0.000 A 
BRANCH  10  17
ATOM     16  N   UNL     1       3.915   5.148  19.414  0.00  0.00    +0.000 NA
ATOM     17  C   UNL     1       3.249   6.094  19.409  0.00  0.00    +0.000 C 
ENDBRANCH  10  17
ENDBRANCH   1  13
BRANCH   9  18
ATOM     18  C   UNL     1      -3.221  14.007  21.609  0.00  0.00    +0.000 C 
BRANCH  18  19
ATOM     19  C   UNL     1      -4.754  13.947  21.639  0.00  0.00    +0.000 A 
ATOM     20  C   UNL     1      -5.433  12.720  21.697  0.00  0.00    +0.000 A 
ATOM     21  C   UNL     1      -6.821  12.669  21.551  0.00  0.00    +0.000 A 
ATOM     22  C   UNL     1      -7.547  13.844  21.366  0.00  0.00    +0.000 A 
ATOM     23  C   UNL     1      -6.891  15.073  21.352  0.00  0.00    +0.000 A 
ATOM     24  C   UNL     1      -5.503  15.126  21.492  0.00  0.00    +0.000 A 
ENDBRANCH  18  19
BRANCH  18  25
ATOM     25  C   UNL     1      -2.650  14.503  22.944  0.00  0.00    +0.000 A 
ATOM     26  C   UNL     1      -3.382  14.280  24.127  0.00  0.00    +0.000 A 
ATOM     27  C   UNL     1      -2.905  14.716  25.366  0.00  0.00    +0.000 A 
ATOM     28  C   UNL     1      -1.686  15.383  25.448  0.00  0.00    +0.000 A 
ATOM     29  C   UNL     1      -0.946  15.612  24.291  0.00  0.00    +0.000 A 
ATOM     30  C   UNL     1      -1.419  15.170  23.051  0.00  0.00    +0.000 A 
ENDBRANCH  18  25
ENDBRANCH   9  18
TORSDOF 5
ENDMDL
