MODEL 1
REMARK VINA RESULT:      -7.6      0.000      0.000
REMARK  Name = 
REMARK  13 active torsions:
REMARK  status: ('A' for Active; 'I' for Inactive)
REMARK    1  A    between atoms: C_1  and  O_2
REMARK    2  A    between atoms: O_2  and  C_3
REMARK    3  A    between atoms: C_6  and  S_7
REMARK    4  A    between atoms: S_7  and  N_10
REMARK    5  A    between atoms: N_10  and  C_11
REMARK    6  A    between atoms: C_11  and  C_12
REMARK    7  A    between atoms: C_11  and  C_28
REMARK    8  A    between atoms: C_12  and  C_13
REMARK    9  A    between atoms: C_13  and  C_14
REMARK   10  A    between atoms: C_14  and  N_15
REMARK   11  A    between atoms: N_18  and  C_19
REMARK   12  A    between atoms: C_21  and  C_22
REMARK   13  A    between atoms: N_30  and  O_31
REMARK                            x       y       z     vdW  Elec       q    Type
REMARK                         _______ _______ _______ _____ _____    ______ ____
ROOT
ATOM      1  C   UNL     1       2.899   4.887  19.944  0.00  0.00    +0.000 C 
ENDROOT
BRANCH   1   2
ATOM      2  C   UNL     1       1.907   3.967  20.648  0.00  0.00    +0.000 C 
ATOM      3  O   UNL     1       0.706   3.935  20.376  0.00  0.00    +0.000 OA
ATOM      4  N   UNL     1       2.369   3.213  21.699  0.00  0.00    +0.000 N 
ATOM      5  H   UNL     1       3.187   3.464  22.244  0.00  0.00    +0.000 HD
BRANCH   4   6
ATOM      6  O   UNL     1       1.322   2.587  22.433  0.00  0.00    +0.000 OA
ATOM      7  H   UNL     1       1.751   1.761  22.755  0.00  0.00    +0.000 HD
ENDBRANCH   4   6
ENDBRANCH   1   2
BRANCH   1   8
ATOM      8  N   UNL     1       3.280   4.468  18.559  0.00  0.00    +0.000 NA
ATOM      9  H   UNL     1       2.542   3.935  18.101  0.00  0.00    +0.000 HD
BRANCH   8  10
ATOM     10  S   UNL     1       4.758   3.650  18.342  0.00  0.00    +0.000 S 
ATOM     11  O   UNL     1       4.682   2.941  17.079  0.00  0.00    +0.000 OA
ATOM     12  O   UNL     1       5.047   2.975  19.583  0.00  0.00    +0.000 OA
BRANCH  10  16
ATOM     13  C   UNL     1       7.680   7.158  18.214  0.00  0.00    +0.000 A 
ATOM     14  C   UNL     1       7.892   6.090  19.092  0.00  0.00    +0.000 A 
ATOM     15  C   UNL     1       7.039   4.985  19.085  0.00  0.00    +0.000 A 
ATOM     16  C   UNL     1       5.949   4.966  18.208  0.00  0.00    +0.000 A 
ATOM     17  C   UNL     1       5.751   6.012  17.299  0.00  0.00    +0.000 A 
ATOM     18  C   UNL     1       6.607   7.119  17.320  0.00  0.00    +0.000 A 
BRANCH  13  20
ATOM     19  C   UNL     1       8.109   9.444  17.814  0.00  0.00    +0.000 C 
ATOM     20  O   UNL     1       8.551   8.203  18.354  0.00  0.00    +0.000 OA
ENDBRANCH  13  20
ENDBRANCH  10  16
ENDBRANCH   8  10
ENDBRANCH   1   8
BRANCH   1  21
ATOM     21  C   UNL     1       2.340   6.327  19.875  0.00  0.00    +0.000 C 
BRANCH  21  22
ATOM     22  C   UNL     1       2.060   6.888  18.471  0.00  0.00    +0.000 C 
BRANCH  22  23
ATOM     23  C   UNL     1       2.804   8.171  18.112  0.00  0.00    +0.000 C 
BRANCH  23  24
ATOM     24  N   UNL     1       1.890   9.197  17.690  0.00  0.00    +0.000 N 
ATOM     25  C   UNL     1       1.138   9.851  18.625  0.00  0.00    +0.000 C 
ATOM     26  O   UNL     1       1.206   9.644  19.828  0.00  0.00    +0.000 OA
ATOM     27  N   UNL     1       0.319  10.783  18.042  0.00  0.00    +0.000 N 
ATOM     28  H   UNL     1       1.476   9.105  16.769  0.00  0.00    +0.000 HD
ATOM     29  H   UNL     1       0.567  11.086  17.112  0.00  0.00    +0.000 HD
BRANCH  27  30
ATOM     30  C   UNL     1      -0.506  11.636  18.836  0.00  0.00    +0.000 C 
ATOM     31  C   UNL     1      -0.857  12.983  18.303  0.00  0.00    +0.000 C 
ATOM     32  C   UNL     1      -1.929  11.920  18.427  0.00  0.00    +0.000 C 
BRANCH  32  33
ATOM     33  C   UNL     1      -3.029  12.184  19.423  0.00  0.00    +0.000 A 
ATOM     34  C   UNL     1      -4.366  12.037  19.028  0.00  0.00    +0.000 A 
ATOM     35  C   UNL     1      -5.425  12.339  19.885  0.00  0.00    +0.000 A 
ATOM     36  C   UNL     1      -5.158  12.782  21.175  0.00  0.00    +0.000 A 
ATOM     37  C   UNL     1      -3.839  12.894  21.613  0.00  0.00    +0.000 A 
ATOM     38  C   UNL     1      -2.784  12.589  20.747  0.00  0.00    +0.000 A 
ENDBRANCH  32  33
ENDBRANCH  27  30
ENDBRANCH  23  24
ENDBRANCH  22  23
ENDBRANCH  21  22
ENDBRANCH   1  21
TORSDOF 12
ENDMDL
MODEL 2
REMARK VINA RESULT:      -7.5      3.092      4.111
REMARK  Name = 
REMARK  13 active torsions:
REMARK  status: ('A' for Active; 'I' for Inactive)
REMARK    1  A    between atoms: C_1  and  O_2
REMARK    2  A    between atoms: O_2  and  C_3
REMARK    3  A    between atoms: C_6  and  S_7
REMARK    4  A    between atoms: S_7  and  N_10
REMARK    5  A    between atoms: N_10  and  C_11
REMARK    6  A    between atoms: C_11  and  C_12
REMARK    7  A    between atoms: C_11  and  C_28
REMARK    8  A    between atoms: C_12  and  C_13
REMARK    9  A    between atoms: C_13  and  C_14
REMARK   10  A    between atoms: C_14  and  N_15
REMARK   11  A    between atoms: N_18  and  C_19
REMARK   12  A    between atoms: C_21  and  C_22
REMARK   13  A    between atoms: N_30  and  O_31
REMARK                            x       y       z     vdW  Elec       q    Type
REMARK                         _______ _______ _______ _____ _____    ______ ____
ROOT
ATOM      1  C   UNL     1       2.676   4.563  20.071  0.00  0.00    +0.000 C 
ENDROOT
BRANCH   1   2
ATOM      2  C   UNL     1       1.777   3.467  19.510  0.00  0.00    +0.000 C 
ATOM      3  O   UNL     1       0.586   3.354  19.805  0.00  0.00    +0.000 OA
ATOM      4  N   UNL     1       2.355   2.509  18.715  0.00  0.00    +0.000 N 
ATOM      5  H   UNL     1       3.343   2.280  18.752  0.00  0.00    +0.000 HD
BRANCH   4   6
ATOM      6  O   UNL     1       1.489   1.410  18.452  0.00  0.00    +0.000 OA
ATOM      7  H   UNL     1       1.578   0.867  19.268  0.00  0.00    +0.000 HD
ENDBRANCH   4   6
ENDBRANCH   1   2
BRANCH   1   8
ATOM      8  N   UNL     1       3.679   5.116  19.109  0.00  0.00    +0.000 NA
ATOM      9  H   UNL     1       3.348   5.083  18.146  0.00  0.00    +0.000 HD
BRANCH   8  10
ATOM     10  S   UNL     1       5.268   4.506  19.160  0.00  0.00    +0.000 S 
ATOM     11  O   UNL     1       5.207   3.177  19.736  0.00  0.00    +0.000 OA
ATOM     12  O   UNL     1       6.096   5.546  19.721  0.00  0.00    +0.000 OA
BRANCH  10  16
ATOM     13  C   UNL     1       6.402   4.478  14.736  0.00  0.00    +0.000 A 
ATOM     14  C   UNL     1       7.362   4.760  15.712  0.00  0.00    +0.000 A 
ATOM     15  C   UNL     1       7.036   4.703  17.067  0.00  0.00    +0.000 A 
ATOM     16  C   UNL     1       5.726   4.385  17.444  0.00  0.00    +0.000 A 
ATOM     17  C   UNL     1       4.767   4.063  16.476  0.00  0.00    +0.000 A 
ATOM     18  C   UNL     1       5.103   4.133  15.119  0.00  0.00    +0.000 A 
BRANCH  13  20
ATOM     19  C   UNL     1       6.359   3.635  12.532  0.00  0.00    +0.000 C 
ATOM     20  O   UNL     1       6.830   4.620  13.445  0.00  0.00    +0.000 OA
ENDBRANCH  13  20
ENDBRANCH  10  16
ENDBRANCH   8  10
ENDBRANCH   1   8
BRANCH   1  21
ATOM     21  C   UNL     1       1.823   5.737  20.606  0.00  0.00    +0.000 C 
BRANCH  21  22
ATOM     22  C   UNL     1       2.135   7.129  20.033  0.00  0.00    +0.000 C 
BRANCH  22  23
ATOM     23  C   UNL     1       1.332   8.283  20.627  0.00  0.00    +0.000 C 
BRANCH  23  24
ATOM     24  N   UNL     1       1.339   9.422  19.749  0.00  0.00    +0.000 N 
ATOM     25  C   UNL     1       1.151  10.671  20.271  0.00  0.00    +0.000 C 
ATOM     26  O   UNL     1       1.002  10.902  21.462  0.00  0.00    +0.000 OA
ATOM     27  N   UNL     1       1.178  11.628  19.290  0.00  0.00    +0.000 N 
ATOM     28  H   UNL     1       1.017   9.282  18.799  0.00  0.00    +0.000 HD
ATOM     29  H   UNL     1       1.614  11.372  18.417  0.00  0.00    +0.000 HD
BRANCH  27  30
ATOM     30  C   UNL     1       1.074  13.015  19.613  0.00  0.00    +0.000 C 
ATOM     31  C   UNL     1       2.274  13.713  20.155  0.00  0.00    +0.000 C 
ATOM     32  C   UNL     1       1.768  14.052  18.768  0.00  0.00    +0.000 C 
BRANCH  32  33
ATOM     33  C   UNL     1       1.224  15.444  18.570  0.00  0.00    +0.000 A 
ATOM     34  C   UNL     1      -0.141  15.686  18.777  0.00  0.00    +0.000 A 
ATOM     35  C   UNL     1      -0.712  16.936  18.537  0.00  0.00    +0.000 A 
ATOM     36  C   UNL     1       0.090  17.983  18.098  0.00  0.00    +0.000 A 
ATOM     37  C   UNL     1       1.460  17.787  17.928  0.00  0.00    +0.000 A 
ATOM     38  C   UNL     1       2.023  16.530  18.171  0.00  0.00    +0.000 A 
ENDBRANCH  32  33
ENDBRANCH  27  30
ENDBRANCH  23  24
ENDBRANCH  22  23
ENDBRANCH  21  22
ENDBRANCH   1  21
TORSDOF 12
ENDMDL
MODEL 3
REMARK VINA RESULT:      -7.5      3.221      8.215
REMARK  Name = 
REMARK  13 active torsions:
REMARK  status: ('A' for Active; 'I' for Inactive)
REMARK    1  A    between atoms: C_1  and  O_2
REMARK    2  A    between atoms: O_2  and  C_3
REMARK    3  A    between atoms: C_6  and  S_7
REMARK    4  A    between atoms: S_7  and  N_10
REMARK    5  A    between atoms: N_10  and  C_11
REMARK    6  A    between atoms: C_11  and  C_12
REMARK    7  A    between atoms: C_11  and  C_28
REMARK    8  A    between atoms: C_12  and  C_13
REMARK    9  A    between atoms: C_13  and  C_14
REMARK   10  A    between atoms: C_14  and  N_15
REMARK   11  A    between atoms: N_18  and  C_19
REMARK   12  A    between atoms: C_21  and  C_22
REMARK   13  A    between atoms: N_30  and  O_31
REMARK                            x       y       z     vdW  Elec       q    Type
REMARK                         _______ _______ _______ _____ _____    ______ ____
ROOT
ATOM      1  C   UNL     1       4.162   4.180  18.290  0.00  0.00    +0.000 C 
ENDROOT
BRANCH   1   2
ATOM      2  C   UNL     1       4.262   2.767  18.854  0.00  0.00    +0.000 C 
ATOM      3  O   UNL     1       4.816   2.504  19.922  0.00  0.00    +0.000 OA
ATOM      4  N   UNL     1       3.793   1.735  18.079  0.00  0.00    +0.000 N 
ATOM      5  H   UNL     1       3.710   1.792  17.069  0.00  0.00    +0.000 HD
BRANCH   4   6
ATOM      6  O   UNL     1       4.155   0.454  18.585  0.00  0.00    +0.000 OA
ATOM      7  H   UNL     1       5.135   0.521  18.655  0.00  0.00    +0.000 HD
ENDBRANCH   4   6
ENDBRANCH   1   2
BRANCH   1   8
ATOM      8  N   UNL     1       3.900   5.251  19.302  0.00  0.00    +0.000 NA
ATOM      9  H   UNL     1       4.513   5.172  20.113  0.00  0.00    +0.000 HD
BRANCH   8  10
ATOM     10  S   UNL     1       2.302   5.472  19.847  0.00  0.00    +0.000 S 
ATOM     11  O   UNL     1       2.288   5.220  21.275  0.00  0.00    +0.000 OA
ATOM     12  O   UNL     1       1.447   4.752  18.934  0.00  0.00    +0.000 OA
BRANCH  10  16
ATOM     13  C   UNL     1       1.243   9.837  19.016  0.00  0.00    +0.000 A 
ATOM     14  C   UNL     1       0.992   9.272  20.271  0.00  0.00    +0.000 A 
ATOM     15  C   UNL     1       1.376   7.960  20.549  0.00  0.00    +0.000 A 
ATOM     16  C   UNL     1       1.994   7.200  19.550  0.00  0.00    +0.000 A 
ATOM     17  C   UNL     1       2.286   7.768  18.304  0.00  0.00    +0.000 A 
ATOM     18  C   UNL     1       1.887   9.082  18.032  0.00  0.00    +0.000 A 
BRANCH  13  20
ATOM     19  C   UNL     1      -0.629  11.274  19.043  0.00  0.00    +0.000 C 
ATOM     20  O   UNL     1       0.772  11.110  18.849  0.00  0.00    +0.000 OA
ENDBRANCH  13  20
ENDBRANCH  10  16
ENDBRANCH   8  10
ENDBRANCH   1   8
BRANCH   1  21
ATOM     21  C   UNL     1       5.456   4.546  17.526  0.00  0.00    +0.000 C 
BRANCH  21  22
ATOM     22  C   UNL     1       6.092   5.905  17.865  0.00  0.00    +0.000 C 
BRANCH  22  23
ATOM     23  C   UNL     1       7.246   6.336  16.964  0.00  0.00    +0.000 C 
BRANCH  23  24
ATOM     24  N   UNL     1       7.371   7.768  16.937  0.00  0.00    +0.000 N 
ATOM     25  C   UNL     1       8.096   8.397  17.910  0.00  0.00    +0.000 C 
ATOM     26  O   UNL     1       8.686   7.816  18.810  0.00  0.00    +0.000 OA
ATOM     27  N   UNL     1       8.097   9.755  17.730  0.00  0.00    +0.000 N 
ATOM     28  H   UNL     1       6.603   8.297  16.540  0.00  0.00    +0.000 HD
ATOM     29  H   UNL     1       7.858  10.092  16.809  0.00  0.00    +0.000 HD
BRANCH  27  30
ATOM     30  C   UNL     1       8.851  10.611  18.589  0.00  0.00    +0.000 C 
ATOM     31  C   UNL     1      10.197  11.066  18.138  0.00  0.00    +0.000 C 
ATOM     32  C   UNL     1       9.059  12.061  18.234  0.00  0.00    +0.000 C 
BRANCH  32  33
ATOM     33  C   UNL     1       9.197  13.145  19.273  0.00  0.00    +0.000 A 
ATOM     34  C   UNL     1      10.067  12.955  20.356  0.00  0.00    +0.000 A 
ATOM     35  C   UNL     1      10.178  13.892  21.384  0.00  0.00    +0.000 A 
ATOM     36  C   UNL     1       9.424  15.059  21.333  0.00  0.00    +0.000 A 
ATOM     37  C   UNL     1       8.585  15.298  20.245  0.00  0.00    +0.000 A 
ATOM     38  C   UNL     1       8.480  14.353  19.220  0.00  0.00    +0.000 A 
ENDBRANCH  32  33
ENDBRANCH  27  30
ENDBRANCH  23  24
ENDBRANCH  22  23
ENDBRANCH  21  22
ENDBRANCH   1  21
TORSDOF 12
ENDMDL
MODEL 4
REMARK VINA RESULT:      -7.4      2.937      4.064
REMARK  Name = 
REMARK  13 active torsions:
REMARK  status: ('A' for Active; 'I' for Inactive)
REMARK    1  A    between atoms: C_1  and  O_2
REMARK    2  A    between atoms: O_2  and  C_3
REMARK    3  A    between atoms: C_6  and  S_7
REMARK    4  A    between atoms: S_7  and  N_10
REMARK    5  A    between atoms: N_10  and  C_11
REMARK    6  A    between atoms: C_11  and  C_12
REMARK    7  A    between atoms: C_11  and  C_28
REMARK    8  A    between atoms: C_12  and  C_13
REMARK    9  A    between atoms: C_13  and  C_14
REMARK   10  A    between atoms: C_14  and  N_15
REMARK   11  A    between atoms: N_18  and  C_19
REMARK   12  A    between atoms: C_21  and  C_22
REMARK   13  A    between atoms: N_30  and  O_31
REMARK                            x       y       z     vdW  Elec       q    Type
REMARK                         _______ _______ _______ _____ _____    ______ ____
ROOT
ATOM      1  C   UNL     1       2.825   5.806  19.876  0.00  0.00    +0.000 C 
ENDROOT
BRANCH   1   2
ATOM      2  C   UNL     1       1.817   4.723  19.505  0.00  0.00    +0.000 C 
ATOM      3  O   UNL     1       1.159   4.100  20.340  0.00  0.00    +0.000 OA
ATOM      4  N   UNL     1       1.718   4.367  18.183  0.00  0.00    +0.000 N 
ATOM      5  H   UNL     1       2.468   4.508  17.513  0.00  0.00    +0.000 HD
BRANCH   4   6
ATOM      6  O   UNL     1       0.939   3.192  17.982  0.00  0.00    +0.000 OA
ATOM      7  H   UNL     1       1.000   3.059  17.009  0.00  0.00    +0.000 HD
ENDBRANCH   4   6
ENDBRANCH   1   2
BRANCH   1   8
ATOM      8  N   UNL     1       4.013   5.906  18.972  0.00  0.00    +0.000 NA
ATOM      9  H   UNL     1       3.744   6.011  17.994  0.00  0.00    +0.000 HD
BRANCH   8  10
ATOM     10  S   UNL     1       5.212   4.703  19.080  0.00  0.00    +0.000 S 
ATOM     11  O   UNL     1       4.573   3.489  19.552  0.00  0.00    +0.000 OA
ATOM     12  O   UNL     1       6.335   5.294  19.767  0.00  0.00    +0.000 OA
BRANCH  10  16
ATOM     13  C   UNL     1       6.496   4.401  14.707  0.00  0.00    +0.000 A 
ATOM     14  C   UNL     1       7.410   4.795  15.689  0.00  0.00    +0.000 A 
ATOM     15  C   UNL     1       7.040   4.823  17.034  0.00  0.00    +0.000 A 
ATOM     16  C   UNL     1       5.733   4.477  17.392  0.00  0.00    +0.000 A 
ATOM     17  C   UNL     1       4.822   4.043  16.422  0.00  0.00    +0.000 A 
ATOM     18  C   UNL     1       5.200   4.028  15.075  0.00  0.00    +0.000 A 
BRANCH  13  20
ATOM     19  C   UNL     1       6.354   3.564  12.505  0.00  0.00    +0.000 C 
ATOM     20  O   UNL     1       6.961   4.467  13.423  0.00  0.00    +0.000 OA
ENDBRANCH  13  20
ENDBRANCH  10  16
ENDBRANCH   8  10
ENDBRANCH   1   8
BRANCH   1  21
ATOM     21  C   UNL     1       2.135   7.190  19.920  0.00  0.00    +0.000 C 
BRANCH  21  22
ATOM     22  C   UNL     1       1.221   7.463  21.126  0.00  0.00    +0.000 C 
BRANCH  22  23
ATOM     23  C   UNL     1       1.435   8.803  21.826  0.00  0.00    +0.000 C 
BRANCH  23  24
ATOM     24  N   UNL     1       0.192   9.328  22.323  0.00  0.00    +0.000 N 
ATOM     25  C   UNL     1      -0.073  10.662  22.190  0.00  0.00    +0.000 C 
ATOM     26  O   UNL     1       0.674  11.459  21.641  0.00  0.00    +0.000 OA
ATOM     27  N   UNL     1      -1.292  10.983  22.729  0.00  0.00    +0.000 N 
ATOM     28  H   UNL     1      -0.222   8.868  23.126  0.00  0.00    +0.000 HD
ATOM     29  H   UNL     1      -1.943  10.224  22.863  0.00  0.00    +0.000 HD
BRANCH  27  30
ATOM     30  C   UNL     1      -1.808  12.311  22.641  0.00  0.00    +0.000 C 
ATOM     31  C   UNL     1      -2.893  12.590  21.658  0.00  0.00    +0.000 C 
ATOM     32  C   UNL     1      -3.194  12.628  23.142  0.00  0.00    +0.000 C 
BRANCH  32  33
ATOM     33  C   UNL     1      -3.568  13.970  23.720  0.00  0.00    +0.000 A 
ATOM     34  C   UNL     1      -2.652  14.647  24.538  0.00  0.00    +0.000 A 
ATOM     35  C   UNL     1      -2.972  15.855  25.159  0.00  0.00    +0.000 A 
ATOM     36  C   UNL     1      -4.225  16.420  24.954  0.00  0.00    +0.000 A 
ATOM     37  C   UNL     1      -5.141  15.794  24.109  0.00  0.00    +0.000 A 
ATOM     38  C   UNL     1      -4.812  14.584  23.490  0.00  0.00    +0.000 A 
ENDBRANCH  32  33
ENDBRANCH  27  30
ENDBRANCH  23  24
ENDBRANCH  22  23
ENDBRANCH  21  22
ENDBRANCH   1  21
TORSDOF 12
ENDMDL
MODEL 5
REMARK VINA RESULT:      -7.4      1.038      1.673
REMARK  Name = 
REMARK  13 active torsions:
REMARK  status: ('A' for Active; 'I' for Inactive)
REMARK    1  A    between atoms: C_1  and  O_2
REMARK    2  A    between atoms: O_2  and  C_3
REMARK    3  A    between atoms: C_6  and  S_7
REMARK    4  A    between atoms: S_7  and  N_10
REMARK    5  A    between atoms: N_10  and  C_11
REMARK    6  A    between atoms: C_11  and  C_12
REMARK    7  A    between atoms: C_11  and  C_28
REMARK    8  A    between atoms: C_12  and  C_13
REMARK    9  A    between atoms: C_13  and  C_14
REMARK   10  A    between atoms: C_14  and  N_15
REMARK   11  A    between atoms: N_18  and  C_19
REMARK   12  A    between atoms: C_21  and  C_22
REMARK   13  A    between atoms: N_30  and  O_31
REMARK                            x       y       z     vdW  Elec       q    Type
REMARK                         _______ _______ _______ _____ _____    ______ ____
ROOT
ATOM      1  C   UNL     1       2.878   5.202  19.701  0.00  0.00    +0.000 C 
ENDROOT
BRANCH   1   2
ATOM      2  C   UNL     1       1.952   4.287  20.496  0.00  0.00    +0.000 C 
ATOM      3  O   UNL     1       0.732   4.445  20.550  0.00  0.00    +0.000 OA
ATOM      4  N   UNL     1       2.528   3.302  21.259  0.00  0.00    +0.000 N 
ATOM      5  H   UNL     1       3.483   3.349  21.599  0.00  0.00    +0.000 HD
BRANCH   4   6
ATOM      6  O   UNL     1       1.603   2.673  22.141  0.00  0.00    +0.000 OA
ATOM      7  H   UNL     1       1.100   2.080  21.536  0.00  0.00    +0.000 HD
ENDBRANCH   4   6
ENDBRANCH   1   2
BRANCH   1   8
ATOM      8  N   UNL     1       3.274   4.690  18.352  0.00  0.00    +0.000 NA
ATOM      9  H   UNL     1       2.592   4.033  17.975  0.00  0.00    +0.000 HD
BRANCH   8  10
ATOM     10  S   UNL     1       4.831   4.028  18.165  0.00  0.00    +0.000 S 
ATOM     11  O   UNL     1       4.871   3.364  16.877  0.00  0.00    +0.000 OA
ATOM     12  O   UNL     1       5.140   3.336  19.393  0.00  0.00    +0.000 OA
BRANCH  10  16
ATOM     13  C   UNL     1       7.684   7.580  17.836  0.00  0.00    +0.000 A 
ATOM     14  C   UNL     1       6.503   7.547  17.088  0.00  0.00    +0.000 A 
ATOM     15  C   UNL     1       5.596   6.497  17.237  0.00  0.00    +0.000 A 
ATOM     16  C   UNL     1       5.892   5.457  18.126  0.00  0.00    +0.000 A 
ATOM     17  C   UNL     1       7.052   5.500  18.908  0.00  0.00    +0.000 A 
ATOM     18  C   UNL     1       7.959   6.553  18.743  0.00  0.00    +0.000 A 
BRANCH  13  20
ATOM     19  C   UNL     1       8.728   9.539  18.638  0.00  0.00    +0.000 C 
ATOM     20  O   UNL     1       8.514   8.631  17.562  0.00  0.00    +0.000 OA
ENDBRANCH  13  20
ENDBRANCH  10  16
ENDBRANCH   8  10
ENDBRANCH   1   8
BRANCH   1  21
ATOM     21  C   UNL     1       2.229   6.594  19.517  0.00  0.00    +0.000 C 
BRANCH  21  22
ATOM     22  C   UNL     1       2.265   7.186  18.099  0.00  0.00    +0.000 C 
BRANCH  22  23
ATOM     23  C   UNL     1       2.470   8.696  18.018  0.00  0.00    +0.000 C 
BRANCH  23  24
ATOM     24  N   UNL     1       1.238   9.367  17.704  0.00  0.00    +0.000 N 
ATOM     25  C   UNL     1       0.743  10.300  18.571  0.00  0.00    +0.000 C 
ATOM     26  O   UNL     1       1.297  10.636  19.608  0.00  0.00    +0.000 OA
ATOM     27  N   UNL     1      -0.438  10.825  18.115  0.00  0.00    +0.000 N 
ATOM     28  H   UNL     1       0.554   8.857  17.158  0.00  0.00    +0.000 HD
ATOM     29  H   UNL     1      -0.633  10.717  17.131  0.00  0.00    +0.000 HD
BRANCH  27  30
ATOM     30  C   UNL     1      -1.101  11.871  18.826  0.00  0.00    +0.000 C 
ATOM     31  C   UNL     1      -2.583  11.985  18.706  0.00  0.00    +0.000 C 
ATOM     32  C   UNL     1      -1.965  11.555  20.020  0.00  0.00    +0.000 C 
BRANCH  32  33
ATOM     33  C   UNL     1      -2.129  12.500  21.184  0.00  0.00    +0.000 A 
ATOM     34  C   UNL     1      -3.304  13.257  21.296  0.00  0.00    +0.000 A 
ATOM     35  C   UNL     1      -3.478  14.201  22.309  0.00  0.00    +0.000 A 
ATOM     36  C   UNL     1      -2.473  14.389  23.250  0.00  0.00    +0.000 A 
ATOM     37  C   UNL     1      -1.312  13.617  23.193  0.00  0.00    +0.000 A 
ATOM     38  C   UNL     1      -1.146  12.675  22.174  0.00  0.00    +0.000 A 
ENDBRANCH  32  33
ENDBRANCH  27  30
ENDBRANCH  23  24
ENDBRANCH  22  23
ENDBRANCH  21  22
ENDBRANCH   1  21
TORSDOF 12
ENDMDL
MODEL 6
REMARK VINA RESULT:      -7.3      1.224      1.860
REMARK  Name = 
REMARK  13 active torsions:
REMARK  status: ('A' for Active; 'I' for Inactive)
REMARK    1  A    between atoms: C_1  and  O_2
REMARK    2  A    between atoms: O_2  and  C_3
REMARK    3  A    between atoms: C_6  and  S_7
REMARK    4  A    between atoms: S_7  and  N_10
REMARK    5  A    between atoms: N_10  and  C_11
REMARK    6  A    between atoms: C_11  and  C_12
REMARK    7  A    between atoms: C_11  and  C_28
REMARK    8  A    between atoms: C_12  and  C_13
REMARK    9  A    between atoms: C_13  and  C_14
REMARK   10  A    between atoms: C_14  and  N_15
REMARK   11  A    between atoms: N_18  and  C_19
REMARK   12  A    between atoms: C_21  and  C_22
REMARK   13  A    between atoms: N_30  and  O_31
REMARK                            x       y       z     vdW  Elec       q    Type
REMARK                         _______ _______ _______ _____ _____    ______ ____
ROOT
ATOM      1  C   UNL     1       2.597   4.137  20.059  0.00  0.00    +0.000 C 
ENDROOT
BRANCH   1   2
ATOM      2  C   UNL     1       1.550   3.037  19.923  0.00  0.00    +0.000 C 
ATOM      3  O   UNL     1       1.198   2.320  20.861  0.00  0.00    +0.000 OA
ATOM      4  N   UNL     1       1.055   2.776  18.669  0.00  0.00    +0.000 N 
ATOM      5  H   UNL     1       1.556   3.004  17.816  0.00  0.00    +0.000 HD
BRANCH   4   6
ATOM      6  O   UNL     1       0.281   1.583  18.616  0.00  0.00    +0.000 OA
ATOM      7  H   UNL     1      -0.327   1.687  19.384  0.00  0.00    +0.000 HD
ENDBRANCH   4   6
ENDBRANCH   1   2
BRANCH   1   8
ATOM      8  N   UNL     1       3.228   4.577  18.776  0.00  0.00    +0.000 NA
ATOM      9  H   UNL     1       2.601   4.461  17.979  0.00  0.00    +0.000 HD
BRANCH   8  10
ATOM     10  S   UNL     1       4.752   3.940  18.367  0.00  0.00    +0.000 S 
ATOM     11  O   UNL     1       4.621   3.284  17.080  0.00  0.00    +0.000 OA
ATOM     12  O   UNL     1       5.241   3.246  19.533  0.00  0.00    +0.000 OA
BRANCH  10  16
ATOM     13  C   UNL     1       7.493   7.528  17.678  0.00  0.00    +0.000 A 
ATOM     14  C   UNL     1       6.254   7.448  17.034  0.00  0.00    +0.000 A 
ATOM     15  C   UNL     1       5.385   6.388  17.295  0.00  0.00    +0.000 A 
ATOM     16  C   UNL     1       5.776   5.385  18.189  0.00  0.00    +0.000 A 
ATOM     17  C   UNL     1       6.997   5.476  18.868  0.00  0.00    +0.000 A 
ATOM     18  C   UNL     1       7.865   6.539  18.592  0.00  0.00    +0.000 A 
BRANCH  13  20
ATOM     19  C   UNL     1       8.613   9.498  18.337  0.00  0.00    +0.000 C 
ATOM     20  O   UNL     1       8.275   8.584  17.299  0.00  0.00    +0.000 OA
ENDBRANCH  13  20
ENDBRANCH  10  16
ENDBRANCH   8  10
ENDBRANCH   1   8
BRANCH   1  21
ATOM     21  C   UNL     1       1.983   5.381  20.745  0.00  0.00    +0.000 C 
BRANCH  21  22
ATOM     22  C   UNL     1       2.171   6.725  20.023  0.00  0.00    +0.000 C 
BRANCH  22  23
ATOM     23  C   UNL     1       1.589   7.944  20.735  0.00  0.00    +0.000 C 
BRANCH  23  24
ATOM     24  N   UNL     1       1.295   8.995  19.800  0.00  0.00    +0.000 N 
ATOM     25  C   UNL     1       0.214   9.803  20.018  0.00  0.00    +0.000 C 
ATOM     26  O   UNL     1      -0.524   9.715  20.989  0.00  0.00    +0.000 OA
ATOM     27  N   UNL     1       0.083  10.737  19.024  0.00  0.00    +0.000 N 
ATOM     28  H   UNL     1       1.552   8.845  18.831  0.00  0.00    +0.000 HD
ATOM     29  H   UNL     1       0.902  10.922  18.463  0.00  0.00    +0.000 HD
BRANCH  27  30
ATOM     30  C   UNL     1      -0.937  11.734  19.081  0.00  0.00    +0.000 C 
ATOM     31  C   UNL     1      -1.502  12.250  17.801  0.00  0.00    +0.000 C 
ATOM     32  C   UNL     1      -2.359  11.396  18.713  0.00  0.00    +0.000 C 
BRANCH  32  33
ATOM     33  C   UNL     1      -3.550  12.070  19.345  0.00  0.00    +0.000 A 
ATOM     34  C   UNL     1      -3.380  12.802  20.529  0.00  0.00    +0.000 A 
ATOM     35  C   UNL     1      -4.458  13.383  21.197  0.00  0.00    +0.000 A 
ATOM     36  C   UNL     1      -5.739  13.255  20.673  0.00  0.00    +0.000 A 
ATOM     37  C   UNL     1      -5.935  12.573  19.472  0.00  0.00    +0.000 A 
ATOM     38  C   UNL     1      -4.848  11.993  18.809  0.00  0.00    +0.000 A 
ENDBRANCH  32  33
ENDBRANCH  27  30
ENDBRANCH  23  24
ENDBRANCH  22  23
ENDBRANCH  21  22
ENDBRANCH   1  21
TORSDOF 12
ENDMDL
MODEL 7
REMARK VINA RESULT:      -7.3      4.439      9.246
REMARK  Name = 
REMARK  13 active torsions:
REMARK  status: ('A' for Active; 'I' for Inactive)
REMARK    1  A    between atoms: C_1  and  O_2
REMARK    2  A    between atoms: O_2  and  C_3
REMARK    3  A    between atoms: C_6  and  S_7
REMARK    4  A    between atoms: S_7  and  N_10
REMARK    5  A    between atoms: N_10  and  C_11
REMARK    6  A    between atoms: C_11  and  C_12
REMARK    7  A    between atoms: C_11  and  C_28
REMARK    8  A    between atoms: C_12  and  C_13
REMARK    9  A    between atoms: C_13  and  C_14
REMARK   10  A    between atoms: C_14  and  N_15
REMARK   11  A    between atoms: N_18  and  C_19
REMARK   12  A    between atoms: C_21  and  C_22
REMARK   13  A    between atoms: N_30  and  O_31
REMARK                            x       y       z     vdW  Elec       q    Type
REMARK                         _______ _______ _______ _____ _____    ______ ____
ROOT
ATOM      1  C   UNL     1       6.332   5.161  16.548  0.00  0.00    +0.000 C 
ENDROOT
BRANCH   1   2
ATOM      2  C   UNL     1       6.798   4.736  15.159  0.00  0.00    +0.000 C 
ATOM      3  O   UNL     1       7.601   5.387  14.489  0.00  0.00    +0.000 OA
ATOM      4  N   UNL     1       6.215   3.626  14.601  0.00  0.00    +0.000 N 
ATOM      5  H   UNL     1       5.298   3.285  14.872  0.00  0.00    +0.000 HD
BRANCH   4   6
ATOM      6  O   UNL     1       6.538   3.464  13.224  0.00  0.00    +0.000 OA
ATOM      7  H   UNL     1       6.185   4.291  12.822  0.00  0.00    +0.000 HD
ENDBRANCH   4   6
ENDBRANCH   1   2
BRANCH   1   8
ATOM      8  N   UNL     1       5.928   4.041  17.453  0.00  0.00    +0.000 NA
ATOM      9  H   UNL     1       5.185   3.470  17.051  0.00  0.00    +0.000 HD
BRANCH   8  10
ATOM     10  S   UNL     1       5.518   4.412  19.063  0.00  0.00    +0.000 S 
ATOM     11  O   UNL     1       6.655   5.089  19.658  0.00  0.00    +0.000 OA
ATOM     12  O   UNL     1       4.955   3.213  19.637  0.00  0.00    +0.000 OA
BRANCH  10  16
ATOM     13  C   UNL     1       2.222   7.558  18.755  0.00  0.00    +0.000 A 
ATOM     14  C   UNL     1       3.179   7.432  17.744  0.00  0.00    +0.000 A 
ATOM     15  C   UNL     1       4.146   6.428  17.801  0.00  0.00    +0.000 A 
ATOM     16  C   UNL     1       4.168   5.560  18.898  0.00  0.00    +0.000 A 
ATOM     17  C   UNL     1       3.191   5.653  19.897  0.00  0.00    +0.000 A 
ATOM     18  C   UNL     1       2.232   6.670  19.834  0.00  0.00    +0.000 A 
BRANCH  13  20
ATOM     19  C   UNL     1       1.888   9.739  17.917  0.00  0.00    +0.000 C 
ATOM     20  O   UNL     1       1.363   8.612  18.612  0.00  0.00    +0.000 OA
ENDBRANCH  13  20
ENDBRANCH  10  16
ENDBRANCH   8  10
ENDBRANCH   1   8
BRANCH   1  21
ATOM     21  C   UNL     1       7.436   5.980  17.258  0.00  0.00    +0.000 C 
BRANCH  21  22
ATOM     22  C   UNL     1       7.223   7.501  17.329  0.00  0.00    +0.000 C 
BRANCH  22  23
ATOM     23  C   UNL     1       8.201   8.263  18.219  0.00  0.00    +0.000 C 
BRANCH  23  24
ATOM     24  N   UNL     1       8.492   9.561  17.672  0.00  0.00    +0.000 N 
ATOM     25  C   UNL     1       9.131  10.487  18.448  0.00  0.00    +0.000 C 
ATOM     26  O   UNL     1       9.509  10.281  19.592  0.00  0.00    +0.000 OA
ATOM     27  N   UNL     1       9.313  11.663  17.768  0.00  0.00    +0.000 N 
ATOM     28  H   UNL     1       7.857   9.926  16.972  0.00  0.00    +0.000 HD
ATOM     29  H   UNL     1       9.255  11.620  16.762  0.00  0.00    +0.000 HD
BRANCH  27  30
ATOM     30  C   UNL     1      10.024  12.752  18.359  0.00  0.00    +0.000 C 
ATOM     31  C   UNL     1      11.500  12.828  18.165  0.00  0.00    +0.000 C 
ATOM     32  C   UNL     1      10.599  13.848  17.499  0.00  0.00    +0.000 C 
BRANCH  32  33
ATOM     33  C   UNL     1      10.730  15.274  17.971  0.00  0.00    +0.000 A 
ATOM     34  C   UNL     1      10.402  15.595  19.296  0.00  0.00    +0.000 A 
ATOM     35  C   UNL     1      10.433  16.908  19.765  0.00  0.00    +0.000 A 
ATOM     36  C   UNL     1      10.817  17.933  18.908  0.00  0.00    +0.000 A 
ATOM     37  C   UNL     1      11.194  17.640  17.597  0.00  0.00    +0.000 A 
ATOM     38  C   UNL     1      11.159  16.321  17.136  0.00  0.00    +0.000 A 
ENDBRANCH  32  33
ENDBRANCH  27  30
ENDBRANCH  23  24
ENDBRANCH  22  23
ENDBRANCH  21  22
ENDBRANCH   1  21
TORSDOF 12
ENDMDL
MODEL 8
REMARK VINA RESULT:      -7.2      3.665      9.255
REMARK  Name = 
REMARK  13 active torsions:
REMARK  status: ('A' for Active; 'I' for Inactive)
REMARK    1  A    between atoms: C_1  and  O_2
REMARK    2  A    between atoms: O_2  and  C_3
REMARK    3  A    between atoms: C_6  and  S_7
REMARK    4  A    between atoms: S_7  and  N_10
REMARK    5  A    between atoms: N_10  and  C_11
REMARK    6  A    between atoms: C_11  and  C_12
REMARK    7  A    between atoms: C_11  and  C_28
REMARK    8  A    between atoms: C_12  and  C_13
REMARK    9  A    between atoms: C_13  and  C_14
REMARK   10  A    between atoms: C_14  and  N_15
REMARK   11  A    between atoms: N_18  and  C_19
REMARK   12  A    between atoms: C_21  and  C_22
REMARK   13  A    between atoms: N_30  and  O_31
REMARK                            x       y       z     vdW  Elec       q    Type
REMARK                         _______ _______ _______ _____ _____    ______ ____
ROOT
ATOM      1  C   UNL     1       5.017   5.548  17.351  0.00  0.00    +0.000 C 
ENDROOT
BRANCH   1   2
ATOM      2  C   UNL     1       5.280   5.575  15.849  0.00  0.00    +0.000 C 
ATOM      3  O   UNL     1       5.172   6.594  15.164  0.00  0.00    +0.000 OA
ATOM      4  N   UNL     1       5.553   4.383  15.226  0.00  0.00    +0.000 N 
ATOM      5  H   UNL     1       5.266   3.484  15.598  0.00  0.00    +0.000 HD
BRANCH   4   6
ATOM      6  O   UNL     1       5.537   4.484  13.806  0.00  0.00    +0.000 OA
ATOM      7  H   UNL     1       5.295   5.427  13.661  0.00  0.00    +0.000 HD
ENDBRANCH   4   6
ENDBRANCH   1   2
BRANCH   1   8
ATOM      8  N   UNL     1       3.675   5.023  17.752  0.00  0.00    +0.000 NA
ATOM      9  H   UNL     1       2.949   5.267  17.078  0.00  0.00    +0.000 HD
BRANCH   8  10
ATOM     10  S   UNL     1       3.105   5.376  19.317  0.00  0.00    +0.000 S 
ATOM     11  O   UNL     1       4.262   5.532  20.178  0.00  0.00    +0.000 OA
ATOM     12  O   UNL     1       2.059   4.424  19.604  0.00  0.00    +0.000 OA
BRANCH  10  16
ATOM     13  C   UNL     1       1.290   9.540  18.836  0.00  0.00    +0.000 A 
ATOM     14  C   UNL     1       1.762   8.838  17.722  0.00  0.00    +0.000 A 
ATOM     15  C   UNL     1       2.254   7.540  17.855  0.00  0.00    +0.000 A 
ATOM     16  C   UNL     1       2.297   6.951  19.124  0.00  0.00    +0.000 A 
ATOM     17  C   UNL     1       1.792   7.629  20.240  0.00  0.00    +0.000 A 
ATOM     18  C   UNL     1       1.310   8.935  20.095  0.00  0.00    +0.000 A 
BRANCH  13  20
ATOM     19  C   UNL     1       1.865  11.829  18.807  0.00  0.00    +0.000 C 
ATOM     20  O   UNL     1       0.885  10.821  18.584  0.00  0.00    +0.000 OA
ENDBRANCH  13  20
ENDBRANCH  10  16
ENDBRANCH   8  10
ENDBRANCH   1   8
BRANCH   1  21
ATOM     21  C   UNL     1       6.098   4.707  18.070  0.00  0.00    +0.000 C 
BRANCH  21  22
ATOM     22  C   UNL     1       7.294   5.479  18.651  0.00  0.00    +0.000 C 
BRANCH  22  23
ATOM     23  C   UNL     1       7.619   6.805  17.968  0.00  0.00    +0.000 C 
BRANCH  23  24
ATOM     24  N   UNL     1       8.455   7.624  18.802  0.00  0.00    +0.000 N 
ATOM     25  C   UNL     1       8.484   8.975  18.602  0.00  0.00    +0.000 C 
ATOM     26  O   UNL     1       7.813   9.559  17.763  0.00  0.00    +0.000 OA
ATOM     27  N   UNL     1       9.340   9.590  19.478  0.00  0.00    +0.000 N 
ATOM     28  H   UNL     1       9.306   7.208  19.163  0.00  0.00    +0.000 HD
ATOM     29  H   UNL     1       9.588   9.073  20.309  0.00  0.00    +0.000 HD
BRANCH  27  30
ATOM     30  C   UNL     1       9.477  11.011  19.498  0.00  0.00    +0.000 C 
ATOM     31  C   UNL     1       9.851  11.672  20.781  0.00  0.00    +0.000 C 
ATOM     32  C   UNL     1      10.837  11.647  19.631  0.00  0.00    +0.000 C 
BRANCH  32  33
ATOM     33  C   UNL     1      11.182  12.976  19.009  0.00  0.00    +0.000 A 
ATOM     34  C   UNL     1      10.835  13.223  17.673  0.00  0.00    +0.000 A 
ATOM     35  C   UNL     1      11.195  14.406  17.025  0.00  0.00    +0.000 A 
ATOM     36  C   UNL     1      11.902  15.380  17.720  0.00  0.00    +0.000 A 
ATOM     37  C   UNL     1      12.222  15.184  19.063  0.00  0.00    +0.000 A 
ATOM     38  C   UNL     1      11.857  13.996  19.704  0.00  0.00    +0.000 A 
ENDBRANCH  32  33
ENDBRANCH  27  30
ENDBRANCH  23  24
ENDBRANCH  22  23
ENDBRANCH  21  22
ENDBRANCH   1  21
TORSDOF 12
ENDMDL
MODEL 9
REMARK VINA RESULT:      -7.2      3.103      3.985
REMARK  Name = 
REMARK  13 active torsions:
REMARK  status: ('A' for Active; 'I' for Inactive)
REMARK    1  A    between atoms: C_1  and  O_2
REMARK    2  A    between atoms: O_2  and  C_3
REMARK    3  A    between atoms: C_6  and  S_7
REMARK    4  A    between atoms: S_7  and  N_10
REMARK    5  A    between atoms: N_10  and  C_11
REMARK    6  A    between atoms: C_11  and  C_12
REMARK    7  A    between atoms: C_11  and  C_28
REMARK    8  A    between atoms: C_12  and  C_13
REMARK    9  A    between atoms: C_13  and  C_14
REMARK   10  A    between atoms: C_14  and  N_15
REMARK   11  A    between atoms: N_18  and  C_19
REMARK   12  A    between atoms: C_21  and  C_22
REMARK   13  A    between atoms: N_30  and  O_31
REMARK                            x       y       z     vdW  Elec       q    Type
REMARK                         _______ _______ _______ _____ _____    ______ ____
ROOT
ATOM      1  C   UNL     1       2.901   5.683  20.075  0.00  0.00    +0.000 C 
ENDROOT
BRANCH   1   2
ATOM      2  C   UNL     1       2.013   4.579  20.639  0.00  0.00    +0.000 C 
ATOM      3  O   UNL     1       2.247   4.003  21.702  0.00  0.00    +0.000 OA
ATOM      4  N   UNL     1       0.961   4.148  19.869  0.00  0.00    +0.000 N 
ATOM      5  H   UNL     1       0.933   4.252  18.860  0.00  0.00    +0.000 HD
BRANCH   4   6
ATOM      6  O   UNL     1       0.355   2.962  20.372  0.00  0.00    +0.000 OA
ATOM      7  H   UNL     1      -0.408   3.313  20.887  0.00  0.00    +0.000 HD
ENDBRANCH   4   6
ENDBRANCH   1   2
BRANCH   1   8
ATOM      8  N   UNL     1       3.473   5.409  18.720  0.00  0.00    +0.000 NA
ATOM      9  H   UNL     1       2.798   5.580  17.975  0.00  0.00    +0.000 HD
BRANCH   8  10
ATOM     10  S   UNL     1       4.215   3.901  18.447  0.00  0.00    +0.000 S 
ATOM     11  O   UNL     1       3.185   2.981  18.004  0.00  0.00    +0.000 OA
ATOM     12  O   UNL     1       5.041   3.629  19.598  0.00  0.00    +0.000 OA
BRANCH  10  16
ATOM     13  C   UNL     1       7.025   5.003  15.019  0.00  0.00    +0.000 A 
ATOM     14  C   UNL     1       7.464   5.067  16.345  0.00  0.00    +0.000 A 
ATOM     15  C   UNL     1       6.631   4.666  17.390  0.00  0.00    +0.000 A 
ATOM     16  C   UNL     1       5.336   4.223  17.102  0.00  0.00    +0.000 A 
ATOM     17  C   UNL     1       4.900   4.118  15.776  0.00  0.00    +0.000 A 
ATOM     18  C   UNL     1       5.740   4.532  14.736  0.00  0.00    +0.000 A 
BRANCH  13  20
ATOM     19  C   UNL     1       7.674   5.059  12.751  0.00  0.00    +0.000 C 
ATOM     20  O   UNL     1       7.913   5.474  14.092  0.00  0.00    +0.000 OA
ENDBRANCH  13  20
ENDBRANCH  10  16
ENDBRANCH   8  10
ENDBRANCH   1   8
BRANCH   1  21
ATOM     21  C   UNL     1       2.122   7.018  20.008  0.00  0.00    +0.000 C 
BRANCH  21  22
ATOM     22  C   UNL     1       1.322   7.409  21.262  0.00  0.00    +0.000 C 
BRANCH  22  23
ATOM     23  C   UNL     1       0.415   8.627  21.113  0.00  0.00    +0.000 C 
BRANCH  23  24
ATOM     24  N   UNL     1       1.084   9.685  20.406  0.00  0.00    +0.000 N 
ATOM     25  C   UNL     1       0.725  10.982  20.643  0.00  0.00    +0.000 C 
ATOM     26  O   UNL     1      -0.125  11.322  21.454  0.00  0.00    +0.000 OA
ATOM     27  N   UNL     1       1.458  11.849  19.876  0.00  0.00    +0.000 N 
ATOM     28  H   UNL     1       1.428   9.480  19.475  0.00  0.00    +0.000 HD
ATOM     29  H   UNL     1       2.323  11.497  19.493  0.00  0.00    +0.000 HD
BRANCH  27  30
ATOM     30  C   UNL     1       1.302  13.262  20.009  0.00  0.00    +0.000 C 
ATOM     31  C   UNL     1       2.486  14.075  20.408  0.00  0.00    +0.000 C 
ATOM     32  C   UNL     1       1.926  14.199  19.007  0.00  0.00    +0.000 C 
BRANCH  32  33
ATOM     33  C   UNL     1       1.315  15.528  18.639  0.00  0.00    +0.000 A 
ATOM     34  C   UNL     1      -0.073  15.700  18.739  0.00  0.00    +0.000 A 
ATOM     35  C   UNL     1      -0.699  16.882  18.342  0.00  0.00    +0.000 A 
ATOM     36  C   UNL     1       0.068  17.932  17.850  0.00  0.00    +0.000 A 
ATOM     37  C   UNL     1       1.455  17.808  17.782  0.00  0.00    +0.000 A 
ATOM     38  C   UNL     1       2.074  16.620  18.182  0.00  0.00    +0.000 A 
ENDBRANCH  32  33
ENDBRANCH  27  30
ENDBRANCH  23  24
ENDBRANCH  22  23
ENDBRANCH  21  22
ENDBRANCH   1  21
TORSDOF 12
ENDMDL
