MODEL 1
REMARK VINA RESULT:      -8.7      0.000      0.000
REMARK  Name = 
REMARK  8 active torsions:
REMARK  status: ('A' for Active; 'I' for Inactive)
REMARK    1  A    between atoms: C_1  and  C_2
REMARK    2  A    between atoms: C_2  and  O_3
REMARK    3  A    between atoms: O_3  and  C_4
REMARK    4  A    between atoms: N_13  and  C_14
REMARK    5  A    between atoms: N_16  and  C_17
REMARK    6  A    between atoms: C_17  and  C_18
REMARK    7  A    between atoms: C_18  and  C_19
REMARK    8  A    between atoms: C_18  and  C_20
REMARK                            x       y       z     vdW  Elec       q    Type
REMARK                         _______ _______ _______ _____ _____    ______ ____
ROOT
ATOM      1  C   UNL     1      -2.038  13.960  21.604  0.00  0.00    +0.000 A 
ATOM      2  C   UNL     1      -2.225  13.527  22.912  0.00  0.00    +0.000 A 
ATOM      3  C   UNL     1      -1.610  12.354  23.383  0.00  0.00    +0.000 A 
ATOM      4  C   UNL     1      -0.784  11.601  22.526  0.00  0.00    +0.000 A 
ATOM      5  N   UNL     1      -0.094  10.435  22.850  0.00  0.00    +0.000 NA
ATOM      6  C   UNL     1       0.513   9.975  21.775  0.00  0.00    +0.000 A 
ATOM      7  N   UNL     1       1.246   8.799  21.762  0.00  0.00    +0.000 N 
ATOM      8  C   UNL     1       1.493   8.090  20.610  0.00  0.00    +0.000 C 
ATOM      9  O   UNL     1       1.086   8.424  19.499  0.00  0.00    +0.000 OA
ATOM     10  N   UNL     1       2.230   6.926  20.789  0.00  0.00    +0.000 N 
ATOM     11  S   UNL     1       0.416  10.977  20.392  0.00  0.00    +0.000 S 
ATOM     12  C   UNL     1      -0.618  12.055  21.218  0.00  0.00    +0.000 A 
ATOM     13  C   UNL     1      -1.228  13.224  20.736  0.00  0.00    +0.000 A 
ATOM     14  H   UNL     1       1.362   8.371  22.665  0.00  0.00    +0.000 HD
ATOM     15  H   UNL     1       2.194   6.501  21.704  0.00  0.00    +0.000 HD
ENDROOT
BRANCH  10  16
ATOM     16  C   UNL     1       2.693   6.150  19.719  0.00  0.00    +0.000 A 
ATOM     17  C   UNL     1       3.686   6.583  18.916  0.00  0.00    +0.000 A 
ATOM     18  N   UNL     1       4.178   5.897  17.826  0.00  0.00    +0.000 N 
ATOM     19  C   UNL     1       3.664   4.665  17.437  0.00  0.00    +0.000 A 
ATOM     20  O   UNL     1       4.068   4.027  16.469  0.00  0.00    +0.000 OA
ATOM     21  C   UNL     1       2.583   4.104  18.292  0.00  0.00    +0.000 A 
ATOM     22  C   UNL     1       2.051   2.853  17.938  0.00  0.00    +0.000 A 
ATOM     23  C   UNL     1       1.071   2.267  18.729  0.00  0.00    +0.000 A 
ATOM     24  C   UNL     1       0.610   2.937  19.858  0.00  0.00    +0.000 A 
ATOM     25  C   UNL     1       1.123   4.199  20.200  0.00  0.00    +0.000 A 
ATOM     26  C   UNL     1       2.130   4.807  19.429  0.00  0.00    +0.000 A 
BRANCH  18  27
ATOM     27  C   UNL     1       5.326   6.460  17.105  0.00  0.00    +0.000 C 
BRANCH  27  28
ATOM     28  C   UNL     1       6.695   6.366  17.811  0.00  0.00    +0.000 C 
ATOM     29  C   UNL     1       7.473   5.102  17.451  0.00  0.00    +0.000 C 
ATOM     30  C   UNL     1       7.566   7.599  17.580  0.00  0.00    +0.000 C 
ENDBRANCH  27  28
ENDBRANCH  18  27
ENDBRANCH  10  16
BRANCH   1  31
ATOM     31  O   UNL     1      -2.588  15.089  21.049  0.00  0.00    +0.000 OA
BRANCH  31  33
ATOM     32  C   UNL     1      -0.739  16.540  21.527  0.00  0.00    +0.000 C 
ATOM     33  C   UNL     1      -2.234  16.326  21.666  0.00  0.00    +0.000 C 
ENDBRANCH  31  33
ENDBRANCH   1  31
TORSDOF 5
ENDMDL
MODEL 2
REMARK VINA RESULT:      -8.7      1.121      1.485
REMARK  Name = 
REMARK  8 active torsions:
REMARK  status: ('A' for Active; 'I' for Inactive)
REMARK    1  A    between atoms: C_1  and  C_2
REMARK    2  A    between atoms: C_2  and  O_3
REMARK    3  A    between atoms: O_3  and  C_4
REMARK    4  A    between atoms: N_13  and  C_14
REMARK    5  A    between atoms: N_16  and  C_17
REMARK    6  A    between atoms: C_17  and  C_18
REMARK    7  A    between atoms: C_18  and  C_19
REMARK    8  A    between atoms: C_18  and  C_20
REMARK                            x       y       z     vdW  Elec       q    Type
REMARK                         _______ _______ _______ _____ _____    ______ ____
ROOT
ATOM      1  C   UNL     1      -2.221  13.168  21.533  0.00  0.00    +0.000 A 
ATOM      2  C   UNL     1      -2.284  12.695  22.839  0.00  0.00    +0.000 A 
ATOM      3  C   UNL     1      -1.516  11.592  23.250  0.00  0.00    +0.000 A 
ATOM      4  C   UNL     1      -0.660  10.952  22.333  0.00  0.00    +0.000 A 
ATOM      5  N   UNL     1       0.174   9.867  22.594  0.00  0.00    +0.000 NA
ATOM      6  C   UNL     1       0.768   9.496  21.478  0.00  0.00    +0.000 A 
ATOM      7  N   UNL     1       1.627   8.411  21.399  0.00  0.00    +0.000 N 
ATOM      8  C   UNL     1       1.888   7.754  20.220  0.00  0.00    +0.000 C 
ATOM      9  O   UNL     1       1.384   8.057  19.141  0.00  0.00    +0.000 OA
ATOM     10  N   UNL     1       2.760   6.678  20.334  0.00  0.00    +0.000 N 
ATOM     11  S   UNL     1       0.482  10.503  20.125  0.00  0.00    +0.000 S 
ATOM     12  C   UNL     1      -0.619  11.443  21.028  0.00  0.00    +0.000 A 
ATOM     13  C   UNL     1      -1.383  12.543  20.606  0.00  0.00    +0.000 A 
ATOM     14  H   UNL     1       1.840   7.985  22.285  0.00  0.00    +0.000 HD
ATOM     15  H   UNL     1       2.822   6.238  21.240  0.00  0.00    +0.000 HD
ENDROOT
BRANCH  10  16
ATOM     16  C   UNL     1       3.246   5.977  19.224  0.00  0.00    +0.000 A 
ATOM     17  C   UNL     1       4.180   6.512  18.411  0.00  0.00    +0.000 A 
ATOM     18  N   UNL     1       4.688   5.903  17.283  0.00  0.00    +0.000 N 
ATOM     19  C   UNL     1       4.256   4.650  16.862  0.00  0.00    +0.000 A 
ATOM     20  O   UNL     1       4.677   4.078  15.860  0.00  0.00    +0.000 OA
ATOM     21  C   UNL     1       3.245   3.980  17.725  0.00  0.00    +0.000 A 
ATOM     22  C   UNL     1       2.797   2.706  17.340  0.00  0.00    +0.000 A 
ATOM     23  C   UNL     1       1.887   2.020  18.134  0.00  0.00    +0.000 A 
ATOM     24  C   UNL     1       1.412   2.614  19.300  0.00  0.00    +0.000 A 
ATOM     25  C   UNL     1       1.840   3.898  19.674  0.00  0.00    +0.000 A 
ATOM     26  C   UNL     1       2.776   4.607  18.899  0.00  0.00    +0.000 A 
BRANCH  18  27
ATOM     27  C   UNL     1       5.770   6.575  16.551  0.00  0.00    +0.000 C 
BRANCH  27  28
ATOM     28  C   UNL     1       7.190   6.427  17.136  0.00  0.00    +0.000 C 
ATOM     29  C   UNL     1       7.681   7.681  17.854  0.00  0.00    +0.000 C 
ATOM     30  C   UNL     1       7.329   5.212  18.053  0.00  0.00    +0.000 C 
ENDBRANCH  27  28
ENDBRANCH  18  27
ENDBRANCH  10  16
BRANCH   1  31
ATOM     31  O   UNL     1      -2.925  14.236  21.033  0.00  0.00    +0.000 OA
BRANCH  31  33
ATOM     32  C   UNL     1      -5.042  13.433  20.245  0.00  0.00    +0.000 C 
ATOM     33  C   UNL     1      -4.325  14.246  21.306  0.00  0.00    +0.000 C 
ENDBRANCH  31  33
ENDBRANCH   1  31
TORSDOF 5
ENDMDL
MODEL 3
REMARK VINA RESULT:      -8.6      1.011      1.301
REMARK  Name = 
REMARK  8 active torsions:
REMARK  status: ('A' for Active; 'I' for Inactive)
REMARK    1  A    between atoms: C_1  and  C_2
REMARK    2  A    between atoms: C_2  and  O_3
REMARK    3  A    between atoms: O_3  and  C_4
REMARK    4  A    between atoms: N_13  and  C_14
REMARK    5  A    between atoms: N_16  and  C_17
REMARK    6  A    between atoms: C_17  and  C_18
REMARK    7  A    between atoms: C_18  and  C_19
REMARK    8  A    between atoms: C_18  and  C_20
REMARK                            x       y       z     vdW  Elec       q    Type
REMARK                         _______ _______ _______ _____ _____    ______ ____
ROOT
ATOM      1  C   UNL     1      -2.809  13.599  21.446  0.00  0.00    +0.000 A 
ATOM      2  C   UNL     1      -2.722  13.322  22.807  0.00  0.00    +0.000 A 
ATOM      3  C   UNL     1      -1.868  12.316  23.289  0.00  0.00    +0.000 A 
ATOM      4  C   UNL     1      -1.077  11.575  22.389  0.00  0.00    +0.000 A 
ATOM      5  N   UNL     1      -0.172  10.567  22.715  0.00  0.00    +0.000 NA
ATOM      6  C   UNL     1       0.326  10.055  21.607  0.00  0.00    +0.000 A 
ATOM      7  N   UNL     1       1.222   8.998  21.595  0.00  0.00    +0.000 N 
ATOM      8  C   UNL     1       1.396   8.182  20.502  0.00  0.00    +0.000 C 
ATOM      9  O   UNL     1       0.775   8.309  19.449  0.00  0.00    +0.000 OA
ATOM     10  N   UNL     1       2.323   7.164  20.677  0.00  0.00    +0.000 N 
ATOM     11  S   UNL     1      -0.138  10.842  20.161  0.00  0.00    +0.000 S 
ATOM     12  C   UNL     1      -1.187  11.870  21.031  0.00  0.00    +0.000 A 
ATOM     13  C   UNL     1      -2.039  12.872  20.537  0.00  0.00    +0.000 A 
ATOM     14  H   UNL     1       1.540   8.714  22.507  0.00  0.00    +0.000 HD
ATOM     15  H   UNL     1       2.495   6.863  21.625  0.00  0.00    +0.000 HD
ENDROOT
BRANCH  10  16
ATOM     16  C   UNL     1       2.730   6.322  19.634  0.00  0.00    +0.000 A 
ATOM     17  C   UNL     1       3.686   6.700  18.761  0.00  0.00    +0.000 A 
ATOM     18  N   UNL     1       4.122   5.947  17.691  0.00  0.00    +0.000 N 
ATOM     19  C   UNL     1       3.584   4.699  17.400  0.00  0.00    +0.000 A 
ATOM     20  O   UNL     1       3.938   4.002  16.453  0.00  0.00    +0.000 OA
ATOM     21  C   UNL     1       2.542   4.197  18.337  0.00  0.00    +0.000 A 
ATOM     22  C   UNL     1       1.988   2.932  18.083  0.00  0.00    +0.000 A 
ATOM     23  C   UNL     1       1.044   2.400  18.952  0.00  0.00    +0.000 A 
ATOM     24  C   UNL     1       0.640   3.140  20.061  0.00  0.00    +0.000 A 
ATOM     25  C   UNL     1       1.175   4.415  20.303  0.00  0.00    +0.000 A 
ATOM     26  C   UNL     1       2.147   4.969  19.450  0.00  0.00    +0.000 A 
BRANCH  18  27
ATOM     27  C   UNL     1       5.237   6.458  16.884  0.00  0.00    +0.000 C 
BRANCH  27  28
ATOM     28  C   UNL     1       6.650   5.984  17.286  0.00  0.00    +0.000 C 
ATOM     29  C   UNL     1       7.332   5.141  16.212  0.00  0.00    +0.000 C 
ATOM     30  C   UNL     1       7.563   7.136  17.704  0.00  0.00    +0.000 C 
ENDBRANCH  27  28
ENDBRANCH  18  27
ENDBRANCH  10  16
BRANCH   1  31
ATOM     31  O   UNL     1      -3.607  14.560  20.875  0.00  0.00    +0.000 OA
BRANCH  31  33
ATOM     32  C   UNL     1      -5.814  13.682  20.546  0.00  0.00    +0.000 C 
ATOM     33  C   UNL     1      -4.949  14.627  21.357  0.00  0.00    +0.000 C 
ENDBRANCH  31  33
ENDBRANCH   1  31
TORSDOF 5
ENDMDL
MODEL 4
REMARK VINA RESULT:      -8.4      1.024      1.212
REMARK  Name = 
REMARK  8 active torsions:
REMARK  status: ('A' for Active; 'I' for Inactive)
REMARK    1  A    between atoms: C_1  and  C_2
REMARK    2  A    between atoms: C_2  and  O_3
REMARK    3  A    between atoms: O_3  and  C_4
REMARK    4  A    between atoms: N_13  and  C_14
REMARK    5  A    between atoms: N_16  and  C_17
REMARK    6  A    between atoms: C_17  and  C_18
REMARK    7  A    between atoms: C_18  and  C_19
REMARK    8  A    between atoms: C_18  and  C_20
REMARK                            x       y       z     vdW  Elec       q    Type
REMARK                         _______ _______ _______ _____ _____    ______ ____
ROOT
ATOM      1  C   UNL     1      -1.028  14.833  20.936  0.00  0.00    +0.000 A 
ATOM      2  C   UNL     1      -1.536  14.427  22.166  0.00  0.00    +0.000 A 
ATOM      3  C   UNL     1      -1.243  13.156  22.688  0.00  0.00    +0.000 A 
ATOM      4  C   UNL     1      -0.417  12.273  21.966  0.00  0.00    +0.000 A 
ATOM      5  N   UNL     1      -0.022  10.996  22.359  0.00  0.00    +0.000 NA
ATOM      6  C   UNL     1       0.687  10.444  21.396  0.00  0.00    +0.000 A 
ATOM      7  N   UNL     1       1.187   9.152  21.465  0.00  0.00    +0.000 N 
ATOM      8  C   UNL     1       1.519   8.423  20.347  0.00  0.00    +0.000 C 
ATOM      9  O   UNL     1       1.398   8.839  19.198  0.00  0.00    +0.000 OA
ATOM     10  N   UNL     1       1.987   7.141  20.607  0.00  0.00    +0.000 N 
ATOM     11  S   UNL     1       1.038  11.461  20.066  0.00  0.00    +0.000 S 
ATOM     12  C   UNL     1       0.075  12.702  20.734  0.00  0.00    +0.000 A 
ATOM     13  C   UNL     1      -0.212  13.970  20.201  0.00  0.00    +0.000 A 
ATOM     14  H   UNL     1       1.049   8.701  22.354  0.00  0.00    +0.000 HD
ATOM     15  H   UNL     1       1.701   6.720  21.479  0.00  0.00    +0.000 HD
ENDROOT
BRANCH  10  16
ATOM     16  C   UNL     1       2.499   6.305  19.608  0.00  0.00    +0.000 A 
ATOM     17  C   UNL     1       3.462   6.729  18.764  0.00  0.00    +0.000 A 
ATOM     18  N   UNL     1       3.997   5.982  17.736  0.00  0.00    +0.000 N 
ATOM     19  C   UNL     1       3.564   4.690  17.460  0.00  0.00    +0.000 A 
ATOM     20  O   UNL     1       4.009   3.996  16.549  0.00  0.00    +0.000 OA
ATOM     21  C   UNL     1       2.521   4.139  18.366  0.00  0.00    +0.000 A 
ATOM     22  C   UNL     1       2.071   2.830  18.128  0.00  0.00    +0.000 A 
ATOM     23  C   UNL     1       1.130   2.254  18.972  0.00  0.00    +0.000 A 
ATOM     24  C   UNL     1       0.627   2.990  20.040  0.00  0.00    +0.000 A 
ATOM     25  C   UNL     1       1.057   4.307  20.267  0.00  0.00    +0.000 A 
ATOM     26  C   UNL     1       2.024   4.909  19.439  0.00  0.00    +0.000 A 
BRANCH  18  27
ATOM     27  C   UNL     1       5.107   6.551  16.961  0.00  0.00    +0.000 C 
BRANCH  27  28
ATOM     28  C   UNL     1       6.531   6.149  17.402  0.00  0.00    +0.000 C 
ATOM     29  C   UNL     1       6.580   5.545  18.803  0.00  0.00    +0.000 C 
ATOM     30  C   UNL     1       7.216   5.215  16.406  0.00  0.00    +0.000 C 
ENDBRANCH  27  28
ENDBRANCH  18  27
ENDBRANCH  10  16
BRANCH   1  31
ATOM     31  O   UNL     1      -1.250  16.050  20.341  0.00  0.00    +0.000 OA
BRANCH  31  33
ATOM     32  C   UNL     1      -0.801  17.208  18.290  0.00  0.00    +0.000 C 
ATOM     33  C   UNL     1      -0.198  16.543  19.513  0.00  0.00    +0.000 C 
ENDBRANCH  31  33
ENDBRANCH   1  31
TORSDOF 5
ENDMDL
MODEL 5
REMARK VINA RESULT:      -8.2      1.959      4.305
REMARK  Name = 
REMARK  8 active torsions:
REMARK  status: ('A' for Active; 'I' for Inactive)
REMARK    1  A    between atoms: C_1  and  C_2
REMARK    2  A    between atoms: C_2  and  O_3
REMARK    3  A    between atoms: O_3  and  C_4
REMARK    4  A    between atoms: N_13  and  C_14
REMARK    5  A    between atoms: N_16  and  C_17
REMARK    6  A    between atoms: C_17  and  C_18
REMARK    7  A    between atoms: C_18  and  C_19
REMARK    8  A    between atoms: C_18  and  C_20
REMARK                            x       y       z     vdW  Elec       q    Type
REMARK                         _______ _______ _______ _____ _____    ______ ____
ROOT
ATOM      1  C   UNL     1      -2.194  13.004  21.611  0.00  0.00    +0.000 A 
ATOM      2  C   UNL     1      -1.883  13.795  20.510  0.00  0.00    +0.000 A 
ATOM      3  C   UNL     1      -1.091  13.298  19.461  0.00  0.00    +0.000 A 
ATOM      4  C   UNL     1      -0.604  11.977  19.512  0.00  0.00    +0.000 A 
ATOM      5  N   UNL     1       0.171  11.339  18.545  0.00  0.00    +0.000 NA
ATOM      6  C   UNL     1       0.496  10.136  18.973  0.00  0.00    +0.000 A 
ATOM      7  N   UNL     1       1.305   9.268  18.256  0.00  0.00    +0.000 N 
ATOM      8  C   UNL     1       2.003   8.242  18.848  0.00  0.00    +0.000 C 
ATOM      9  O   UNL     1       1.981   8.007  20.054  0.00  0.00    +0.000 OA
ATOM     10  N   UNL     1       2.776   7.486  17.977  0.00  0.00    +0.000 N 
ATOM     11  S   UNL     1      -0.223   9.663  20.452  0.00  0.00    +0.000 S 
ATOM     12  C   UNL     1      -0.926  11.208  20.630  0.00  0.00    +0.000 A 
ATOM     13  C   UNL     1      -1.716  11.694  21.685  0.00  0.00    +0.000 A 
ATOM     14  H   UNL     1       1.546   9.592  17.334  0.00  0.00    +0.000 HD
ATOM     15  H   UNL     1       3.070   7.935  17.122  0.00  0.00    +0.000 HD
ENDROOT
BRANCH  10  16
ATOM     16  C   UNL     1       3.445   6.322  18.374  0.00  0.00    +0.000 A 
ATOM     17  C   UNL     1       2.797   5.321  19.006  0.00  0.00    +0.000 A 
ATOM     18  N   UNL     1       3.387   4.159  19.457  0.00  0.00    +0.000 N 
ATOM     19  C   UNL     1       4.747   3.917  19.310  0.00  0.00    +0.000 A 
ATOM     20  O   UNL     1       5.311   2.899  19.705  0.00  0.00    +0.000 OA
ATOM     21  C   UNL     1       5.528   4.962  18.595  0.00  0.00    +0.000 A 
ATOM     22  C   UNL     1       6.903   4.744  18.413  0.00  0.00    +0.000 A 
ATOM     23  C   UNL     1       7.667   5.669  17.713  0.00  0.00    +0.000 A 
ATOM     24  C   UNL     1       7.063   6.819  17.214  0.00  0.00    +0.000 A 
ATOM     25  C   UNL     1       5.692   7.051  17.416  0.00  0.00    +0.000 A 
ATOM     26  C   UNL     1       4.891   6.122  18.103  0.00  0.00    +0.000 A 
BRANCH  18  27
ATOM     27  C   UNL     1       2.529   3.123  20.046  0.00  0.00    +0.000 C 
BRANCH  27  28
ATOM     28  C   UNL     1       1.842   2.157  19.057  0.00  0.00    +0.000 C 
ATOM     29  C   UNL     1       0.363   2.467  18.840  0.00  0.00    +0.000 C 
ATOM     30  C   UNL     1       2.561   2.077  17.711  0.00  0.00    +0.000 C 
ENDBRANCH  27  28
ENDBRANCH  18  27
ENDBRANCH  10  16
BRANCH   1  31
ATOM     31  O   UNL     1      -2.960  13.391  22.683  0.00  0.00    +0.000 OA
BRANCH  31  33
ATOM     32  C   UNL     1      -4.371  12.689  24.490  0.00  0.00    +0.000 C 
ATOM     33  C   UNL     1      -3.072  12.446  23.746  0.00  0.00    +0.000 C 
ENDBRANCH  31  33
ENDBRANCH   1  31
TORSDOF 5
ENDMDL
MODEL 6
REMARK VINA RESULT:      -8.2      1.358      1.592
REMARK  Name = 
REMARK  8 active torsions:
REMARK  status: ('A' for Active; 'I' for Inactive)
REMARK    1  A    between atoms: C_1  and  C_2
REMARK    2  A    between atoms: C_2  and  O_3
REMARK    3  A    between atoms: O_3  and  C_4
REMARK    4  A    between atoms: N_13  and  C_14
REMARK    5  A    between atoms: N_16  and  C_17
REMARK    6  A    between atoms: C_17  and  C_18
REMARK    7  A    between atoms: C_18  and  C_19
REMARK    8  A    between atoms: C_18  and  C_20
REMARK                            x       y       z     vdW  Elec       q    Type
REMARK                         _______ _______ _______ _____ _____    ______ ____
ROOT
ATOM      1  C   UNL     1      -0.579  14.709  19.525  0.00  0.00    +0.000 A 
ATOM      2  C   UNL     1      -1.267  14.409  20.696  0.00  0.00    +0.000 A 
ATOM      3  C   UNL     1      -1.095  13.173  21.341  0.00  0.00    +0.000 A 
ATOM      4  C   UNL     1      -0.209  12.218  20.807  0.00  0.00    +0.000 A 
ATOM      5  N   UNL     1       0.082  10.964  21.340  0.00  0.00    +0.000 NA
ATOM      6  C   UNL     1       0.898  10.324  20.527  0.00  0.00    +0.000 A 
ATOM      7  N   UNL     1       1.337   9.029  20.756  0.00  0.00    +0.000 N 
ATOM      8  C   UNL     1       1.794   8.211  19.750  0.00  0.00    +0.000 C 
ATOM      9  O   UNL     1       1.849   8.544  18.569  0.00  0.00    +0.000 OA
ATOM     10  N   UNL     1       2.176   6.940  20.162  0.00  0.00    +0.000 N 
ATOM     11  S   UNL     1       1.466  11.231  19.193  0.00  0.00    +0.000 S 
ATOM     12  C   UNL     1       0.465  12.543  19.630  0.00  0.00    +0.000 A 
ATOM     13  C   UNL     1       0.300  13.774  18.975  0.00  0.00    +0.000 A 
ATOM     14  H   UNL     1       1.060   8.649  21.645  0.00  0.00    +0.000 HD
ATOM     15  H   UNL     1       1.756   6.592  21.012  0.00  0.00    +0.000 HD
ENDROOT
BRANCH  10  16
ATOM     16  C   UNL     1       2.791   6.019  19.306  0.00  0.00    +0.000 A 
ATOM     17  C   UNL     1       3.913   6.335  18.626  0.00  0.00    +0.000 A 
ATOM     18  N   UNL     1       4.563   5.501  17.742  0.00  0.00    +0.000 N 
ATOM     19  C   UNL     1       4.094   4.224  17.451  0.00  0.00    +0.000 A 
ATOM     20  O   UNL     1       4.639   3.455  16.664  0.00  0.00    +0.000 OA
ATOM     21  C   UNL     1       2.875   3.790  18.185  0.00  0.00    +0.000 A 
ATOM     22  C   UNL     1       2.382   2.500  17.930  0.00  0.00    +0.000 A 
ATOM     23  C   UNL     1       1.272   2.030  18.621  0.00  0.00    +0.000 A 
ATOM     24  C   UNL     1       0.646   2.855  19.552  0.00  0.00    +0.000 A 
ATOM     25  C   UNL     1       1.122   4.154  19.791  0.00  0.00    +0.000 A 
ATOM     26  C   UNL     1       2.255   4.647  19.119  0.00  0.00    +0.000 A 
BRANCH  18  27
ATOM     27  C   UNL     1       5.826   5.957  17.148  0.00  0.00    +0.000 C 
BRANCH  27  28
ATOM     28  C   UNL     1       6.859   6.569  18.118  0.00  0.00    +0.000 C 
ATOM     29  C   UNL     1       7.805   5.535  18.724  0.00  0.00    +0.000 C 
ATOM     30  C   UNL     1       7.662   7.705  17.486  0.00  0.00    +0.000 C 
ENDBRANCH  27  28
ENDBRANCH  18  27
ENDBRANCH  10  16
BRANCH   1  31
ATOM     31  O   UNL     1      -0.673  15.885  18.821  0.00  0.00    +0.000 OA
BRANCH  31  33
ATOM     32  C   UNL     1      -0.576  18.280  18.771  0.00  0.00    +0.000 C 
ATOM     33  C   UNL     1      -0.026  17.016  19.403  0.00  0.00    +0.000 C 
ENDBRANCH  31  33
ENDBRANCH   1  31
TORSDOF 5
ENDMDL
MODEL 7
REMARK VINA RESULT:      -8.2      1.849      4.200
REMARK  Name = 
REMARK  8 active torsions:
REMARK  status: ('A' for Active; 'I' for Inactive)
REMARK    1  A    between atoms: C_1  and  C_2
REMARK    2  A    between atoms: C_2  and  O_3
REMARK    3  A    between atoms: O_3  and  C_4
REMARK    4  A    between atoms: N_13  and  C_14
REMARK    5  A    between atoms: N_16  and  C_17
REMARK    6  A    between atoms: C_17  and  C_18
REMARK    7  A    between atoms: C_18  and  C_19
REMARK    8  A    between atoms: C_18  and  C_20
REMARK                            x       y       z     vdW  Elec       q    Type
REMARK                         _______ _______ _______ _____ _____    ______ ____
ROOT
ATOM      1  C   UNL     1      -1.310  13.033  22.466  0.00  0.00    +0.000 A 
ATOM      2  C   UNL     1      -1.154  13.854  21.354  0.00  0.00    +0.000 A 
ATOM      3  C   UNL     1      -0.591  13.363  20.163  0.00  0.00    +0.000 A 
ATOM      4  C   UNL     1      -0.181  12.018  20.082  0.00  0.00    +0.000 A 
ATOM      5  N   UNL     1       0.373  11.384  18.971  0.00  0.00    +0.000 NA
ATOM      6  C   UNL     1       0.698  10.148  19.293  0.00  0.00    +0.000 A 
ATOM      7  N   UNL     1       1.315   9.272  18.414  0.00  0.00    +0.000 N 
ATOM      8  C   UNL     1       2.046   8.187  18.836  0.00  0.00    +0.000 C 
ATOM      9  O   UNL     1       2.225   7.900  20.018  0.00  0.00    +0.000 OA
ATOM     10  N   UNL     1       2.606   7.430  17.815  0.00  0.00    +0.000 N 
ATOM     11  S   UNL     1       0.226   9.649  20.860  0.00  0.00    +0.000 S 
ATOM     12  C   UNL     1      -0.343  11.218  21.213  0.00  0.00    +0.000 A 
ATOM     13  C   UNL     1      -0.903  11.698  22.408  0.00  0.00    +0.000 A 
ATOM     14  H   UNL     1       1.407   9.622  17.475  0.00  0.00    +0.000 HD
ATOM     15  H   UNL     1       2.770   7.900  16.937  0.00  0.00    +0.000 HD
ENDROOT
BRANCH  10  16
ATOM     16  C   UNL     1       3.267   6.217  18.047  0.00  0.00    +0.000 A 
ATOM     17  C   UNL     1       2.590   5.107  18.408  0.00  0.00    +0.000 A 
ATOM     18  N   UNL     1       3.165   3.885  18.684  0.00  0.00    +0.000 N 
ATOM     19  C   UNL     1       4.540   3.688  18.629  0.00  0.00    +0.000 A 
ATOM     20  O   UNL     1       5.091   2.618  18.876  0.00  0.00    +0.000 OA
ATOM     21  C   UNL     1       5.356   4.859  18.208  0.00  0.00    +0.000 A 
ATOM     22  C   UNL     1       6.748   4.691  18.125  0.00  0.00    +0.000 A 
ATOM     23  C   UNL     1       7.549   5.741  17.696  0.00  0.00    +0.000 A 
ATOM     24  C   UNL     1       6.964   6.961  17.368  0.00  0.00    +0.000 A 
ATOM     25  C   UNL     1       5.575   7.138  17.474  0.00  0.00    +0.000 A 
ATOM     26  C   UNL     1       4.737   6.086  17.887  0.00  0.00    +0.000 A 
BRANCH  18  27
ATOM     27  C   UNL     1       2.284   2.747  18.975  0.00  0.00    +0.000 C 
BRANCH  27  28
ATOM     28  C   UNL     1       1.560   2.769  20.338  0.00  0.00    +0.000 C 
ATOM     29  C   UNL     1       2.502   2.581  21.524  0.00  0.00    +0.000 C 
ATOM     30  C   UNL     1       0.714   4.025  20.538  0.00  0.00    +0.000 C 
ENDBRANCH  27  28
ENDBRANCH  18  27
ENDBRANCH  10  16
BRANCH   1  31
ATOM     31  O   UNL     1      -1.849  13.411  23.670  0.00  0.00    +0.000 OA
BRANCH  31  33
ATOM     32  C   UNL     1      -4.077  12.642  24.110  0.00  0.00    +0.000 C 
ATOM     33  C   UNL     1      -3.221  13.804  23.646  0.00  0.00    +0.000 C 
ENDBRANCH  31  33
ENDBRANCH   1  31
TORSDOF 5
ENDMDL
MODEL 8
REMARK VINA RESULT:      -8.1      2.001      4.256
REMARK  Name = 
REMARK  8 active torsions:
REMARK  status: ('A' for Active; 'I' for Inactive)
REMARK    1  A    between atoms: C_1  and  C_2
REMARK    2  A    between atoms: C_2  and  O_3
REMARK    3  A    between atoms: O_3  and  C_4
REMARK    4  A    between atoms: N_13  and  C_14
REMARK    5  A    between atoms: N_16  and  C_17
REMARK    6  A    between atoms: C_17  and  C_18
REMARK    7  A    between atoms: C_18  and  C_19
REMARK    8  A    between atoms: C_18  and  C_20
REMARK                            x       y       z     vdW  Elec       q    Type
REMARK                         _______ _______ _______ _____ _____    ______ ____
ROOT
ATOM      1  C   UNL     1      -1.868  13.702  21.112  0.00  0.00    +0.000 A 
ATOM      2  C   UNL     1      -1.152  14.617  20.346  0.00  0.00    +0.000 A 
ATOM      3  C   UNL     1      -0.182  14.187  19.424  0.00  0.00    +0.000 A 
ATOM      4  C   UNL     1       0.072  12.812  19.260  0.00  0.00    +0.000 A 
ATOM      5  N   UNL     1       0.982  12.235  18.376  0.00  0.00    +0.000 NA
ATOM      6  C   UNL     1       0.997  10.930  18.557  0.00  0.00    +0.000 A 
ATOM      7  N   UNL     1       1.836  10.076  17.859  0.00  0.00    +0.000 N 
ATOM      8  C   UNL     1       2.185   8.831  18.327  0.00  0.00    +0.000 C 
ATOM      9  O   UNL     1       1.796   8.368  19.396  0.00  0.00    +0.000 OA
ATOM     10  N   UNL     1       3.049   8.122  17.502  0.00  0.00    +0.000 N 
ATOM     11  S   UNL     1      -0.164  10.329  19.660  0.00  0.00    +0.000 S 
ATOM     12  C   UNL     1      -0.656  11.918  20.044  0.00  0.00    +0.000 A 
ATOM     13  C   UNL     1      -1.626  12.334  20.970  0.00  0.00    +0.000 A 
ATOM     14  H   UNL     1       2.368  10.521  17.130  0.00  0.00    +0.000 HD
ATOM     15  H   UNL     1       3.631   8.663  16.880  0.00  0.00    +0.000 HD
ENDROOT
BRANCH  10  16
ATOM     16  C   UNL     1       3.405   6.789  17.746  0.00  0.00    +0.000 A 
ATOM     17  C   UNL     1       2.476   5.860  18.054  0.00  0.00    +0.000 A 
ATOM     18  N   UNL     1       2.744   4.538  18.337  0.00  0.00    +0.000 N 
ATOM     19  C   UNL     1       4.040   4.034  18.348  0.00  0.00    +0.000 A 
ATOM     20  O   UNL     1       4.320   2.866  18.603  0.00  0.00    +0.000 OA
ATOM     21  C   UNL     1       5.120   4.991  17.989  0.00  0.00    +0.000 A 
ATOM     22  C   UNL     1       6.441   4.513  17.973  0.00  0.00    +0.000 A 
ATOM     23  C   UNL     1       7.481   5.355  17.602  0.00  0.00    +0.000 A 
ATOM     24  C   UNL     1       7.205   6.678  17.266  0.00  0.00    +0.000 A 
ATOM     25  C   UNL     1       5.888   7.165  17.305  0.00  0.00    +0.000 A 
ATOM     26  C   UNL     1       4.814   6.328  17.658  0.00  0.00    +0.000 A 
BRANCH  18  27
ATOM     27  C   UNL     1       1.614   3.628  18.564  0.00  0.00    +0.000 C 
BRANCH  27  28
ATOM     28  C   UNL     1       1.060   3.566  20.003  0.00  0.00    +0.000 C 
ATOM     29  C   UNL     1       1.545   2.348  20.785  0.00  0.00    +0.000 C 
ATOM     30  C   UNL     1       1.336   4.842  20.798  0.00  0.00    +0.000 C 
ENDBRANCH  27  28
ENDBRANCH  18  27
ENDBRANCH  10  16
BRANCH   1  31
ATOM     31  O   UNL     1      -2.835  14.016  22.035  0.00  0.00    +0.000 OA
BRANCH  31  33
ATOM     32  C   UNL     1      -5.142  13.361  22.002  0.00  0.00    +0.000 C 
ATOM     33  C   UNL     1      -3.730  12.962  22.387  0.00  0.00    +0.000 C 
ENDBRANCH  31  33
ENDBRANCH   1  31
TORSDOF 5
ENDMDL
MODEL 9
REMARK VINA RESULT:      -8.1      2.962     10.202
REMARK  Name = 
REMARK  8 active torsions:
REMARK  status: ('A' for Active; 'I' for Inactive)
REMARK    1  A    between atoms: C_1  and  C_2
REMARK    2  A    between atoms: C_2  and  O_3
REMARK    3  A    between atoms: O_3  and  C_4
REMARK    4  A    between atoms: N_13  and  C_14
REMARK    5  A    between atoms: N_16  and  C_17
REMARK    6  A    between atoms: C_17  and  C_18
REMARK    7  A    between atoms: C_18  and  C_19
REMARK    8  A    between atoms: C_18  and  C_20
REMARK                            x       y       z     vdW  Elec       q    Type
REMARK                         _______ _______ _______ _____ _____    ______ ____
ROOT
ATOM      1  C   UNL     1       4.322   4.705  18.883  0.00  0.00    +0.000 A 
ATOM      2  C   UNL     1       4.787   5.087  17.628  0.00  0.00    +0.000 A 
ATOM      3  C   UNL     1       4.371   6.292  17.037  0.00  0.00    +0.000 A 
ATOM      4  C   UNL     1       3.475   7.138  17.720  0.00  0.00    +0.000 A 
ATOM      5  N   UNL     1       2.991   8.366  17.276  0.00  0.00    +0.000 NA
ATOM      6  C   UNL     1       2.119   8.831  18.148  0.00  0.00    +0.000 A 
ATOM      7  N   UNL     1       1.424  10.017  17.968  0.00  0.00    +0.000 N 
ATOM      8  C   UNL     1       0.233  10.284  18.602  0.00  0.00    +0.000 C 
ATOM      9  O   UNL     1      -0.323   9.503  19.371  0.00  0.00    +0.000 OA
ATOM     10  N   UNL     1      -0.330  11.514  18.288  0.00  0.00    +0.000 N 
ATOM     11  S   UNL     1       1.956   7.915  19.583  0.00  0.00    +0.000 S 
ATOM     12  C   UNL     1       3.021   6.729  18.973  0.00  0.00    +0.000 A 
ATOM     13  C   UNL     1       3.428   5.526  19.574  0.00  0.00    +0.000 A 
ATOM     14  H   UNL     1       1.710  10.547  17.162  0.00  0.00    +0.000 HD
ATOM     15  H   UNL     1      -0.072  11.920  17.401  0.00  0.00    +0.000 HD
ENDROOT
BRANCH  10  16
ATOM     16  C   UNL     1      -1.466  12.014  18.937  0.00  0.00    +0.000 A 
ATOM     17  C   UNL     1      -1.365  12.736  20.072  0.00  0.00    +0.000 A 
ATOM     18  N   UNL     1      -2.431  13.238  20.787  0.00  0.00    +0.000 N 
ATOM     19  C   UNL     1      -3.748  13.022  20.397  0.00  0.00    +0.000 A 
ATOM     20  O   UNL     1      -4.724  13.444  21.011  0.00  0.00    +0.000 OA
ATOM     21  C   UNL     1      -3.943  12.257  19.136  0.00  0.00    +0.000 A 
ATOM     22  C   UNL     1      -5.260  12.034  18.702  0.00  0.00    +0.000 A 
ATOM     23  C   UNL     1      -5.494  11.364  17.508  0.00  0.00    +0.000 A 
ATOM     24  C   UNL     1      -4.416  10.901  16.760  0.00  0.00    +0.000 A 
ATOM     25  C   UNL     1      -3.099  11.102  17.204  0.00  0.00    +0.000 A 
ATOM     26  C   UNL     1      -2.832  11.795  18.399  0.00  0.00    +0.000 A 
BRANCH  18  27
ATOM     27  C   UNL     1      -2.154  14.084  21.955  0.00  0.00    +0.000 C 
BRANCH  27  28
ATOM     28  C   UNL     1      -2.103  13.371  23.323  0.00  0.00    +0.000 C 
ATOM     29  C   UNL     1      -3.098  13.936  24.334  0.00  0.00    +0.000 C 
ATOM     30  C   UNL     1      -2.278  11.858  23.208  0.00  0.00    +0.000 C 
ENDBRANCH  27  28
ENDBRANCH  18  27
ENDBRANCH  10  16
BRANCH   1  31
ATOM     31  O   UNL     1       4.667   3.554  19.548  0.00  0.00    +0.000 OA
BRANCH  31  33
ATOM     32  C   UNL     1       3.477   1.753  18.503  0.00  0.00    +0.000 C 
ATOM     33  C   UNL     1       3.618   2.608  19.748  0.00  0.00    +0.000 C 
ENDBRANCH  31  33
ENDBRANCH   1  31
TORSDOF 5
ENDMDL
