MODEL 1
REMARK VINA RESULT:      -6.8      0.000      0.000
REMARK  Name = 
REMARK  7 active torsions:
REMARK  status: ('A' for Active; 'I' for Inactive)
REMARK    1  A    between atoms: C_12  and  N_13
REMARK    2  A    between atoms: N_13  and  CA_14
REMARK    3  A    between atoms: CA_14  and  CB_15
REMARK    4  A    between atoms: CA_14  and  C_17
REMARK    5  A    between atoms: CB_15  and  OG_16
REMARK    6  A    between atoms: C_17  and  O_18
REMARK    7  A    between atoms: C_19  and  C_20
REMARK                            x       y       z     vdW  Elec       q    Type
REMARK                         _______ _______ _______ _____ _____    ______ ____
ROOT
ATOM      1  O   UNK A   0       1.746   9.547  23.023  0.00  0.00    +0.000 OA
ATOM      2  C   UNK A   0       1.458   9.298  21.857  0.00  0.00    +0.000 A 
ATOM      3  N   UNK A   0       1.793   8.105  21.293  0.00  0.00    +0.000 N 
ATOM      4  C   UNK A   0       1.707   7.859  19.954  0.00  0.00    +0.000 A 
ATOM      5  N   UNK A   0       2.218   6.653  19.526  0.00  0.00    +0.000 N 
ATOM      6  C   UNK A   0       2.096   5.392  20.278  0.00  0.00    +0.000 C 
ATOM      7  C   UNK A   0       3.408   4.608  20.149  0.00  0.00    +0.000 C 
ATOM      8  O   UNK A   0       3.721   4.351  18.771  0.00  0.00    +0.000 OA
ATOM      9  C   UNK A   0       3.834   5.583  18.035  0.00  0.00    +0.000 C 
ATOM     10  C   UNK A   0       2.538   6.409  18.110  0.00  0.00    +0.000 C 
ATOM     11  N   UNK A   0       1.210   8.742  19.142  0.00  0.00    +0.000 NA
ATOM     12  C   UNK A   0       0.705   9.924  19.640  0.00  0.00    +0.000 A 
ATOM     13  C   UNK A   0       0.781  10.245  20.955  0.00  0.00    +0.000 A 
ATOM     14  H   UNK A   0       2.300   7.481  21.893  0.00  0.00    +0.000 HD
ENDROOT
BRANCH  13  15
ATOM     15  C   UNK A   0       0.178  11.404  21.503  0.00  0.00    +0.000 A 
ATOM     16  N   UNK A   0       0.577  12.649  21.319  0.00  0.00    +0.000 NA
ATOM     17  C   UNK A   0      -0.113  13.506  22.154  0.00  0.00    +0.000 A 
ATOM     18  C   UNK A   0       0.130  14.885  22.304  0.00  0.00    +0.000 A 
ATOM     19  C   UNK A   0      -0.565  15.607  23.280  0.00  0.00    +0.000 A 
ATOM     20  C   UNK A   0      -1.518  14.980  24.077  0.00  0.00    +0.000 A 
ATOM     21  C   UNK A   0      -1.821  13.627  23.902  0.00  0.00    +0.000 A 
ATOM     22  C   UNK A   0      -1.100  12.907  22.937  0.00  0.00    +0.000 A 
ATOM     23  S   UNK A   0      -1.219  11.248  22.511  0.00  0.00    +0.000 S 
ENDBRANCH  13  15
BRANCH  12  24
ATOM     24  N   SER A   1       0.050  10.736  18.703  0.00  0.00    +0.000 N 
ATOM     25  H   SER A   1       0.281  11.695  18.974  0.00  0.00    +0.000 HD
BRANCH  24  26
ATOM     26  CA  SER A   1      -1.428  10.677  18.522  0.00  0.00    +0.000 C 
BRANCH  26  27
ATOM     27  CB  SER A   1      -2.107  12.007  18.888  0.00  0.00    +0.000 C 
BRANCH  27  28
ATOM     28  OG  SER A   1      -1.222  13.116  18.713  0.00  0.00    +0.000 OA
ATOM     29  H   SER A   1      -1.103  13.201  17.747  0.00  0.00    +0.000 HD
ENDBRANCH  27  28
ENDBRANCH  26  27
BRANCH  26  30
ATOM     30  C   SER A   1      -1.718  10.312  17.052  0.00  0.00    +0.000 C 
BRANCH  30  31
ATOM     31  O   SER A   1      -2.109  11.474  16.319  0.00  0.00    +0.000 OA
ATOM     32  H   SER A   1      -2.725  11.157  15.627  0.00  0.00    +0.000 HD
ENDBRANCH  30  31
ENDBRANCH  26  30
ENDBRANCH  24  26
ENDBRANCH  12  24
TORSDOF 7
ENDMDL
MODEL 2
REMARK VINA RESULT:      -6.7      3.298      8.987
REMARK  Name = 
REMARK  7 active torsions:
REMARK  status: ('A' for Active; 'I' for Inactive)
REMARK    1  A    between atoms: C_12  and  N_13
REMARK    2  A    between atoms: N_13  and  CA_14
REMARK    3  A    between atoms: CA_14  and  CB_15
REMARK    4  A    between atoms: CA_14  and  C_17
REMARK    5  A    between atoms: CB_15  and  OG_16
REMARK    6  A    between atoms: C_17  and  O_18
REMARK    7  A    between atoms: C_19  and  C_20
REMARK                            x       y       z     vdW  Elec       q    Type
REMARK                         _______ _______ _______ _____ _____    ______ ____
ROOT
ATOM      1  O   UNK A   0       3.001   8.891  17.244  0.00  0.00    +0.000 OA
ATOM      2  C   UNK A   0       2.501   8.361  18.232  0.00  0.00    +0.000 A 
ATOM      3  N   UNK A   0       1.483   8.963  18.907  0.00  0.00    +0.000 N 
ATOM      4  C   UNK A   0       1.044   8.543  20.129  0.00  0.00    +0.000 A 
ATOM      5  N   UNK A   0       0.105   9.342  20.742  0.00  0.00    +0.000 N 
ATOM      6  C   UNK A   0      -0.983  10.034  20.028  0.00  0.00    +0.000 C 
ATOM      7  C   UNK A   0      -1.175  11.425  20.644  0.00  0.00    +0.000 C 
ATOM      8  O   UNK A   0      -1.467  11.332  22.047  0.00  0.00    +0.000 OA
ATOM      9  C   UNK A   0      -0.408  10.650  22.744  0.00  0.00    +0.000 C 
ATOM     10  C   UNK A   0      -0.178   9.236  22.183  0.00  0.00    +0.000 C 
ATOM     11  N   UNK A   0       1.530   7.474  20.683  0.00  0.00    +0.000 NA
ATOM     12  C   UNK A   0       2.459   6.713  20.008  0.00  0.00    +0.000 A 
ATOM     13  C   UNK A   0       2.958   7.085  18.803  0.00  0.00    +0.000 A 
ATOM     14  H   UNK A   0       1.206   9.857  18.548  0.00  0.00    +0.000 HD
ENDROOT
BRANCH  13  15
ATOM     15  C   UNK A   0       3.835   6.268  18.045  0.00  0.00    +0.000 A 
ATOM     16  N   UNK A   0       5.103   6.524  17.783  0.00  0.00    +0.000 NA
ATOM     17  C   UNK A   0       5.596   5.624  16.859  0.00  0.00    +0.000 A 
ATOM     18  C   UNK A   0       6.874   5.663  16.268  0.00  0.00    +0.000 A 
ATOM     19  C   UNK A   0       7.195   4.756  15.252  0.00  0.00    +0.000 A 
ATOM     20  C   UNK A   0       6.274   3.794  14.850  0.00  0.00    +0.000 A 
ATOM     21  C   UNK A   0       5.024   3.694  15.466  0.00  0.00    +0.000 A 
ATOM     22  C   UNK A   0       4.704   4.626  16.466  0.00  0.00    +0.000 A 
ATOM     23  S   UNK A   0       3.258   4.780  17.379  0.00  0.00    +0.000 S 
ENDBRANCH  13  15
BRANCH  12  24
ATOM     24  N   SER A   1       2.801   5.500  20.623  0.00  0.00    +0.000 N 
ATOM     25  H   SER A   1       3.410   5.024  19.954  0.00  0.00    +0.000 HD
BRANCH  24  26
ATOM     26  CA  SER A   1       1.758   4.519  21.038  0.00  0.00    +0.000 C 
BRANCH  26  27
ATOM     27  CB  SER A   1       0.835   4.130  19.871  0.00  0.00    +0.000 C 
BRANCH  27  28
ATOM     28  OG  SER A   1       1.001   2.758  19.504  0.00  0.00    +0.000 OA
ATOM     29  H   SER A   1       0.927   2.741  18.531  0.00  0.00    +0.000 HD
ENDBRANCH  27  28
ENDBRANCH  26  27
BRANCH  26  30
ATOM     30  C   SER A   1       2.468   3.271  21.601  0.00  0.00    +0.000 C 
BRANCH  30  31
ATOM     31  O   SER A   1       1.531   2.425  22.270  0.00  0.00    +0.000 OA
ATOM     32  H   SER A   1       0.845   3.022  22.631  0.00  0.00    +0.000 HD
ENDBRANCH  30  31
ENDBRANCH  26  30
ENDBRANCH  24  26
ENDBRANCH  12  24
TORSDOF 7
ENDMDL
MODEL 3
REMARK VINA RESULT:      -6.6      1.095      1.507
REMARK  Name = 
REMARK  7 active torsions:
REMARK  status: ('A' for Active; 'I' for Inactive)
REMARK    1  A    between atoms: C_12  and  N_13
REMARK    2  A    between atoms: N_13  and  CA_14
REMARK    3  A    between atoms: CA_14  and  CB_15
REMARK    4  A    between atoms: CA_14  and  C_17
REMARK    5  A    between atoms: CB_15  and  OG_16
REMARK    6  A    between atoms: C_17  and  O_18
REMARK    7  A    between atoms: C_19  and  C_20
REMARK                            x       y       z     vdW  Elec       q    Type
REMARK                         _______ _______ _______ _____ _____    ______ ____
ROOT
ATOM      1  O   UNK A   0       1.539   9.304  23.103  0.00  0.00    +0.000 OA
ATOM      2  C   UNK A   0       1.327   9.169  21.902  0.00  0.00    +0.000 A 
ATOM      3  N   UNK A   0       1.835   8.108  21.217  0.00  0.00    +0.000 N 
ATOM      4  C   UNK A   0       1.829   8.022  19.856  0.00  0.00    +0.000 A 
ATOM      5  N   UNK A   0       2.508   6.954  19.313  0.00  0.00    +0.000 N 
ATOM      6  C   UNK A   0       2.527   5.604  19.901  0.00  0.00    +0.000 C 
ATOM      7  C   UNK A   0       3.934   5.013  19.745  0.00  0.00    +0.000 C 
ATOM      8  O   UNK A   0       4.326   4.973  18.364  0.00  0.00    +0.000 OA
ATOM      9  C   UNK A   0       4.302   6.291  17.788  0.00  0.00    +0.000 C 
ATOM     10  C   UNK A   0       2.907   6.932  17.895  0.00  0.00    +0.000 C 
ATOM     11  N   UNK A   0       1.249   8.932  19.131  0.00  0.00    +0.000 NA
ATOM     12  C   UNK A   0       0.577   9.968  19.741  0.00  0.00    +0.000 A 
ATOM     13  C   UNK A   0       0.564  10.128  21.087  0.00  0.00    +0.000 A 
ATOM     14  H   UNK A   0       2.398   7.482  21.763  0.00  0.00    +0.000 HD
ENDROOT
BRANCH  13  15
ATOM     15  C   UNK A   0      -0.205  11.124  21.739  0.00  0.00    +0.000 A 
ATOM     16  N   UNK A   0      -1.243  10.912  22.527  0.00  0.00    +0.000 NA
ATOM     17  C   UNK A   0      -1.872  12.104  22.828  0.00  0.00    +0.000 A 
ATOM     18  C   UNK A   0      -3.072  12.245  23.552  0.00  0.00    +0.000 A 
ATOM     19  C   UNK A   0      -3.663  13.507  23.675  0.00  0.00    +0.000 A 
ATOM     20  C   UNK A   0      -3.054  14.627  23.119  0.00  0.00    +0.000 A 
ATOM     21  C   UNK A   0      -1.830  14.522  22.452  0.00  0.00    +0.000 A 
ATOM     22  C   UNK A   0      -1.261  13.247  22.313  0.00  0.00    +0.000 A 
ATOM     23  S   UNK A   0       0.200  12.793  21.532  0.00  0.00    +0.000 S 
ENDBRANCH  13  15
BRANCH  12  24
ATOM     24  N   SER A   1      -0.146  10.803  18.876  0.00  0.00    +0.000 N 
ATOM     25  H   SER A   1      -0.068  11.738  19.282  0.00  0.00    +0.000 HD
BRANCH  24  26
ATOM     26  CA  SER A   1      -1.590  10.567  18.596  0.00  0.00    +0.000 C 
BRANCH  26  27
ATOM     27  CB  SER A   1      -2.411  11.865  18.666  0.00  0.00    +0.000 C 
BRANCH  27  28
ATOM     28  OG  SER A   1      -1.644  12.996  18.245  0.00  0.00    +0.000 OA
ATOM     29  H   SER A   1      -0.740  12.656  18.105  0.00  0.00    +0.000 HD
ENDBRANCH  27  28
ENDBRANCH  26  27
BRANCH  26  30
ATOM     30  C   SER A   1      -1.712   9.931  17.196  0.00  0.00    +0.000 C 
BRANCH  30  31
ATOM     31  O   SER A   1      -2.133  10.906  16.240  0.00  0.00    +0.000 OA
ATOM     32  H   SER A   1      -1.325  11.401  15.993  0.00  0.00    +0.000 HD
ENDBRANCH  30  31
ENDBRANCH  26  30
ENDBRANCH  24  26
ENDBRANCH  12  24
TORSDOF 7
ENDMDL
MODEL 4
REMARK VINA RESULT:      -6.5      3.088      5.675
REMARK  Name = 
REMARK  7 active torsions:
REMARK  status: ('A' for Active; 'I' for Inactive)
REMARK    1  A    between atoms: C_12  and  N_13
REMARK    2  A    between atoms: N_13  and  CA_14
REMARK    3  A    between atoms: CA_14  and  CB_15
REMARK    4  A    between atoms: CA_14  and  C_17
REMARK    5  A    between atoms: CB_15  and  OG_16
REMARK    6  A    between atoms: C_17  and  O_18
REMARK    7  A    between atoms: C_19  and  C_20
REMARK                            x       y       z     vdW  Elec       q    Type
REMARK                         _______ _______ _______ _____ _____    ______ ____
ROOT
ATOM      1  O   UNK A   0       2.589   9.245  17.362  0.00  0.00    +0.000 OA
ATOM      2  C   UNK A   0       2.899   8.189  17.905  0.00  0.00    +0.000 A 
ATOM      3  N   UNK A   0       3.795   7.343  17.327  0.00  0.00    +0.000 N 
ATOM      4  C   UNK A   0       4.006   6.067  17.759  0.00  0.00    +0.000 A 
ATOM      5  N   UNK A   0       4.839   5.293  16.981  0.00  0.00    +0.000 N 
ATOM      6  C   UNK A   0       6.047   5.802  16.309  0.00  0.00    +0.000 C 
ATOM      7  C   UNK A   0       6.156   5.153  14.924  0.00  0.00    +0.000 C 
ATOM      8  O   UNK A   0       6.197   3.721  15.029  0.00  0.00    +0.000 OA
ATOM      9  C   UNK A   0       5.020   3.224  15.691  0.00  0.00    +0.000 C 
ATOM     10  C   UNK A   0       4.864   3.826  17.098  0.00  0.00    +0.000 C 
ATOM     11  N   UNK A   0       3.410   5.613  18.821  0.00  0.00    +0.000 NA
ATOM     12  C   UNK A   0       2.598   6.445  19.560  0.00  0.00    +0.000 A 
ATOM     13  C   UNK A   0       2.324   7.716  19.174  0.00  0.00    +0.000 A 
ATOM     14  H   UNK A   0       4.147   7.642  16.436  0.00  0.00    +0.000 HD
ENDROOT
BRANCH  13  15
ATOM     15  C   UNK A   0       1.578   8.620  19.970  0.00  0.00    +0.000 A 
ATOM     16  N   UNK A   0       1.401   8.541  21.276  0.00  0.00    +0.000 NA
ATOM     17  C   UNK A   0       0.463   9.466  21.693  0.00  0.00    +0.000 A 
ATOM     18  C   UNK A   0      -0.052   9.590  22.998  0.00  0.00    +0.000 A 
ATOM     19  C   UNK A   0      -1.091  10.491  23.250  0.00  0.00    +0.000 A 
ATOM     20  C   UNK A   0      -1.593  11.291  22.228  0.00  0.00    +0.000 A 
ATOM     21  C   UNK A   0      -1.054  11.233  20.940  0.00  0.00    +0.000 A 
ATOM     22  C   UNK A   0      -0.029  10.306  20.694  0.00  0.00    +0.000 A 
ATOM     23  S   UNK A   0       0.806   9.979  19.230  0.00  0.00    +0.000 S 
ENDBRANCH  13  15
BRANCH  12  24
ATOM     24  N   SER A   1       2.132   5.907  20.768  0.00  0.00    +0.000 N 
ATOM     25  H   SER A   1       2.957   5.845  21.368  0.00  0.00    +0.000 HD
BRANCH  24  26
ATOM     26  CA  SER A   1       1.453   4.582  20.818  0.00  0.00    +0.000 C 
BRANCH  26  27
ATOM     27  CB  SER A   1       1.184   4.019  19.412  0.00  0.00    +0.000 C 
BRANCH  27  28
ATOM     28  OG  SER A   1       1.969   2.851  19.154  0.00  0.00    +0.000 OA
ATOM     29  H   SER A   1       1.963   2.347  19.990  0.00  0.00    +0.000 HD
ENDBRANCH  27  28
ENDBRANCH  26  27
BRANCH  26  30
ATOM     30  C   SER A   1       2.345   3.614  21.622  0.00  0.00    +0.000 C 
BRANCH  30  31
ATOM     31  O   SER A   1       1.561   2.554  22.172  0.00  0.00    +0.000 OA
ATOM     32  H   SER A   1       2.203   1.902  22.519  0.00  0.00    +0.000 HD
ENDBRANCH  30  31
ENDBRANCH  26  30
ENDBRANCH  24  26
ENDBRANCH  12  24
TORSDOF 7
ENDMDL
MODEL 5
REMARK VINA RESULT:      -6.4      3.233      8.901
REMARK  Name = 
REMARK  7 active torsions:
REMARK  status: ('A' for Active; 'I' for Inactive)
REMARK    1  A    between atoms: C_12  and  N_13
REMARK    2  A    between atoms: N_13  and  CA_14
REMARK    3  A    between atoms: CA_14  and  CB_15
REMARK    4  A    between atoms: CA_14  and  C_17
REMARK    5  A    between atoms: CB_15  and  OG_16
REMARK    6  A    between atoms: C_17  and  O_18
REMARK    7  A    between atoms: C_19  and  C_20
REMARK                            x       y       z     vdW  Elec       q    Type
REMARK                         _______ _______ _______ _____ _____    ______ ____
ROOT
ATOM      1  O   UNK A   0       2.610   9.398  17.286  0.00  0.00    +0.000 OA
ATOM      2  C   UNK A   0       2.192   8.784  18.263  0.00  0.00    +0.000 A 
ATOM      3  N   UNK A   0       1.195   9.296  19.035  0.00  0.00    +0.000 N 
ATOM      4  C   UNK A   0       0.848   8.779  20.249  0.00  0.00    +0.000 A 
ATOM      5  N   UNK A   0      -0.082   9.496  20.969  0.00  0.00    +0.000 N 
ATOM      6  C   UNK A   0      -1.238  10.185  20.368  0.00  0.00    +0.000 C 
ATOM      7  C   UNK A   0      -1.446  11.524  21.086  0.00  0.00    +0.000 C 
ATOM      8  O   UNK A   0      -1.648  11.326  22.495  0.00  0.00    +0.000 OA
ATOM      9  C   UNK A   0      -0.522  10.647  23.081  0.00  0.00    +0.000 C 
ATOM     10  C   UNK A   0      -0.272   9.284  22.414  0.00  0.00    +0.000 C 
ATOM     11  N   UNK A   0       1.409   7.698  20.701  0.00  0.00    +0.000 NA
ATOM     12  C   UNK A   0       2.324   7.024  19.922  0.00  0.00    +0.000 A 
ATOM     13  C   UNK A   0       2.733   7.494  18.718  0.00  0.00    +0.000 A 
ATOM     14  H   UNK A   0       0.862  10.200  18.754  0.00  0.00    +0.000 HD
ENDROOT
BRANCH  13  15
ATOM     15  C   UNK A   0       3.593   6.767  17.857  0.00  0.00    +0.000 A 
ATOM     16  N   UNK A   0       3.372   5.555  17.382  0.00  0.00    +0.000 NA
ATOM     17  C   UNK A   0       4.498   5.075  16.742  0.00  0.00    +0.000 A 
ATOM     18  C   UNK A   0       4.658   3.779  16.214  0.00  0.00    +0.000 A 
ATOM     19  C   UNK A   0       5.900   3.389  15.702  0.00  0.00    +0.000 A 
ATOM     20  C   UNK A   0       6.966   4.283  15.680  0.00  0.00    +0.000 A 
ATOM     21  C   UNK A   0       6.812   5.594  16.139  0.00  0.00    +0.000 A 
ATOM     22  C   UNK A   0       5.569   5.966  16.673  0.00  0.00    +0.000 A 
ATOM     23  S   UNK A   0       5.082   7.474  17.336  0.00  0.00    +0.000 S 
ENDBRANCH  13  15
BRANCH  12  24
ATOM     24  N   SER A   1       2.749   5.789  20.433  0.00  0.00    +0.000 N 
ATOM     25  H   SER A   1       3.369   5.403  19.716  0.00  0.00    +0.000 HD
BRANCH  24  26
ATOM     26  CA  SER A   1       1.775   4.719  20.790  0.00  0.00    +0.000 C 
BRANCH  26  27
ATOM     27  CB  SER A   1       1.062   4.152  19.551  0.00  0.00    +0.000 C 
BRANCH  27  28
ATOM     28  OG  SER A   1       0.360   2.943  19.855  0.00  0.00    +0.000 OA
ATOM     29  H   SER A   1       0.903   2.227  19.475  0.00  0.00    +0.000 HD
ENDBRANCH  27  28
ENDBRANCH  26  27
BRANCH  26  30
ATOM     30  C   SER A   1       2.537   3.600  21.529  0.00  0.00    +0.000 C 
BRANCH  30  31
ATOM     31  O   SER A   1       1.630   2.794  22.284  0.00  0.00    +0.000 OA
ATOM     32  H   SER A   1       0.864   2.636  21.696  0.00  0.00    +0.000 HD
ENDBRANCH  30  31
ENDBRANCH  26  30
ENDBRANCH  24  26
ENDBRANCH  12  24
TORSDOF 7
ENDMDL
MODEL 6
REMARK VINA RESULT:      -6.3      2.907      7.780
REMARK  Name = 
REMARK  7 active torsions:
REMARK  status: ('A' for Active; 'I' for Inactive)
REMARK    1  A    between atoms: C_12  and  N_13
REMARK    2  A    between atoms: N_13  and  CA_14
REMARK    3  A    between atoms: CA_14  and  CB_15
REMARK    4  A    between atoms: CA_14  and  C_17
REMARK    5  A    between atoms: CB_15  and  OG_16
REMARK    6  A    between atoms: C_17  and  O_18
REMARK    7  A    between atoms: C_19  and  C_20
REMARK                            x       y       z     vdW  Elec       q    Type
REMARK                         _______ _______ _______ _____ _____    ______ ____
ROOT
ATOM      1  O   UNK A   0      -0.648  11.744  23.150  0.00  0.00    +0.000 OA
ATOM      2  C   UNK A   0      -1.342  12.252  22.274  0.00  0.00    +0.000 A 
ATOM      3  N   UNK A   0      -2.205  13.263  22.566  0.00  0.00    +0.000 N 
ATOM      4  C   UNK A   0      -3.157  13.709  21.696  0.00  0.00    +0.000 A 
ATOM      5  N   UNK A   0      -4.043  14.640  22.193  0.00  0.00    +0.000 N 
ATOM      6  C   UNK A   0      -3.670  15.717  23.126  0.00  0.00    +0.000 C 
ATOM      7  C   UNK A   0      -4.793  15.894  24.155  0.00  0.00    +0.000 C 
ATOM      8  O   UNK A   0      -6.042  16.189  23.509  0.00  0.00    +0.000 OA
ATOM      9  C   UNK A   0      -6.403  15.140  22.593  0.00  0.00    +0.000 C 
ATOM     10  C   UNK A   0      -5.321  14.926  21.520  0.00  0.00    +0.000 C 
ATOM     11  N   UNK A   0      -3.233  13.237  20.489  0.00  0.00    +0.000 NA
ATOM     12  C   UNK A   0      -2.306  12.316  20.053  0.00  0.00    +0.000 A 
ATOM     13  C   UNK A   0      -1.351  11.810  20.871  0.00  0.00    +0.000 A 
ATOM     14  H   UNK A   0      -2.236  13.529  23.533  0.00  0.00    +0.000 HD
ENDROOT
BRANCH  13  15
ATOM     15  C   UNK A   0      -0.326  10.943  20.417  0.00  0.00    +0.000 A 
ATOM     16  N   UNK A   0       0.344  11.058  19.285  0.00  0.00    +0.000 NA
ATOM     17  C   UNK A   0       1.123   9.938  19.069  0.00  0.00    +0.000 A 
ATOM     18  C   UNK A   0       1.882   9.670  17.913  0.00  0.00    +0.000 A 
ATOM     19  C   UNK A   0       2.526   8.435  17.779  0.00  0.00    +0.000 A 
ATOM     20  C   UNK A   0       2.450   7.487  18.794  0.00  0.00    +0.000 A 
ATOM     21  C   UNK A   0       1.757   7.755  19.977  0.00  0.00    +0.000 A 
ATOM     22  C   UNK A   0       1.094   8.987  20.089  0.00  0.00    +0.000 A 
ATOM     23  S   UNK A   0       0.147   9.592  21.388  0.00  0.00    +0.000 S 
ENDBRANCH  13  15
BRANCH  12  24
ATOM     24  N   SER A   1      -2.381  11.990  18.691  0.00  0.00    +0.000 N 
ATOM     25  H   SER A   1      -2.547  12.879  18.213  0.00  0.00    +0.000 HD
BRANCH  24  26
ATOM     26  CA  SER A   1      -3.392  11.022  18.178  0.00  0.00    +0.000 C 
BRANCH  26  27
ATOM     27  CB  SER A   1      -4.282  11.642  17.088  0.00  0.00    +0.000 C 
BRANCH  27  28
ATOM     28  OG  SER A   1      -3.615  11.684  15.824  0.00  0.00    +0.000 OA
ATOM     29  H   SER A   1      -4.328  11.683  15.157  0.00  0.00    +0.000 HD
ENDBRANCH  27  28
ENDBRANCH  26  27
BRANCH  26  30
ATOM     30  C   SER A   1      -2.643   9.792  17.624  0.00  0.00    +0.000 C 
BRANCH  30  31
ATOM     31  O   SER A   1      -1.480  10.200  16.903  0.00  0.00    +0.000 OA
ATOM     32  H   SER A   1      -0.731  10.088  17.523  0.00  0.00    +0.000 HD
ENDBRANCH  30  31
ENDBRANCH  26  30
ENDBRANCH  24  26
ENDBRANCH  12  24
TORSDOF 7
ENDMDL
MODEL 7
REMARK VINA RESULT:      -6.2      2.809      5.528
REMARK  Name = 
REMARK  7 active torsions:
REMARK  status: ('A' for Active; 'I' for Inactive)
REMARK    1  A    between atoms: C_12  and  N_13
REMARK    2  A    between atoms: N_13  and  CA_14
REMARK    3  A    between atoms: CA_14  and  CB_15
REMARK    4  A    between atoms: CA_14  and  C_17
REMARK    5  A    between atoms: CB_15  and  OG_16
REMARK    6  A    between atoms: C_17  and  O_18
REMARK    7  A    between atoms: C_19  and  C_20
REMARK                            x       y       z     vdW  Elec       q    Type
REMARK                         _______ _______ _______ _____ _____    ______ ____
ROOT
ATOM      1  O   UNK A   0       2.344   9.267  17.345  0.00  0.00    +0.000 OA
ATOM      2  C   UNK A   0       2.742   8.268  17.937  0.00  0.00    +0.000 A 
ATOM      3  N   UNK A   0       3.787   7.541  17.454  0.00  0.00    +0.000 N 
ATOM      4  C   UNK A   0       4.126   6.309  17.933  0.00  0.00    +0.000 A 
ATOM      5  N   UNK A   0       5.116   5.644  17.245  0.00  0.00    +0.000 N 
ATOM      6  C   UNK A   0       6.300   6.300  16.663  0.00  0.00    +0.000 C 
ATOM      7  C   UNK A   0       6.611   5.654  15.307  0.00  0.00    +0.000 C 
ATOM      8  O   UNK A   0       6.830   4.241  15.448  0.00  0.00    +0.000 OA
ATOM      9  C   UNK A   0       5.676   3.601  16.022  0.00  0.00    +0.000 C 
ATOM     10  C   UNK A   0       5.324   4.194  17.397  0.00  0.00    +0.000 C 
ATOM     11  N   UNK A   0       3.506   5.793  18.951  0.00  0.00    +0.000 NA
ATOM     12  C   UNK A   0       2.533   6.519  19.601  0.00  0.00    +0.000 A 
ATOM     13  C   UNK A   0       2.128   7.738  19.165  0.00  0.00    +0.000 A 
ATOM     14  H   UNK A   0       4.172   7.873  16.590  0.00  0.00    +0.000 HD
ENDROOT
BRANCH  13  15
ATOM     15  C   UNK A   0       1.205   8.545  19.875  0.00  0.00    +0.000 A 
ATOM     16  N   UNK A   0       0.413   9.462  19.352  0.00  0.00    +0.000 NA
ATOM     17  C   UNK A   0      -0.206  10.191  20.350  0.00  0.00    +0.000 A 
ATOM     18  C   UNK A   0      -1.031  11.317  20.159  0.00  0.00    +0.000 A 
ATOM     19  C   UNK A   0      -1.491  12.033  21.269  0.00  0.00    +0.000 A 
ATOM     20  C   UNK A   0      -1.169  11.620  22.558  0.00  0.00    +0.000 A 
ATOM     21  C   UNK A   0      -0.406  10.469  22.773  0.00  0.00    +0.000 A 
ATOM     22  C   UNK A   0       0.071   9.773  21.651  0.00  0.00    +0.000 A 
ATOM     23  S   UNK A   0       1.044   8.360  21.587  0.00  0.00    +0.000 S 
ENDBRANCH  13  15
BRANCH  12  24
ATOM     24  N   SER A   1       2.040   5.940  20.779  0.00  0.00    +0.000 N 
ATOM     25  H   SER A   1       2.847   5.876  21.403  0.00  0.00    +0.000 HD
BRANCH  24  26
ATOM     26  CA  SER A   1       1.387   4.600  20.771  0.00  0.00    +0.000 C 
BRANCH  26  27
ATOM     27  CB  SER A   1       1.202   4.057  19.344  0.00  0.00    +0.000 C 
BRANCH  27  28
ATOM     28  OG  SER A   1       2.109   2.987  19.066  0.00  0.00    +0.000 OA
ATOM     29  H   SER A   1       2.201   2.502  19.909  0.00  0.00    +0.000 HD
ENDBRANCH  27  28
ENDBRANCH  26  27
BRANCH  26  30
ATOM     30  C   SER A   1       2.257   3.636  21.604  0.00  0.00    +0.000 C 
BRANCH  30  31
ATOM     31  O   SER A   1       1.460   2.572  22.127  0.00  0.00    +0.000 OA
ATOM     32  H   SER A   1       2.087   1.853  22.345  0.00  0.00    +0.000 HD
ENDBRANCH  30  31
ENDBRANCH  26  30
ENDBRANCH  24  26
ENDBRANCH  12  24
TORSDOF 7
ENDMDL
MODEL 8
REMARK VINA RESULT:      -6.2      3.292      8.905
REMARK  Name = 
REMARK  7 active torsions:
REMARK  status: ('A' for Active; 'I' for Inactive)
REMARK    1  A    between atoms: C_12  and  N_13
REMARK    2  A    between atoms: N_13  and  CA_14
REMARK    3  A    between atoms: CA_14  and  CB_15
REMARK    4  A    between atoms: CA_14  and  C_17
REMARK    5  A    between atoms: CB_15  and  OG_16
REMARK    6  A    between atoms: C_17  and  O_18
REMARK    7  A    between atoms: C_19  and  C_20
REMARK                            x       y       z     vdW  Elec       q    Type
REMARK                         _______ _______ _______ _____ _____    ______ ____
ROOT
ATOM      1  O   UNK A   0       2.961   8.780  17.689  0.00  0.00    +0.000 OA
ATOM      2  C   UNK A   0       2.400   8.282  18.661  0.00  0.00    +0.000 A 
ATOM      3  N   UNK A   0       1.375   8.927  19.282  0.00  0.00    +0.000 N 
ATOM      4  C   UNK A   0       0.869   8.541  20.488  0.00  0.00    +0.000 A 
ATOM      5  N   UNK A   0      -0.068   9.380  21.049  0.00  0.00    +0.000 N 
ATOM      6  C   UNK A   0      -1.098  10.099  20.279  0.00  0.00    +0.000 C 
ATOM      7  C   UNK A   0      -1.268  11.505  20.868  0.00  0.00    +0.000 C 
ATOM      8  O   UNK A   0      -1.624  11.441  22.258  0.00  0.00    +0.000 OA
ATOM      9  C   UNK A   0      -0.621  10.734  23.010  0.00  0.00    +0.000 C 
ATOM     10  C   UNK A   0      -0.417   9.304  22.478  0.00  0.00    +0.000 C 
ATOM     11  N   UNK A   0       1.293   7.463  21.077  0.00  0.00    +0.000 NA
ATOM     12  C   UNK A   0       2.223   6.661  20.453  0.00  0.00    +0.000 A 
ATOM     13  C   UNK A   0       2.787   6.998  19.267  0.00  0.00    +0.000 A 
ATOM     14  H   UNK A   0       1.146   9.826  18.900  0.00  0.00    +0.000 HD
ENDROOT
BRANCH  13  15
ATOM     15  C   UNK A   0       3.667   6.141  18.559  0.00  0.00    +0.000 A 
ATOM     16  N   UNK A   0       4.966   6.025  18.760  0.00  0.00    +0.000 NA
ATOM     17  C   UNK A   0       5.540   5.254  17.768  0.00  0.00    +0.000 A 
ATOM     18  C   UNK A   0       6.918   5.012  17.604  0.00  0.00    +0.000 A 
ATOM     19  C   UNK A   0       7.369   4.312  16.479  0.00  0.00    +0.000 A 
ATOM     20  C   UNK A   0       6.463   3.824  15.543  0.00  0.00    +0.000 A 
ATOM     21  C   UNK A   0       5.087   3.996  15.719  0.00  0.00    +0.000 A 
ATOM     22  C   UNK A   0       4.649   4.721  16.837  0.00  0.00    +0.000 A 
ATOM     23  S   UNK A   0       3.046   5.120  17.309  0.00  0.00    +0.000 S 
ENDBRANCH  13  15
BRANCH  12  24
ATOM     24  N   SER A   1       2.494   5.446  21.098  0.00  0.00    +0.000 N 
ATOM     25  H   SER A   1       3.496   5.470  21.302  0.00  0.00    +0.000 HD
BRANCH  24  26
ATOM     26  CA  SER A   1       2.213   4.138  20.441  0.00  0.00    +0.000 C 
BRANCH  26  27
ATOM     27  CB  SER A   1       2.671   2.950  21.302  0.00  0.00    +0.000 C 
BRANCH  27  28
ATOM     28  OG  SER A   1       1.707   2.628  22.309  0.00  0.00    +0.000 OA
ATOM     29  H   SER A   1       2.047   3.034  23.129  0.00  0.00    +0.000 HD
ENDBRANCH  27  28
ENDBRANCH  26  27
BRANCH  26  30
ATOM     30  C   SER A   1       0.697   4.052  20.168  0.00  0.00    +0.000 C 
BRANCH  30  31
ATOM     31  O   SER A   1       0.335   2.725  19.784  0.00  0.00    +0.000 OA
ATOM     32  H   SER A   1       1.007   2.446  19.130  0.00  0.00    +0.000 HD
ENDBRANCH  30  31
ENDBRANCH  26  30
ENDBRANCH  24  26
ENDBRANCH  12  24
TORSDOF 7
ENDMDL
MODEL 9
REMARK VINA RESULT:      -6.2      1.583      1.966
REMARK  Name = 
REMARK  7 active torsions:
REMARK  status: ('A' for Active; 'I' for Inactive)
REMARK    1  A    between atoms: C_12  and  N_13
REMARK    2  A    between atoms: N_13  and  CA_14
REMARK    3  A    between atoms: CA_14  and  CB_15
REMARK    4  A    between atoms: CA_14  and  C_17
REMARK    5  A    between atoms: CB_15  and  OG_16
REMARK    6  A    between atoms: C_17  and  O_18
REMARK    7  A    between atoms: C_19  and  C_20
REMARK                            x       y       z     vdW  Elec       q    Type
REMARK                         _______ _______ _______ _____ _____    ______ ____
ROOT
ATOM      1  O   UNK A   0       0.480   9.660  23.704  0.00  0.00    +0.000 OA
ATOM      2  C   UNK A   0       0.569   9.566  22.483  0.00  0.00    +0.000 A 
ATOM      3  N   UNK A   0       0.972   8.405  21.899  0.00  0.00    +0.000 N 
ATOM      4  C   UNK A   0       1.307   8.307  20.580  0.00  0.00    +0.000 A 
ATOM      5  N   UNK A   0       1.831   7.099  20.176  0.00  0.00    +0.000 N 
ATOM      6  C   UNK A   0       1.370   5.792  20.675  0.00  0.00    +0.000 C 
ATOM      7  C   UNK A   0       2.584   4.874  20.860  0.00  0.00    +0.000 C 
ATOM      8  O   UNK A   0       3.308   4.722  19.628  0.00  0.00    +0.000 OA
ATOM      9  C   UNK A   0       3.753   5.999  19.138  0.00  0.00    +0.000 C 
ATOM     10  C   UNK A   0       2.574   6.963  18.912  0.00  0.00    +0.000 C 
ATOM     11  N   UNK A   0       1.175   9.322  19.779  0.00  0.00    +0.000 NA
ATOM     12  C   UNK A   0       0.632  10.498  20.247  0.00  0.00    +0.000 A 
ATOM     13  C   UNK A   0       0.301  10.673  21.551  0.00  0.00    +0.000 A 
ATOM     14  H   UNK A   0       1.204   7.667  22.538  0.00  0.00    +0.000 HD
ENDROOT
BRANCH  13  15
ATOM     15  C   UNK A   0      -0.353  11.835  22.032  0.00  0.00    +0.000 A 
ATOM     16  N   UNK A   0       0.146  13.057  22.046  0.00  0.00    +0.000 NA
ATOM     17  C   UNK A   0      -0.677  13.905  22.762  0.00  0.00    +0.000 A 
ATOM     18  C   UNK A   0      -0.403  15.251  23.074  0.00  0.00    +0.000 A 
ATOM     19  C   UNK A   0      -1.271  15.957  23.914  0.00  0.00    +0.000 A 
ATOM     20  C   UNK A   0      -2.420  15.349  24.412  0.00  0.00    +0.000 A 
ATOM     21  C   UNK A   0      -2.745  14.035  24.063  0.00  0.00    +0.000 A 
ATOM     22  C   UNK A   0      -1.853  13.330  23.240  0.00  0.00    +0.000 A 
ATOM     23  S   UNK A   0      -1.957  11.714  22.667  0.00  0.00    +0.000 S 
ENDBRANCH  13  15
BRANCH  12  24
ATOM     24  N   SER A   1       0.386  11.474  19.271  0.00  0.00    +0.000 N 
ATOM     25  H   SER A   1       0.316  10.958  18.390  0.00  0.00    +0.000 HD
BRANCH  24  26
ATOM     26  CA  SER A   1       1.334  12.601  19.043  0.00  0.00    +0.000 C 
BRANCH  26  27
ATOM     27  CB  SER A   1       2.437  12.232  18.037  0.00  0.00    +0.000 C 
BRANCH  27  28
ATOM     28  OG  SER A   1       2.190  10.962  17.427  0.00  0.00    +0.000 OA
ATOM     29  H   SER A   1       1.220  10.855  17.441  0.00  0.00    +0.000 HD
ENDBRANCH  27  28
ENDBRANCH  26  27
BRANCH  26  30
ATOM     30  C   SER A   1       0.527  13.813  18.534  0.00  0.00    +0.000 C 
BRANCH  30  31
ATOM     31  O   SER A   1      -0.790  13.802  19.086  0.00  0.00    +0.000 OA
ATOM     32  H   SER A   1      -0.967  12.871  19.329  0.00  0.00    +0.000 HD
ENDBRANCH  30  31
ENDBRANCH  26  30
ENDBRANCH  24  26
ENDBRANCH  12  24
TORSDOF 7
ENDMDL
