MODEL 1
REMARK VINA RESULT:      -6.6      0.000      0.000
REMARK  Name = 
REMARK  3 active torsions:
REMARK  status: ('A' for Active; 'I' for Inactive)
REMARK    1  A    between atoms: C_1  and  C_2
REMARK    2  A    between atoms: C_2  and  O_3
REMARK    3  A    between atoms: C_2  and  C_4
REMARK                            x       y       z     vdW  Elec       q    Type
REMARK                         _______ _______ _______ _____ _____    ______ ____
ROOT
ATOM      1  C   UNL     1       5.086   4.893  16.394  0.00  0.00    +0.000 A 
ATOM      2  C   UNL     1       4.689   6.039  17.099  0.00  0.00    +0.000 A 
ATOM      3  C   UNL     1       3.621   5.997  18.000  0.00  0.00    +0.000 A 
ATOM      4  C   UNL     1       2.917   4.805  18.219  0.00  0.00    +0.000 A 
ATOM      5  C   UNL     1       1.845   4.735  19.126  0.00  0.00    +0.000 A 
ATOM      6  C   UNL     1       1.161   3.536  19.329  0.00  0.00    +0.000 A 
ATOM      7  C   UNL     1       1.532   2.394  18.628  0.00  0.00    +0.000 A 
ATOM      8  C   UNL     1       2.594   2.447  17.724  0.00  0.00    +0.000 A 
ATOM      9  C   UNL     1       3.296   3.644  17.512  0.00  0.00    +0.000 A 
ATOM     10  C   UNL     1       4.373   3.704  16.609  0.00  0.00    +0.000 A 
ENDROOT
BRANCH   1  12
ATOM     11  C   UNL     1       6.219   4.085  14.218  0.00  0.00    +0.000 C 
ATOM     12  C   UNL     1       6.264   4.992  15.444  0.00  0.00    +0.000 C 
BRANCH  12  13
ATOM     13  O   UNL     1       7.460   4.672  16.158  0.00  0.00    +0.000 OA
ATOM     14  H   UNL     1       8.106   5.370  15.951  0.00  0.00    +0.000 HD
ENDBRANCH  12  13
ENDBRANCH   1  12
TORSDOF 2
ENDMDL
MODEL 2
REMARK VINA RESULT:      -6.5      1.670      2.458
REMARK  Name = 
REMARK  3 active torsions:
REMARK  status: ('A' for Active; 'I' for Inactive)
REMARK    1  A    between atoms: C_1  and  C_2
REMARK    2  A    between atoms: C_2  and  O_3
REMARK    3  A    between atoms: C_2  and  C_4
REMARK                            x       y       z     vdW  Elec       q    Type
REMARK                         _______ _______ _______ _____ _____    ______ ____
ROOT
ATOM      1  C   UNL     1       5.514   4.809  18.297  0.00  0.00    +0.000 A 
ATOM      2  C   UNL     1       4.990   4.140  17.181  0.00  0.00    +0.000 A 
ATOM      3  C   UNL     1       3.684   3.640  17.189  0.00  0.00    +0.000 A 
ATOM      4  C   UNL     1       2.866   3.795  18.317  0.00  0.00    +0.000 A 
ATOM      5  C   UNL     1       1.547   3.309  18.346  0.00  0.00    +0.000 A 
ATOM      6  C   UNL     1       0.751   3.477  19.480  0.00  0.00    +0.000 A 
ATOM      7  C   UNL     1       1.260   4.125  20.599  0.00  0.00    +0.000 A 
ATOM      8  C   UNL     1       2.567   4.613  20.586  0.00  0.00    +0.000 A 
ATOM      9  C   UNL     1       3.380   4.457  19.451  0.00  0.00    +0.000 A 
ATOM     10  C   UNL     1       4.695   4.953  19.428  0.00  0.00    +0.000 A 
ENDROOT
BRANCH   1  12
ATOM     11  C   UNL     1       7.191   6.426  17.180  0.00  0.00    +0.000 C 
ATOM     12  C   UNL     1       6.930   5.347  18.227  0.00  0.00    +0.000 C 
BRANCH  12  13
ATOM     13  O   UNL     1       7.820   4.266  17.945  0.00  0.00    +0.000 OA
ATOM     14  H   UNL     1       7.324   3.626  17.404  0.00  0.00    +0.000 HD
ENDBRANCH  12  13
ENDBRANCH   1  12
TORSDOF 2
ENDMDL
MODEL 3
REMARK VINA RESULT:      -6.5      1.193      1.282
REMARK  Name = 
REMARK  3 active torsions:
REMARK  status: ('A' for Active; 'I' for Inactive)
REMARK    1  A    between atoms: C_1  and  C_2
REMARK    2  A    between atoms: C_2  and  O_3
REMARK    3  A    between atoms: C_2  and  C_4
REMARK                            x       y       z     vdW  Elec       q    Type
REMARK                         _______ _______ _______ _____ _____    ______ ____
ROOT
ATOM      1  C   UNL     1       4.373   5.051  16.861  0.00  0.00    +0.000 A 
ATOM      2  C   UNL     1       4.295   6.115  17.773  0.00  0.00    +0.000 A 
ATOM      3  C   UNL     1       3.410   6.073  18.855  0.00  0.00    +0.000 A 
ATOM      4  C   UNL     1       2.575   4.965  19.053  0.00  0.00    +0.000 A 
ATOM      5  C   UNL     1       1.684   4.896  20.138  0.00  0.00    +0.000 A 
ATOM      6  C   UNL     1       0.863   3.781  20.316  0.00  0.00    +0.000 A 
ATOM      7  C   UNL     1       0.917   2.725  19.414  0.00  0.00    +0.000 A 
ATOM      8  C   UNL     1       1.797   2.779  18.332  0.00  0.00    +0.000 A 
ATOM      9  C   UNL     1       2.633   3.891  18.141  0.00  0.00    +0.000 A 
ATOM     10  C   UNL     1       3.527   3.948  17.058  0.00  0.00    +0.000 A 
ENDROOT
BRANCH   1  12
ATOM     11  C   UNL     1       6.743   4.540  15.971  0.00  0.00    +0.000 C 
ATOM     12  C   UNL     1       5.364   5.141  15.717  0.00  0.00    +0.000 C 
BRANCH  12  13
ATOM     13  O   UNL     1       5.560   6.517  15.385  0.00  0.00    +0.000 OA
ATOM     14  H   UNL     1       5.122   6.665  14.528  0.00  0.00    +0.000 HD
ENDBRANCH  12  13
ENDBRANCH   1  12
TORSDOF 2
ENDMDL
MODEL 4
REMARK VINA RESULT:      -6.5      2.569      5.336
REMARK  Name = 
REMARK  3 active torsions:
REMARK  status: ('A' for Active; 'I' for Inactive)
REMARK    1  A    between atoms: C_1  and  C_2
REMARK    2  A    between atoms: C_2  and  O_3
REMARK    3  A    between atoms: C_2  and  C_4
REMARK                            x       y       z     vdW  Elec       q    Type
REMARK                         _______ _______ _______ _____ _____    ______ ____
ROOT
ATOM      1  C   UNL     1       2.063   3.797  19.158  0.00  0.00    +0.000 A 
ATOM      2  C   UNL     1       2.570   2.688  18.464  0.00  0.00    +0.000 A 
ATOM      3  C   UNL     1       3.531   2.843  17.460  0.00  0.00    +0.000 A 
ATOM      4  C   UNL     1       4.009   4.116  17.119  0.00  0.00    +0.000 A 
ATOM      5  C   UNL     1       4.981   4.298  16.121  0.00  0.00    +0.000 A 
ATOM      6  C   UNL     1       5.444   5.575  15.800  0.00  0.00    +0.000 A 
ATOM      7  C   UNL     1       4.942   6.685  16.468  0.00  0.00    +0.000 A 
ATOM      8  C   UNL     1       3.977   6.522  17.463  0.00  0.00    +0.000 A 
ATOM      9  C   UNL     1       3.504   5.244  17.800  0.00  0.00    +0.000 A 
ATOM     10  C   UNL     1       2.538   5.070  18.807  0.00  0.00    +0.000 A 
ENDROOT
BRANCH   1  12
ATOM     11  C   UNL     1       1.539   2.875  21.513  0.00  0.00    +0.000 C 
ATOM     12  C   UNL     1       1.037   3.568  20.250  0.00  0.00    +0.000 C 
BRANCH  12  13
ATOM     13  O   UNL     1      -0.024   2.767  19.725  0.00  0.00    +0.000 OA
ATOM     14  H   UNL     1      -0.837   3.298  19.789  0.00  0.00    +0.000 HD
ENDBRANCH  12  13
ENDBRANCH   1  12
TORSDOF 2
ENDMDL
MODEL 5
REMARK VINA RESULT:      -6.5      1.917      2.107
REMARK  Name = 
REMARK  3 active torsions:
REMARK  status: ('A' for Active; 'I' for Inactive)
REMARK    1  A    between atoms: C_1  and  C_2
REMARK    2  A    between atoms: C_2  and  O_3
REMARK    3  A    between atoms: C_2  and  C_4
REMARK                            x       y       z     vdW  Elec       q    Type
REMARK                         _______ _______ _______ _____ _____    ______ ____
ROOT
ATOM      1  C   UNL     1       5.615   5.001  18.486  0.00  0.00    +0.000 A 
ATOM      2  C   UNL     1       4.764   5.882  17.802  0.00  0.00    +0.000 A 
ATOM      3  C   UNL     1       3.404   5.594  17.646  0.00  0.00    +0.000 A 
ATOM      4  C   UNL     1       2.858   4.413  18.169  0.00  0.00    +0.000 A 
ATOM      5  C   UNL     1       1.494   4.107  18.033  0.00  0.00    +0.000 A 
ATOM      6  C   UNL     1       0.973   2.926  18.564  0.00  0.00    +0.000 A 
ATOM      7  C   UNL     1       1.805   2.036  19.232  0.00  0.00    +0.000 A 
ATOM      8  C   UNL     1       3.162   2.326  19.376  0.00  0.00    +0.000 A 
ATOM      9  C   UNL     1       3.702   3.512  18.852  0.00  0.00    +0.000 A 
ATOM     10  C   UNL     1       5.066   3.815  18.999  0.00  0.00    +0.000 A 
ENDROOT
BRANCH   1  12
ATOM     11  C   UNL     1       7.522   6.662  17.961  0.00  0.00    +0.000 C 
ATOM     12  C   UNL     1       7.077   5.372  18.642  0.00  0.00    +0.000 C 
BRANCH  12  13
ATOM     13  O   UNL     1       7.879   4.317  18.107  0.00  0.00    +0.000 OA
ATOM     14  H   UNL     1       7.452   3.481  18.362  0.00  0.00    +0.000 HD
ENDBRANCH  12  13
ENDBRANCH   1  12
TORSDOF 2
ENDMDL
MODEL 6
REMARK VINA RESULT:      -6.5      2.561      4.991
REMARK  Name = 
REMARK  3 active torsions:
REMARK  status: ('A' for Active; 'I' for Inactive)
REMARK    1  A    between atoms: C_1  and  C_2
REMARK    2  A    between atoms: C_2  and  O_3
REMARK    3  A    between atoms: C_2  and  C_4
REMARK                            x       y       z     vdW  Elec       q    Type
REMARK                         _______ _______ _______ _____ _____    ______ ____
ROOT
ATOM      1  C   UNL     1       2.099   4.520  19.640  0.00  0.00    +0.000 A 
ATOM      2  C   UNL     1       2.200   5.916  19.741  0.00  0.00    +0.000 A 
ATOM      3  C   UNL     1       3.005   6.646  18.861  0.00  0.00    +0.000 A 
ATOM      4  C   UNL     1       3.736   5.997  17.855  0.00  0.00    +0.000 A 
ATOM      5  C   UNL     1       4.544   6.710  16.953  0.00  0.00    +0.000 A 
ATOM      6  C   UNL     1       5.260   6.043  15.958  0.00  0.00    +0.000 A 
ATOM      7  C   UNL     1       5.183   4.659  15.853  0.00  0.00    +0.000 A 
ATOM      8  C   UNL     1       4.384   3.937  16.740  0.00  0.00    +0.000 A 
ATOM      9  C   UNL     1       3.653   4.594  17.744  0.00  0.00    +0.000 A 
ATOM     10  C   UNL     1       2.840   3.874  18.637  0.00  0.00    +0.000 A 
ENDROOT
BRANCH   1  12
ATOM     11  C   UNL     1       1.892   2.880  21.625  0.00  0.00    +0.000 C 
ATOM     12  C   UNL     1       1.197   3.781  20.608  0.00  0.00    +0.000 C 
BRANCH  12  13
ATOM     13  O   UNL     1       0.298   2.957  19.863  0.00  0.00    +0.000 OA
ATOM     14  H   UNL     1       0.058   3.455  19.062  0.00  0.00    +0.000 HD
ENDBRANCH  12  13
ENDBRANCH   1  12
TORSDOF 2
ENDMDL
MODEL 7
REMARK VINA RESULT:      -6.5      1.687      1.983
REMARK  Name = 
REMARK  3 active torsions:
REMARK  status: ('A' for Active; 'I' for Inactive)
REMARK    1  A    between atoms: C_1  and  C_2
REMARK    2  A    between atoms: C_2  and  O_3
REMARK    3  A    between atoms: C_2  and  C_4
REMARK                            x       y       z     vdW  Elec       q    Type
REMARK                         _______ _______ _______ _____ _____    ______ ____
ROOT
ATOM      1  C   UNL     1       4.924   4.487  17.897  0.00  0.00    +0.000 A 
ATOM      2  C   UNL     1       3.777   5.079  17.347  0.00  0.00    +0.000 A 
ATOM      3  C   UNL     1       2.522   4.904  17.937  0.00  0.00    +0.000 A 
ATOM      4  C   UNL     1       2.379   4.126  19.096  0.00  0.00    +0.000 A 
ATOM      5  C   UNL     1       1.129   3.943  19.713  0.00  0.00    +0.000 A 
ATOM      6  C   UNL     1       1.012   3.167  20.867  0.00  0.00    +0.000 A 
ATOM      7  C   UNL     1       2.136   2.561  21.417  0.00  0.00    +0.000 A 
ATOM      8  C   UNL     1       3.384   2.735  20.816  0.00  0.00    +0.000 A 
ATOM      9  C   UNL     1       3.520   3.516  19.657  0.00  0.00    +0.000 A 
ATOM     10  C   UNL     1       4.775   3.702  19.051  0.00  0.00    +0.000 A 
ENDROOT
BRANCH   1  12
ATOM     11  C   UNL     1       6.428   4.147  15.824  0.00  0.00    +0.000 C 
ATOM     12  C   UNL     1       6.263   4.726  17.226  0.00  0.00    +0.000 C 
BRANCH  12  13
ATOM     13  O   UNL     1       7.292   4.159  18.038  0.00  0.00    +0.000 OA
ATOM     14  H   UNL     1       7.842   4.898  18.353  0.00  0.00    +0.000 HD
ENDBRANCH  12  13
ENDBRANCH   1  12
TORSDOF 2
ENDMDL
MODEL 8
REMARK VINA RESULT:      -6.4      2.121      4.790
REMARK  Name = 
REMARK  3 active torsions:
REMARK  status: ('A' for Active; 'I' for Inactive)
REMARK    1  A    between atoms: C_1  and  C_2
REMARK    2  A    between atoms: C_2  and  O_3
REMARK    3  A    between atoms: C_2  and  C_4
REMARK                            x       y       z     vdW  Elec       q    Type
REMARK                         _______ _______ _______ _____ _____    ______ ____
ROOT
ATOM      1  C   UNL     1       2.304   3.901  18.107  0.00  0.00    +0.000 A 
ATOM      2  C   UNL     1       2.286   5.277  18.380  0.00  0.00    +0.000 A 
ATOM      3  C   UNL     1       3.289   6.122  17.893  0.00  0.00    +0.000 A 
ATOM      4  C   UNL     1       4.341   5.610  17.120  0.00  0.00    +0.000 A 
ATOM      5  C   UNL     1       5.355   6.439  16.612  0.00  0.00    +0.000 A 
ATOM      6  C   UNL     1       6.392   5.908  15.843  0.00  0.00    +0.000 A 
ATOM      7  C   UNL     1       6.432   4.545  15.575  0.00  0.00    +0.000 A 
ATOM      8  C   UNL     1       5.432   3.708  16.072  0.00  0.00    +0.000 A 
ATOM      9  C   UNL     1       4.380   4.227  16.844  0.00  0.00    +0.000 A 
ATOM     10  C   UNL     1       3.364   3.392  17.341  0.00  0.00    +0.000 A 
ENDROOT
BRANCH   1  12
ATOM     11  C   UNL     1       0.827   3.226  20.116  0.00  0.00    +0.000 C 
ATOM     12  C   UNL     1       1.180   3.036  18.644  0.00  0.00    +0.000 C 
BRANCH  12  13
ATOM     13  O   UNL     1       1.535   1.662  18.472  0.00  0.00    +0.000 OA
ATOM     14  H   UNL     1       1.305   1.425  17.556  0.00  0.00    +0.000 HD
ENDBRANCH  12  13
ENDBRANCH   1  12
TORSDOF 2
ENDMDL
MODEL 9
REMARK VINA RESULT:      -6.3      1.460      2.543
REMARK  Name = 
REMARK  3 active torsions:
REMARK  status: ('A' for Active; 'I' for Inactive)
REMARK    1  A    between atoms: C_1  and  C_2
REMARK    2  A    between atoms: C_2  and  O_3
REMARK    3  A    between atoms: C_2  and  C_4
REMARK                            x       y       z     vdW  Elec       q    Type
REMARK                         _______ _______ _______ _____ _____    ______ ____
ROOT
ATOM      1  C   UNL     1       4.710   5.305  17.110  0.00  0.00    +0.000 A 
ATOM      2  C   UNL     1       4.269   4.081  16.587  0.00  0.00    +0.000 A 
ATOM      3  C   UNL     1       3.222   3.375  17.188  0.00  0.00    +0.000 A 
ATOM      4  C   UNL     1       2.587   3.876  18.333  0.00  0.00    +0.000 A 
ATOM      5  C   UNL     1       1.527   3.190  18.950  0.00  0.00    +0.000 A 
ATOM      6  C   UNL     1       0.909   3.709  20.088  0.00  0.00    +0.000 A 
ATOM      7  C   UNL     1       1.343   4.914  20.628  0.00  0.00    +0.000 A 
ATOM      8  C   UNL     1       2.394   5.607  20.027  0.00  0.00    +0.000 A 
ATOM      9  C   UNL     1       3.024   5.101  18.879  0.00  0.00    +0.000 A 
ATOM     10  C   UNL     1       4.078   5.798  18.263  0.00  0.00    +0.000 A 
ENDROOT
BRANCH   1  12
ATOM     11  C   UNL     1       6.657   6.995  17.265  0.00  0.00    +0.000 C 
ATOM     12  C   UNL     1       5.837   6.037  16.407  0.00  0.00    +0.000 C 
BRANCH  12  13
ATOM     13  O   UNL     1       5.289   6.802  15.332  0.00  0.00    +0.000 OA
ATOM     14  H   UNL     1       6.025   7.301  14.937  0.00  0.00    +0.000 HD
ENDBRANCH  12  13
ENDBRANCH   1  12
TORSDOF 2
ENDMDL
