MODEL 1
REMARK VINA RESULT:      -8.4      0.000      0.000
REMARK  Name = 
REMARK  4 active torsions:
REMARK  status: ('A' for Active; 'I' for Inactive)
REMARK    1  A    between atoms: C_2  and  C_11
REMARK    2  A    between atoms: N_3  and  C_4
REMARK    3  A    between atoms: C_4  and  C_5
REMARK    4  A    between atoms: C_16  and  C_17
REMARK                            x       y       z     vdW  Elec       q    Type
REMARK                         _______ _______ _______ _____ _____    ______ ____
ROOT
ATOM      1  C   UNL     1       2.367   5.275  19.809  0.00  0.00    +0.000 A 
ATOM      2  C   UNL     1       1.314   4.669  20.527  0.00  0.00    +0.000 A 
ATOM      3  C   UNL     1       1.285   3.292  20.726  0.00  0.00    +0.000 A 
ATOM      4  C   UNL     1       2.313   2.510  20.225  0.00  0.00    +0.000 A 
ATOM      5  C   UNL     1       3.372   3.105  19.528  0.00  0.00    +0.000 A 
ATOM      6  C   UNL     1       3.438   4.499  19.293  0.00  0.00    +0.000 A 
ENDROOT
BRANCH   6   7
ATOM      7  C   UNL     1       4.606   5.042  18.538  0.00  0.00    +0.000 A 
ATOM      8  C   UNL     1       4.510   5.312  17.156  0.00  0.00    +0.000 A 
ATOM      9  C   UNL     1       5.567   5.892  16.441  0.00  0.00    +0.000 A 
ATOM     10  C   UNL     1       6.733   6.256  17.101  0.00  0.00    +0.000 A 
ATOM     11  C   UNL     1       6.851   5.986  18.456  0.00  0.00    +0.000 A 
ATOM     12  F   UNL     1       7.954   6.375  19.110  0.00  0.00    +0.000 F 
ATOM     13  C   UNL     1       5.830   5.348  19.157  0.00  0.00    +0.000 A 
ENDBRANCH   6   7
BRANCH   1  15
ATOM     14  O   UNL     1       2.416   7.273  18.554  0.00  0.00    +0.000 OA
ATOM     15  C   UNL     1       2.226   6.751  19.648  0.00  0.00    +0.000 C 
ATOM     16  N   UNL     1       1.920   7.454  20.790  0.00  0.00    +0.000 N 
ATOM     17  H   UNL     1       1.783   6.952  21.659  0.00  0.00    +0.000 HD
BRANCH  16  18
ATOM     18  C   UNL     1       1.607   8.868  20.780  0.00  0.00    +0.000 C 
BRANCH  18  19
ATOM     19  C   UNL     1       0.090   9.067  20.879  0.00  0.00    +0.000 C 
ATOM     20  C   UNL     1      -0.301  10.526  20.612  0.00  0.00    +0.000 C 
ATOM     21  C   UNL     1       0.018  11.441  21.796  0.00  0.00    +0.000 C 
ATOM     22  N   UNL     1      -0.578  10.946  23.038  0.00  0.00    +0.000 NA
ATOM     23  C   UNL     1      -0.089   9.603  23.356  0.00  0.00    +0.000 C 
ATOM     24  C   UNL     1      -0.452   8.619  22.248  0.00  0.00    +0.000 C 
ATOM     25  H   UNL     1      -1.592  10.906  22.925  0.00  0.00    +0.000 HD
ENDBRANCH  18  19
ENDBRANCH  16  18
ENDBRANCH   1  15
TORSDOF 4
ENDMDL
MODEL 2
REMARK VINA RESULT:      -8.4      0.995      1.409
REMARK  Name = 
REMARK  4 active torsions:
REMARK  status: ('A' for Active; 'I' for Inactive)
REMARK    1  A    between atoms: C_2  and  C_11
REMARK    2  A    between atoms: N_3  and  C_4
REMARK    3  A    between atoms: C_4  and  C_5
REMARK    4  A    between atoms: C_16  and  C_17
REMARK                            x       y       z     vdW  Elec       q    Type
REMARK                         _______ _______ _______ _____ _____    ______ ____
ROOT
ATOM      1  C   UNL     1       2.333   5.310  19.797  0.00  0.00    +0.000 A 
ATOM      2  C   UNL     1       1.277   4.714  20.517  0.00  0.00    +0.000 A 
ATOM      3  C   UNL     1       1.218   3.334  20.687  0.00  0.00    +0.000 A 
ATOM      4  C   UNL     1       2.219   2.539  20.154  0.00  0.00    +0.000 A 
ATOM      5  C   UNL     1       3.282   3.124  19.454  0.00  0.00    +0.000 A 
ATOM      6  C   UNL     1       3.378   4.520  19.249  0.00  0.00    +0.000 A 
ENDROOT
BRANCH   6   7
ATOM      7  C   UNL     1       4.548   5.052  18.488  0.00  0.00    +0.000 A 
ATOM      8  C   UNL     1       5.755   5.367  19.147  0.00  0.00    +0.000 A 
ATOM      9  C   UNL     1       6.891   5.796  18.446  0.00  0.00    +0.000 A 
ATOM     10  C   UNL     1       6.859   5.879  17.060  0.00  0.00    +0.000 A 
ATOM     11  C   UNL     1       5.678   5.586  16.396  0.00  0.00    +0.000 A 
ATOM     12  F   UNL     1       5.652   5.619  15.057  0.00  0.00    +0.000 F 
ATOM     13  C   UNL     1       4.527   5.225  17.093  0.00  0.00    +0.000 A 
ENDBRANCH   6   7
BRANCH   1  15
ATOM     14  O   UNL     1       2.537   7.346  18.620  0.00  0.00    +0.000 OA
ATOM     15  C   UNL     1       2.225   6.792  19.670  0.00  0.00    +0.000 C 
ATOM     16  N   UNL     1       1.807   7.464  20.795  0.00  0.00    +0.000 N 
ATOM     17  H   UNL     1       1.572   6.937  21.627  0.00  0.00    +0.000 HD
BRANCH  16  18
ATOM     18  C   UNL     1       1.510   8.881  20.798  0.00  0.00    +0.000 C 
BRANCH  18  19
ATOM     19  C   UNL     1      -0.002   9.098  20.922  0.00  0.00    +0.000 C 
ATOM     20  C   UNL     1      -0.384  10.555  20.628  0.00  0.00    +0.000 C 
ATOM     21  C   UNL     1      -0.033  11.493  21.784  0.00  0.00    +0.000 C 
ATOM     22  N   UNL     1      -0.609  11.034  23.049  0.00  0.00    +0.000 NA
ATOM     23  C   UNL     1      -0.126   9.694  23.389  0.00  0.00    +0.000 C 
ATOM     24  C   UNL     1      -0.521   8.688  22.312  0.00  0.00    +0.000 C 
ATOM     25  H   UNL     1      -1.625  11.002  22.957  0.00  0.00    +0.000 HD
ENDBRANCH  18  19
ENDBRANCH  16  18
ENDBRANCH   1  15
TORSDOF 4
ENDMDL
MODEL 3
REMARK VINA RESULT:      -8.2      1.289      1.398
REMARK  Name = 
REMARK  4 active torsions:
REMARK  status: ('A' for Active; 'I' for Inactive)
REMARK    1  A    between atoms: C_2  and  C_11
REMARK    2  A    between atoms: N_3  and  C_4
REMARK    3  A    between atoms: C_4  and  C_5
REMARK    4  A    between atoms: C_16  and  C_17
REMARK                            x       y       z     vdW  Elec       q    Type
REMARK                         _______ _______ _______ _____ _____    ______ ____
ROOT
ATOM      1  C   UNL     1       2.655   5.462  18.517  0.00  0.00    +0.000 A 
ATOM      2  C   UNL     1       1.417   4.790  18.453  0.00  0.00    +0.000 A 
ATOM      3  C   UNL     1       1.326   3.509  17.917  0.00  0.00    +0.000 A 
ATOM      4  C   UNL     1       2.472   2.882  17.454  0.00  0.00    +0.000 A 
ATOM      5  C   UNL     1       3.709   3.535  17.531  0.00  0.00    +0.000 A 
ATOM      6  C   UNL     1       3.847   4.840  18.060  0.00  0.00    +0.000 A 
ENDROOT
BRANCH   6   7
ATOM      7  C   UNL     1       5.207   5.455  18.099  0.00  0.00    +0.000 A 
ATOM      8  C   UNL     1       5.585   6.434  17.156  0.00  0.00    +0.000 A 
ATOM      9  C   UNL     1       6.827   7.081  17.217  0.00  0.00    +0.000 A 
ATOM     10  C   UNL     1       7.707   6.792  18.252  0.00  0.00    +0.000 A 
ATOM     11  C   UNL     1       7.360   5.823  19.180  0.00  0.00    +0.000 A 
ATOM     12  F   UNL     1       8.182   5.573  20.208  0.00  0.00    +0.000 F 
ATOM     13  C   UNL     1       6.154   5.130  19.085  0.00  0.00    +0.000 A 
ENDBRANCH   6   7
BRANCH   1  15
ATOM     14  O   UNL     1       2.909   7.806  18.399  0.00  0.00    +0.000 OA
ATOM     15  C   UNL     1       2.573   6.842  19.079  0.00  0.00    +0.000 C 
ATOM     16  N   UNL     1       2.150   6.935  20.384  0.00  0.00    +0.000 N 
ATOM     17  H   UNL     1       1.895   6.092  20.884  0.00  0.00    +0.000 HD
BRANCH  16  18
ATOM     18  C   UNL     1       1.876   8.202  21.032  0.00  0.00    +0.000 C 
BRANCH  18  19
ATOM     19  C   UNL     1       0.418   8.606  20.792  0.00  0.00    +0.000 C 
ATOM     20  C   UNL     1       0.320  10.003  20.165  0.00  0.00    +0.000 C 
ATOM     21  C   UNL     1       0.589  11.116  21.179  0.00  0.00    +0.000 C 
ATOM     22  N   UNL     1      -0.273  10.998  22.355  0.00  0.00    +0.000 NA
ATOM     23  C   UNL     1      -0.069   9.713  23.027  0.00  0.00    +0.000 C 
ATOM     24  C   UNL     1      -0.405   8.555  22.092  0.00  0.00    +0.000 C 
ATOM     25  H   UNL     1      -1.248  11.060  22.059  0.00  0.00    +0.000 HD
ENDBRANCH  18  19
ENDBRANCH  16  18
ENDBRANCH   1  15
TORSDOF 4
ENDMDL
MODEL 4
REMARK VINA RESULT:      -8.0      1.476      1.822
REMARK  Name = 
REMARK  4 active torsions:
REMARK  status: ('A' for Active; 'I' for Inactive)
REMARK    1  A    between atoms: C_2  and  C_11
REMARK    2  A    between atoms: N_3  and  C_4
REMARK    3  A    between atoms: C_4  and  C_5
REMARK    4  A    between atoms: C_16  and  C_17
REMARK                            x       y       z     vdW  Elec       q    Type
REMARK                         _______ _______ _______ _____ _____    ______ ____
ROOT
ATOM      1  C   UNL     1       2.705   5.586  18.510  0.00  0.00    +0.000 A 
ATOM      2  C   UNL     1       1.480   4.921  18.295  0.00  0.00    +0.000 A 
ATOM      3  C   UNL     1       1.444   3.666  17.695  0.00  0.00    +0.000 A 
ATOM      4  C   UNL     1       2.631   3.058  17.318  0.00  0.00    +0.000 A 
ATOM      5  C   UNL     1       3.853   3.703  17.545  0.00  0.00    +0.000 A 
ATOM      6  C   UNL     1       3.937   4.982  18.143  0.00  0.00    +0.000 A 
ENDROOT
BRANCH   6   7
ATOM      7  C   UNL     1       5.285   5.591  18.342  0.00  0.00    +0.000 A 
ATOM      8  C   UNL     1       6.135   5.143  19.376  0.00  0.00    +0.000 A 
ATOM      9  C   UNL     1       7.434   5.645  19.537  0.00  0.00    +0.000 A 
ATOM     10  C   UNL     1       7.930   6.581  18.639  0.00  0.00    +0.000 A 
ATOM     11  C   UNL     1       7.106   7.043  17.624  0.00  0.00    +0.000 A 
ATOM     12  F   UNL     1       7.593   7.910  16.726  0.00  0.00    +0.000 F 
ATOM     13  C   UNL     1       5.792   6.596  17.500  0.00  0.00    +0.000 A 
ENDBRANCH   6   7
BRANCH   1  15
ATOM     14  O   UNL     1       2.817   7.944  18.464  0.00  0.00    +0.000 OA
ATOM     15  C   UNL     1       2.566   6.939  19.123  0.00  0.00    +0.000 C 
ATOM     16  N   UNL     1       2.191   6.965  20.446  0.00  0.00    +0.000 N 
ATOM     17  H   UNL     1       2.006   6.092  20.925  0.00  0.00    +0.000 HD
BRANCH  16  18
ATOM     18  C   UNL     1       1.871   8.190  21.147  0.00  0.00    +0.000 C 
BRANCH  18  19
ATOM     19  C   UNL     1       0.434   8.615  20.827  0.00  0.00    +0.000 C 
ATOM     20  C   UNL     1       0.394  10.002  20.172  0.00  0.00    +0.000 C 
ATOM     21  C   UNL     1       0.631  11.129  21.179  0.00  0.00    +0.000 C 
ATOM     22  N   UNL     1      -0.291  11.046  22.312  0.00  0.00    +0.000 NA
ATOM     23  C   UNL     1      -0.145   9.770  23.015  0.00  0.00    +0.000 C 
ATOM     24  C   UNL     1      -0.454   8.601  22.085  0.00  0.00    +0.000 C 
ATOM     25  H   UNL     1      -1.249  11.120  21.966  0.00  0.00    +0.000 HD
ENDBRANCH  18  19
ENDBRANCH  16  18
ENDBRANCH   1  15
TORSDOF 4
ENDMDL
MODEL 5
REMARK VINA RESULT:      -7.9      3.604      6.028
REMARK  Name = 
REMARK  4 active torsions:
REMARK  status: ('A' for Active; 'I' for Inactive)
REMARK    1  A    between atoms: C_2  and  C_11
REMARK    2  A    between atoms: N_3  and  C_4
REMARK    3  A    between atoms: C_4  and  C_5
REMARK    4  A    between atoms: C_16  and  C_17
REMARK                            x       y       z     vdW  Elec       q    Type
REMARK                         _______ _______ _______ _____ _____    ______ ____
ROOT
ATOM      1  C   UNL     1       5.466   4.242  15.373  0.00  0.00    +0.000 A 
ATOM      2  C   UNL     1       5.121   3.597  14.167  0.00  0.00    +0.000 A 
ATOM      3  C   UNL     1       5.949   3.678  13.052  0.00  0.00    +0.000 A 
ATOM      4  C   UNL     1       7.135   4.390  13.134  0.00  0.00    +0.000 A 
ATOM      5  C   UNL     1       7.495   5.017  14.334  0.00  0.00    +0.000 A 
ATOM      6  C   UNL     1       6.680   4.969  15.489  0.00  0.00    +0.000 A 
ENDROOT
BRANCH   6   7
ATOM      7  C   UNL     1       7.147   5.671  16.722  0.00  0.00    +0.000 A 
ATOM      8  C   UNL     1       7.547   4.941  17.861  0.00  0.00    +0.000 A 
ATOM      9  C   UNL     1       8.060   5.573  19.003  0.00  0.00    +0.000 A 
ATOM     10  C   UNL     1       8.224   6.951  19.016  0.00  0.00    +0.000 A 
ATOM     11  C   UNL     1       7.824   7.687  17.912  0.00  0.00    +0.000 A 
ATOM     12  F   UNL     1       8.023   9.012  17.898  0.00  0.00    +0.000 F 
ATOM     13  C   UNL     1       7.252   7.071  16.801  0.00  0.00    +0.000 A 
ENDBRANCH   6   7
BRANCH   1  15
ATOM     14  O   UNL     1       3.557   4.923  16.583  0.00  0.00    +0.000 OA
ATOM     15  C   UNL     1       4.452   4.093  16.457  0.00  0.00    +0.000 C 
ATOM     16  N   UNL     1       4.622   3.017  17.297  0.00  0.00    +0.000 N 
ATOM     17  H   UNL     1       5.390   2.377  17.132  0.00  0.00    +0.000 HD
BRANCH  16  18
ATOM     18  C   UNL     1       3.650   2.647  18.305  0.00  0.00    +0.000 C 
BRANCH  18  19
ATOM     19  C   UNL     1       4.183   2.999  19.698  0.00  0.00    +0.000 C 
ATOM     20  C   UNL     1       3.190   2.594  20.795  0.00  0.00    +0.000 C 
ATOM     21  C   UNL     1       1.995   3.544  20.879  0.00  0.00    +0.000 C 
ATOM     22  N   UNL     1       2.419   4.937  21.031  0.00  0.00    +0.000 NA
ATOM     23  C   UNL     1       3.255   5.355  19.903  0.00  0.00    +0.000 C 
ATOM     24  C   UNL     1       4.514   4.498  19.815  0.00  0.00    +0.000 C 
ATOM     25  H   UNL     1       2.962   5.025  21.890  0.00  0.00    +0.000 HD
ENDBRANCH  18  19
ENDBRANCH  16  18
ENDBRANCH   1  15
TORSDOF 4
ENDMDL
MODEL 6
REMARK VINA RESULT:      -7.8      4.185      5.848
REMARK  Name = 
REMARK  4 active torsions:
REMARK  status: ('A' for Active; 'I' for Inactive)
REMARK    1  A    between atoms: C_2  and  C_11
REMARK    2  A    between atoms: N_3  and  C_4
REMARK    3  A    between atoms: C_4  and  C_5
REMARK    4  A    between atoms: C_16  and  C_17
REMARK                            x       y       z     vdW  Elec       q    Type
REMARK                         _______ _______ _______ _____ _____    ______ ____
ROOT
ATOM      1  C   UNL     1       5.122   4.958  15.961  0.00  0.00    +0.000 A 
ATOM      2  C   UNL     1       4.616   4.211  14.876  0.00  0.00    +0.000 A 
ATOM      3  C   UNL     1       5.433   3.864  13.805  0.00  0.00    +0.000 A 
ATOM      4  C   UNL     1       6.765   4.246  13.813  0.00  0.00    +0.000 A 
ATOM      5  C   UNL     1       7.281   4.972  14.894  0.00  0.00    +0.000 A 
ATOM      6  C   UNL     1       6.485   5.354  16.000  0.00  0.00    +0.000 A 
ENDROOT
BRANCH   6   7
ATOM      7  C   UNL     1       7.123   6.129  17.105  0.00  0.00    +0.000 A 
ATOM      8  C   UNL     1       7.546   5.485  18.288  0.00  0.00    +0.000 A 
ATOM      9  C   UNL     1       8.215   6.176  19.308  0.00  0.00    +0.000 A 
ATOM     10  C   UNL     1       8.516   7.522  19.151  0.00  0.00    +0.000 A 
ATOM     11  C   UNL     1       8.097   8.175  18.002  0.00  0.00    +0.000 A 
ATOM     12  F   UNL     1       8.423   9.462  17.821  0.00  0.00    +0.000 F 
ATOM     13  C   UNL     1       7.372   7.509  17.015  0.00  0.00    +0.000 A 
ENDBRANCH   6   7
BRANCH   1  15
ATOM     14  O   UNL     1       3.948   6.444  17.371  0.00  0.00    +0.000 OA
ATOM     15  C   UNL     1       4.107   5.284  17.004  0.00  0.00    +0.000 C 
ATOM     16  N   UNL     1       3.423   4.214  17.532  0.00  0.00    +0.000 N 
ATOM     17  H   UNL     1       3.613   3.283  17.182  0.00  0.00    +0.000 HD
BRANCH  16  18
ATOM     18  C   UNL     1       2.308   4.368  18.444  0.00  0.00    +0.000 C 
BRANCH  18  19
ATOM     19  C   UNL     1       1.861   2.995  18.959  0.00  0.00    +0.000 C 
ATOM     20  C   UNL     1       0.982   3.126  20.209  0.00  0.00    +0.000 C 
ATOM     21  C   UNL     1       1.795   3.464  21.460  0.00  0.00    +0.000 C 
ATOM     22  N   UNL     1       2.887   2.512  21.671  0.00  0.00    +0.000 NA
ATOM     23  C   UNL     1       3.799   2.498  20.525  0.00  0.00    +0.000 C 
ATOM     24  C   UNL     1       3.065   2.082  19.254  0.00  0.00    +0.000 C 
ATOM     25  H   UNL     1       2.493   1.578  21.786  0.00  0.00    +0.000 HD
ENDBRANCH  18  19
ENDBRANCH  16  18
ENDBRANCH   1  15
TORSDOF 4
ENDMDL
MODEL 7
REMARK VINA RESULT:      -7.8      3.539      6.296
REMARK  Name = 
REMARK  4 active torsions:
REMARK  status: ('A' for Active; 'I' for Inactive)
REMARK    1  A    between atoms: C_2  and  C_11
REMARK    2  A    between atoms: N_3  and  C_4
REMARK    3  A    between atoms: C_4  and  C_5
REMARK    4  A    between atoms: C_16  and  C_17
REMARK                            x       y       z     vdW  Elec       q    Type
REMARK                         _______ _______ _______ _____ _____    ______ ____
ROOT
ATOM      1  C   UNL     1       3.673   3.794  18.827  0.00  0.00    +0.000 A 
ATOM      2  C   UNL     1       3.722   2.397  18.640  0.00  0.00    +0.000 A 
ATOM      3  C   UNL     1       2.554   1.647  18.545  0.00  0.00    +0.000 A 
ATOM      4  C   UNL     1       1.327   2.287  18.621  0.00  0.00    +0.000 A 
ATOM      5  C   UNL     1       1.269   3.676  18.787  0.00  0.00    +0.000 A 
ATOM      6  C   UNL     1       2.430   4.477  18.898  0.00  0.00    +0.000 A 
ENDROOT
BRANCH   6   7
ATOM      7  C   UNL     1       2.268   5.950  19.076  0.00  0.00    +0.000 A 
ATOM      8  C   UNL     1       2.386   6.828  17.977  0.00  0.00    +0.000 A 
ATOM      9  C   UNL     1       2.163   8.206  18.103  0.00  0.00    +0.000 A 
ATOM     10  C   UNL     1       1.775   8.735  19.327  0.00  0.00    +0.000 A 
ATOM     11  C   UNL     1       1.667   7.891  20.421  0.00  0.00    +0.000 A 
ATOM     12  F   UNL     1       1.249   8.386  21.594  0.00  0.00    +0.000 F 
ATOM     13  C   UNL     1       1.953   6.531  20.316  0.00  0.00    +0.000 A 
ENDBRANCH   6   7
BRANCH   1  15
ATOM     14  O   UNL     1       5.233   5.230  19.867  0.00  0.00    +0.000 OA
ATOM     15  C   UNL     1       5.012   4.441  18.953  0.00  0.00    +0.000 C 
ATOM     16  N   UNL     1       5.925   4.127  17.974  0.00  0.00    +0.000 N 
ATOM     17  H   UNL     1       5.666   3.471  17.247  0.00  0.00    +0.000 HD
BRANCH  16  18
ATOM     18  C   UNL     1       7.309   4.552  18.026  0.00  0.00    +0.000 C 
BRANCH  18  19
ATOM     19  C   UNL     1       7.645   5.390  16.788  0.00  0.00    +0.000 C 
ATOM     20  C   UNL     1       7.337   6.876  17.019  0.00  0.00    +0.000 C 
ATOM     21  C   UNL     1       5.839   7.176  16.964  0.00  0.00    +0.000 C 
ATOM     22  N   UNL     1       5.234   6.691  15.722  0.00  0.00    +0.000 NA
ATOM     23  C   UNL     1       5.414   5.244  15.582  0.00  0.00    +0.000 C 
ATOM     24  C   UNL     1       6.896   4.885  15.542  0.00  0.00    +0.000 C 
ATOM     25  H   UNL     1       5.684   7.154  14.932  0.00  0.00    +0.000 HD
ENDBRANCH  18  19
ENDBRANCH  16  18
ENDBRANCH   1  15
TORSDOF 4
ENDMDL
MODEL 8
REMARK VINA RESULT:      -7.8      2.376      4.245
REMARK  Name = 
REMARK  4 active torsions:
REMARK  status: ('A' for Active; 'I' for Inactive)
REMARK    1  A    between atoms: C_2  and  C_11
REMARK    2  A    between atoms: N_3  and  C_4
REMARK    3  A    between atoms: C_4  and  C_5
REMARK    4  A    between atoms: C_16  and  C_17
REMARK                            x       y       z     vdW  Elec       q    Type
REMARK                         _______ _______ _______ _____ _____    ______ ____
ROOT
ATOM      1  C   UNL     1       3.547   6.571  17.617  0.00  0.00    +0.000 A 
ATOM      2  C   UNL     1       4.422   7.121  16.657  0.00  0.00    +0.000 A 
ATOM      3  C   UNL     1       5.246   6.304  15.891  0.00  0.00    +0.000 A 
ATOM      4  C   UNL     1       5.193   4.930  16.063  0.00  0.00    +0.000 A 
ATOM      5  C   UNL     1       4.313   4.374  17.000  0.00  0.00    +0.000 A 
ATOM      6  C   UNL     1       3.464   5.167  17.808  0.00  0.00    +0.000 A 
ENDROOT
BRANCH   6   7
ATOM      7  C   UNL     1       2.560   4.484  18.780  0.00  0.00    +0.000 A 
ATOM      8  C   UNL     1       1.407   3.802  18.338  0.00  0.00    +0.000 A 
ATOM      9  C   UNL     1       0.584   3.089  19.222  0.00  0.00    +0.000 A 
ATOM     10  C   UNL     1       0.920   3.007  20.567  0.00  0.00    +0.000 A 
ATOM     11  C   UNL     1       2.042   3.681  21.022  0.00  0.00    +0.000 A 
ATOM     12  F   UNL     1       2.400   3.568  22.309  0.00  0.00    +0.000 F 
ATOM     13  C   UNL     1       2.826   4.446  20.160  0.00  0.00    +0.000 A 
ENDBRANCH   6   7
BRANCH   1  15
ATOM     14  O   UNL     1       2.572   7.436  19.585  0.00  0.00    +0.000 OA
ATOM     15  C   UNL     1       2.765   7.585  18.383  0.00  0.00    +0.000 C 
ATOM     16  N   UNL     1       2.262   8.636  17.651  0.00  0.00    +0.000 N 
ATOM     17  H   UNL     1       2.460   8.688  16.659  0.00  0.00    +0.000 HD
BRANCH  16  18
ATOM     18  C   UNL     1       1.609   9.776  18.261  0.00  0.00    +0.000 C 
BRANCH  18  19
ATOM     19  C   UNL     1       0.190   9.393  18.695  0.00  0.00    +0.000 C 
ATOM     20  C   UNL     1      -0.867  10.162  17.892  0.00  0.00    +0.000 C 
ATOM     21  C   UNL     1      -0.992  11.619  18.340  0.00  0.00    +0.000 C 
ATOM     22  N   UNL     1      -1.234  11.725  19.779  0.00  0.00    +0.000 NA
ATOM     23  C   UNL     1      -0.145  11.108  20.540  0.00  0.00    +0.000 C 
ATOM     24  C   UNL     1      -0.022   9.625  20.202  0.00  0.00    +0.000 C 
ATOM     25  H   UNL     1      -2.104  11.243  20.005  0.00  0.00    +0.000 HD
ENDBRANCH  18  19
ENDBRANCH  16  18
ENDBRANCH   1  15
TORSDOF 4
ENDMDL
MODEL 9
REMARK VINA RESULT:      -7.7      3.638      6.775
REMARK  Name = 
REMARK  4 active torsions:
REMARK  status: ('A' for Active; 'I' for Inactive)
REMARK    1  A    between atoms: C_2  and  C_11
REMARK    2  A    between atoms: N_3  and  C_4
REMARK    3  A    between atoms: C_4  and  C_5
REMARK    4  A    between atoms: C_16  and  C_17
REMARK                            x       y       z     vdW  Elec       q    Type
REMARK                         _______ _______ _______ _____ _____    ______ ____
ROOT
ATOM      1  C   UNL     1       3.414   3.762  19.726  0.00  0.00    +0.000 A 
ATOM      2  C   UNL     1       3.358   2.494  20.342  0.00  0.00    +0.000 A 
ATOM      3  C   UNL     1       2.399   2.212  21.310  0.00  0.00    +0.000 A 
ATOM      4  C   UNL     1       1.479   3.188  21.661  0.00  0.00    +0.000 A 
ATOM      5  C   UNL     1       1.516   4.443  21.041  0.00  0.00    +0.000 A 
ATOM      6  C   UNL     1       2.479   4.776  20.059  0.00  0.00    +0.000 A 
ENDROOT
BRANCH   6   7
ATOM      7  C   UNL     1       2.440   6.141  19.455  0.00  0.00    +0.000 A 
ATOM      8  C   UNL     1       2.868   6.356  18.128  0.00  0.00    +0.000 A 
ATOM      9  C   UNL     1       2.770   7.612  17.513  0.00  0.00    +0.000 A 
ATOM     10  C   UNL     1       2.203   8.677  18.200  0.00  0.00    +0.000 A 
ATOM     11  C   UNL     1       1.789   8.489  19.509  0.00  0.00    +0.000 A 
ATOM     12  F   UNL     1       1.197   9.498  20.163  0.00  0.00    +0.000 F 
ATOM     13  C   UNL     1       1.945   7.260  20.147  0.00  0.00    +0.000 A 
ENDBRANCH   6   7
BRANCH   1  15
ATOM     14  O   UNL     1       5.603   4.385  19.097  0.00  0.00    +0.000 OA
ATOM     15  C   UNL     1       4.526   3.914  18.743  0.00  0.00    +0.000 C 
ATOM     16  N   UNL     1       4.242   3.539  17.451  0.00  0.00    +0.000 N 
ATOM     17  H   UNL     1       3.327   3.163  17.234  0.00  0.00    +0.000 HD
BRANCH  16  18
ATOM     18  C   UNL     1       5.248   3.486  16.410  0.00  0.00    +0.000 C 
BRANCH  18  19
ATOM     19  C   UNL     1       5.092   4.689  15.472  0.00  0.00    +0.000 C 
ATOM     20  C   UNL     1       5.510   4.337  14.039  0.00  0.00    +0.000 C 
ATOM     21  C   UNL     1       7.029   4.255  13.878  0.00  0.00    +0.000 C 
ATOM     22  N   UNL     1       7.690   5.475  14.343  0.00  0.00    +0.000 NA
ATOM     23  C   UNL     1       7.395   5.724  15.756  0.00  0.00    +0.000 C 
ATOM     24  C   UNL     1       5.895   5.903  15.972  0.00  0.00    +0.000 C 
ATOM     25  H   UNL     1       7.351   6.265  13.794  0.00  0.00    +0.000 HD
ENDBRANCH  18  19
ENDBRANCH  16  18
ENDBRANCH   1  15
TORSDOF 4
ENDMDL
