MODEL 1
REMARK VINA RESULT:      -7.6      0.000      0.000
REMARK  Name = 
REMARK  6 active torsions:
REMARK  status: ('A' for Active; 'I' for Inactive)
REMARK    1  A    between atoms: C_2  and  O_3
REMARK    2  A    between atoms: C_2  and  C_4
REMARK    3  A    between atoms: C_9  and  N_10
REMARK    4  A    between atoms: C_11  and  C_13
REMARK    5  A    between atoms: N_17  and  S_18
REMARK    6  A    between atoms: S_18  and  C_21
REMARK                            x       y       z     vdW  Elec       q    Type
REMARK                         _______ _______ _______ _____ _____    ______ ____
ROOT
ATOM      1  C   UNL     1       1.863   4.393  19.005  0.00  0.00    +0.000 C 
ATOM      2  C   UNL     1       1.418   3.082  19.669  0.00  0.00    +0.000 C 
ATOM      3  C   UNL     1       1.677   2.041  18.605  0.00  0.00    +0.000 C 
ATOM      4  C   UNL     1       2.866   2.573  17.812  0.00  0.00    +0.000 C 
ATOM      5  N   UNL     1       3.115   3.988  18.283  0.00  0.00    +0.000 NA
ENDROOT
BRANCH   1   7
ATOM      6  N   UNL     1       1.788   6.849  19.477  0.00  0.00    +0.000 N 
ATOM      7  C   UNL     1       1.585   5.563  19.949  0.00  0.00    +0.000 C 
ATOM      8  O   UNL     1       1.051   5.319  21.036  0.00  0.00    +0.000 OA
ATOM      9  H   UNL     1       2.487   6.950  18.731  0.00  0.00    +0.000 HD
BRANCH   6  15
ATOM     10  C   UNL     1       1.383   9.290  19.464  0.00  0.00    +0.000 A 
ATOM     11  C   UNL     1       1.204  10.512  20.146  0.00  0.00    +0.000 A 
ATOM     12  C   UNL     1       0.928  10.523  21.508  0.00  0.00    +0.000 A 
ATOM     13  C   UNL     1       0.823   9.314  22.181  0.00  0.00    +0.000 A 
ATOM     14  C   UNL     1       1.088   8.104  21.518  0.00  0.00    +0.000 A 
ATOM     15  C   UNL     1       1.434   8.065  20.157  0.00  0.00    +0.000 A 
BRANCH  10  17
ATOM     16  O   UNL     1       2.115   8.859  17.192  0.00  0.00    +0.000 OA
ATOM     17  C   UNL     1       1.328   9.324  17.989  0.00  0.00    +0.000 C 
BRANCH  17  18
ATOM     18  O   UNL     1       0.121   9.771  17.587  0.00  0.00    +0.000 OA
ATOM     19  H   UNL     1      -0.355   8.957  17.324  0.00  0.00    +0.000 HD
ENDBRANCH  17  18
ENDBRANCH  10  17
ENDBRANCH   6  15
ENDBRANCH   1   7
BRANCH   5  20
ATOM     20  S   UNL     1       4.606   4.171  19.087  0.00  0.00    +0.000 S 
ATOM     21  O   UNL     1       4.423   5.132  20.140  0.00  0.00    +0.000 OA
ATOM     22  O   UNL     1       5.108   2.850  19.362  0.00  0.00    +0.000 OA
BRANCH  20  23
ATOM     23  C   UNL     1       5.656   4.920  17.856  0.00  0.00    +0.000 A 
ATOM     24  C   UNL     1       6.369   6.080  18.165  0.00  0.00    +0.000 A 
ATOM     25  C   UNL     1       7.170   6.667  17.190  0.00  0.00    +0.000 A 
ATOM     26 CL   UNL     1       8.050   8.107  17.551  0.00  0.00    +0.000 Cl
ATOM     27  C   UNL     1       7.290   6.103  15.917  0.00  0.00    +0.000 A 
ATOM     28  C   UNL     1       6.594   4.930  15.637  0.00  0.00    +0.000 A 
ATOM     29 CL   UNL     1       6.773   4.197  14.084  0.00  0.00    +0.000 Cl
ATOM     30  C   UNL     1       5.775   4.331  16.589  0.00  0.00    +0.000 A 
ENDBRANCH  20  23
ENDBRANCH   5  20
TORSDOF 6
ENDMDL
MODEL 2
REMARK VINA RESULT:      -7.6      0.071      1.704
REMARK  Name = 
REMARK  6 active torsions:
REMARK  status: ('A' for Active; 'I' for Inactive)
REMARK    1  A    between atoms: C_2  and  O_3
REMARK    2  A    between atoms: C_2  and  C_4
REMARK    3  A    between atoms: C_9  and  N_10
REMARK    4  A    between atoms: C_11  and  C_13
REMARK    5  A    between atoms: N_17  and  S_18
REMARK    6  A    between atoms: S_18  and  C_21
REMARK                            x       y       z     vdW  Elec       q    Type
REMARK                         _______ _______ _______ _____ _____    ______ ____
ROOT
ATOM      1  C   UNL     1       1.819   4.439  19.032  0.00  0.00    +0.000 C 
ATOM      2  C   UNL     1       1.354   3.140  19.706  0.00  0.00    +0.000 C 
ATOM      3  C   UNL     1       1.588   2.088  18.647  0.00  0.00    +0.000 C 
ATOM      4  C   UNL     1       2.782   2.593  17.845  0.00  0.00    +0.000 C 
ATOM      5  N   UNL     1       3.060   4.006  18.306  0.00  0.00    +0.000 NA
ENDROOT
BRANCH   1   7
ATOM      6  N   UNL     1       1.747   6.900  19.476  0.00  0.00    +0.000 N 
ATOM      7  C   UNL     1       1.569   5.619  19.971  0.00  0.00    +0.000 C 
ATOM      8  O   UNL     1       1.075   5.386  21.079  0.00  0.00    +0.000 OA
ATOM      9  H   UNL     1       2.418   6.995  18.705  0.00  0.00    +0.000 HD
BRANCH   6  15
ATOM     10  C   UNL     1       1.364   9.344  19.454  0.00  0.00    +0.000 A 
ATOM     11  C   UNL     1       1.202  10.571  20.132  0.00  0.00    +0.000 A 
ATOM     12  C   UNL     1       0.938  10.591  21.495  0.00  0.00    +0.000 A 
ATOM     13  C   UNL     1       0.828   9.387  22.176  0.00  0.00    +0.000 A 
ATOM     14  C   UNL     1       1.077   8.171  21.517  0.00  0.00    +0.000 A 
ATOM     15  C   UNL     1       1.410   8.122  20.153  0.00  0.00    +0.000 A 
BRANCH  10  17
ATOM     16  O   UNL     1       2.087   8.923  17.177  0.00  0.00    +0.000 OA
ATOM     17  C   UNL     1       1.296   9.372  17.979  0.00  0.00    +0.000 C 
BRANCH  17  18
ATOM     18  O   UNL     1       0.074   9.787  17.587  0.00  0.00    +0.000 OA
ATOM     19  H   UNL     1       0.043  10.723  17.867  0.00  0.00    +0.000 HD
ENDBRANCH  17  18
ENDBRANCH  10  17
ENDBRANCH   6  15
ENDBRANCH   1   7
BRANCH   5  20
ATOM     20  S   UNL     1       4.559   4.165  19.101  0.00  0.00    +0.000 S 
ATOM     21  O   UNL     1       4.399   5.136  20.150  0.00  0.00    +0.000 OA
ATOM     22  O   UNL     1       5.038   2.838  19.380  0.00  0.00    +0.000 OA
BRANCH  20  23
ATOM     23  C   UNL     1       5.615   4.890  17.861  0.00  0.00    +0.000 A 
ATOM     24  C   UNL     1       5.705   4.304  16.597  0.00  0.00    +0.000 A 
ATOM     25  C   UNL     1       6.547   4.867  15.643  0.00  0.00    +0.000 A 
ATOM     26 CL   UNL     1       6.677   4.152  14.079  0.00  0.00    +0.000 Cl
ATOM     27  C   UNL     1       7.286   6.020  15.922  0.00  0.00    +0.000 A 
ATOM     28  C   UNL     1       7.162   6.607  17.179  0.00  0.00    +0.000 A 
ATOM     29 CL   UNL     1       8.032   8.059  17.518  0.00  0.00    +0.000 Cl
ATOM     30  C   UNL     1       6.337   6.056  18.155  0.00  0.00    +0.000 A 
ENDBRANCH  20  23
ENDBRANCH   5  20
TORSDOF 6
ENDMDL
MODEL 3
REMARK VINA RESULT:      -7.5      1.319      2.827
REMARK  Name = 
REMARK  6 active torsions:
REMARK  status: ('A' for Active; 'I' for Inactive)
REMARK    1  A    between atoms: C_2  and  O_3
REMARK    2  A    between atoms: C_2  and  C_4
REMARK    3  A    between atoms: C_9  and  N_10
REMARK    4  A    between atoms: C_11  and  C_13
REMARK    5  A    between atoms: N_17  and  S_18
REMARK    6  A    between atoms: S_18  and  C_21
REMARK                            x       y       z     vdW  Elec       q    Type
REMARK                         _______ _______ _______ _____ _____    ______ ____
ROOT
ATOM      1  C   UNL     1       2.050   4.628  18.498  0.00  0.00    +0.000 C 
ATOM      2  C   UNL     1       1.217   4.421  19.771  0.00  0.00    +0.000 C 
ATOM      3  C   UNL     1       1.102   2.918  19.879  0.00  0.00    +0.000 C 
ATOM      4  C   UNL     1       2.383   2.377  19.253  0.00  0.00    +0.000 C 
ATOM      5  N   UNL     1       3.088   3.548  18.605  0.00  0.00    +0.000 NA
ENDROOT
BRANCH   1   7
ATOM      6  N   UNL     1       1.401   7.003  18.940  0.00  0.00    +0.000 N 
ATOM      7  C   UNL     1       2.188   6.124  18.215  0.00  0.00    +0.000 C 
ATOM      8  O   UNL     1       3.097   6.493  17.464  0.00  0.00    +0.000 OA
ATOM      9  H   UNL     1       0.510   6.629  19.286  0.00  0.00    +0.000 HD
BRANCH   6  15
ATOM     10  C   UNL     1       1.001   9.205  19.995  0.00  0.00    +0.000 A 
ATOM     11  C   UNL     1       0.941  10.613  19.922  0.00  0.00    +0.000 A 
ATOM     12  C   UNL     1       1.512  11.286  18.849  0.00  0.00    +0.000 A 
ATOM     13  C   UNL     1       2.148  10.552  17.858  0.00  0.00    +0.000 A 
ATOM     14  C   UNL     1       2.130   9.147  17.890  0.00  0.00    +0.000 A 
ATOM     15  C   UNL     1       1.504   8.437  18.927  0.00  0.00    +0.000 A 
BRANCH  10  17
ATOM     16  O   UNL     1      -0.374   8.510  21.869  0.00  0.00    +0.000 OA
ATOM     17  C   UNL     1       0.693   8.582  21.298  0.00  0.00    +0.000 C 
BRANCH  17  18
ATOM     18  O   UNL     1       1.752   7.862  21.721  0.00  0.00    +0.000 OA
ATOM     19  H   UNL     1       2.398   7.942  20.991  0.00  0.00    +0.000 HD
ENDBRANCH  17  18
ENDBRANCH  10  17
ENDBRANCH   6  15
ENDBRANCH   1   7
BRANCH   5  20
ATOM     20  S   UNL     1       4.574   3.926  19.348  0.00  0.00    +0.000 S 
ATOM     21  O   UNL     1       4.334   4.974  20.303  0.00  0.00    +0.000 OA
ATOM     22  O   UNL     1       5.182   2.683  19.743  0.00  0.00    +0.000 OA
BRANCH  20  23
ATOM     23  C   UNL     1       5.540   4.622  18.022  0.00  0.00    +0.000 A 
ATOM     24  C   UNL     1       5.528   4.019  16.763  0.00  0.00    +0.000 A 
ATOM     25  C   UNL     1       6.301   4.560  15.741  0.00  0.00    +0.000 A 
ATOM     26 CL   UNL     1       6.306   3.822  14.181  0.00  0.00    +0.000 Cl
ATOM     27  C   UNL     1       7.070   5.709  15.947  0.00  0.00    +0.000 A 
ATOM     28  C   UNL     1       7.047   6.313  17.201  0.00  0.00    +0.000 A 
ATOM     29 CL   UNL     1       7.954   7.761  17.453  0.00  0.00    +0.000 Cl
ATOM     30  C   UNL     1       6.293   5.784  18.244  0.00  0.00    +0.000 A 
ENDBRANCH  20  23
ENDBRANCH   5  20
TORSDOF 6
ENDMDL
MODEL 4
REMARK VINA RESULT:      -7.5      1.301      2.252
REMARK  Name = 
REMARK  6 active torsions:
REMARK  status: ('A' for Active; 'I' for Inactive)
REMARK    1  A    between atoms: C_2  and  O_3
REMARK    2  A    between atoms: C_2  and  C_4
REMARK    3  A    between atoms: C_9  and  N_10
REMARK    4  A    between atoms: C_11  and  C_13
REMARK    5  A    between atoms: N_17  and  S_18
REMARK    6  A    between atoms: S_18  and  C_21
REMARK                            x       y       z     vdW  Elec       q    Type
REMARK                         _______ _______ _______ _____ _____    ______ ____
ROOT
ATOM      1  C   UNL     1       2.070   4.711  18.333  0.00  0.00    +0.000 C 
ATOM      2  C   UNL     1       1.138   4.458  19.527  0.00  0.00    +0.000 C 
ATOM      3  C   UNL     1       0.992   2.954  19.549  0.00  0.00    +0.000 C 
ATOM      4  C   UNL     1       2.309   2.420  18.996  0.00  0.00    +0.000 C 
ATOM      5  N   UNL     1       3.079   3.607  18.465  0.00  0.00    +0.000 NA
ENDROOT
BRANCH   1   7
ATOM      6  N   UNL     1       1.387   7.072  18.798  0.00  0.00    +0.000 N 
ATOM      7  C   UNL     1       2.252   6.216  18.138  0.00  0.00    +0.000 C 
ATOM      8  O   UNL     1       3.251   6.606  17.524  0.00  0.00    +0.000 OA
ATOM      9  H   UNL     1       0.457   6.694  19.013  0.00  0.00    +0.000 HD
BRANCH   6  15
ATOM     10  C   UNL     1       1.011   9.216  19.975  0.00  0.00    +0.000 A 
ATOM     11  C   UNL     1       0.962  10.626  19.980  0.00  0.00    +0.000 A 
ATOM     12  C   UNL     1       1.529  11.352  18.941  0.00  0.00    +0.000 A 
ATOM     13  C   UNL     1       2.152  10.669  17.906  0.00  0.00    +0.000 A 
ATOM     14  C   UNL     1       2.123   9.265  17.861  0.00  0.00    +0.000 A 
ATOM     15  C   UNL     1       1.500   8.503  18.863  0.00  0.00    +0.000 A 
BRANCH  10  17
ATOM     16  O   UNL     1      -0.352   8.441  21.827  0.00  0.00    +0.000 OA
ATOM     17  C   UNL     1       0.709   8.524  21.245  0.00  0.00    +0.000 C 
BRANCH  17  18
ATOM     18  O   UNL     1       1.758   7.759  21.608  0.00  0.00    +0.000 OA
ATOM     19  H   UNL     1       1.678   6.965  21.042  0.00  0.00    +0.000 HD
ENDBRANCH  17  18
ENDBRANCH  10  17
ENDBRANCH   6  15
ENDBRANCH   1   7
BRANCH   5  20
ATOM     20  S   UNL     1       4.509   3.919  19.338  0.00  0.00    +0.000 S 
ATOM     21  O   UNL     1       4.208   4.910  20.335  0.00  0.00    +0.000 OA
ATOM     22  O   UNL     1       5.075   2.646  19.698  0.00  0.00    +0.000 OA
BRANCH  20  23
ATOM     23  C   UNL     1       5.577   4.683  18.132  0.00  0.00    +0.000 A 
ATOM     24  C   UNL     1       6.360   5.781  18.494  0.00  0.00    +0.000 A 
ATOM     25  C   UNL     1       7.175   6.380  17.539  0.00  0.00    +0.000 A 
ATOM     26 CL   UNL     1       8.142   7.744  17.966  0.00  0.00    +0.000 Cl
ATOM     27  C   UNL     1       7.241   5.889  16.233  0.00  0.00    +0.000 A 
ATOM     28  C   UNL     1       6.474   4.775  15.898  0.00  0.00    +0.000 A 
ATOM     29 CL   UNL     1       6.585   4.129  14.300  0.00  0.00    +0.000 Cl
ATOM     30  C   UNL     1       5.640   4.165  16.830  0.00  0.00    +0.000 A 
ENDBRANCH  20  23
ENDBRANCH   5  20
TORSDOF 6
ENDMDL
MODEL 5
REMARK VINA RESULT:      -7.3      3.226      7.148
REMARK  Name = 
REMARK  6 active torsions:
REMARK  status: ('A' for Active; 'I' for Inactive)
REMARK    1  A    between atoms: C_2  and  O_3
REMARK    2  A    between atoms: C_2  and  C_4
REMARK    3  A    between atoms: C_9  and  N_10
REMARK    4  A    between atoms: C_11  and  C_13
REMARK    5  A    between atoms: N_17  and  S_18
REMARK    6  A    between atoms: S_18  and  C_21
REMARK                            x       y       z     vdW  Elec       q    Type
REMARK                         _______ _______ _______ _____ _____    ______ ____
ROOT
ATOM      1  C   UNL     1       3.233   4.611  19.331  0.00  0.00    +0.000 C 
ATOM      2  C   UNL     1       1.897   3.857  19.276  0.00  0.00    +0.000 C 
ATOM      3  C   UNL     1       1.151   4.369  20.486  0.00  0.00    +0.000 C 
ATOM      4  C   UNL     1       1.648   5.797  20.683  0.00  0.00    +0.000 C 
ATOM      5  N   UNL     1       2.813   5.994  19.740  0.00  0.00    +0.000 NA
ENDROOT
BRANCH   1   7
ATOM      6  N   UNL     1       4.362   4.993  17.132  0.00  0.00    +0.000 N 
ATOM      7  C   UNL     1       4.136   4.134  18.193  0.00  0.00    +0.000 C 
ATOM      8  O   UNL     1       4.743   3.068  18.341  0.00  0.00    +0.000 OA
ATOM      9  H   UNL     1       3.622   5.680  16.942  0.00  0.00    +0.000 HD
BRANCH   6  15
ATOM     10  C   UNL     1       6.647   5.164  16.198  0.00  0.00    +0.000 A 
ATOM     11  C   UNL     1       7.536   5.123  15.103  0.00  0.00    +0.000 A 
ATOM     12  C   UNL     1       7.137   4.570  13.894  0.00  0.00    +0.000 A 
ATOM     13  C   UNL     1       5.855   4.051  13.784  0.00  0.00    +0.000 A 
ATOM     14  C   UNL     1       4.944   4.172  14.848  0.00  0.00    +0.000 A 
ATOM     15  C   UNL     1       5.298   4.785  16.061  0.00  0.00    +0.000 A 
BRANCH  10  17
ATOM     16  O   UNL     1       7.234   6.481  18.150  0.00  0.00    +0.000 OA
ATOM     17  C   UNL     1       7.225   5.439  17.529  0.00  0.00    +0.000 C 
BRANCH  17  18
ATOM     18  O   UNL     1       7.580   4.280  18.121  0.00  0.00    +0.000 OA
ATOM     19  H   UNL     1       7.736   4.530  19.053  0.00  0.00    +0.000 HD
ENDBRANCH  17  18
ENDBRANCH  10  17
ENDBRANCH   6  15
ENDBRANCH   1   7
BRANCH   5  20
ATOM     20  S   UNL     1       2.495   7.136  18.516  0.00  0.00    +0.000 S 
ATOM     21  O   UNL     1       3.756   7.660  18.065  0.00  0.00    +0.000 OA
ATOM     22  O   UNL     1       1.567   6.531  17.598  0.00  0.00    +0.000 OA
BRANCH  20  23
ATOM     23  C   UNL     1       1.650   8.449  19.378  0.00  0.00    +0.000 A 
ATOM     24  C   UNL     1       1.146   9.537  18.664  0.00  0.00    +0.000 A 
ATOM     25  C   UNL     1       0.506  10.564  19.350  0.00  0.00    +0.000 A 
ATOM     26 CL   UNL     1      -0.116  11.921  18.485  0.00  0.00    +0.000 Cl
ATOM     27  C   UNL     1       0.340  10.514  20.736  0.00  0.00    +0.000 A 
ATOM     28  C   UNL     1       0.824   9.407  21.429  0.00  0.00    +0.000 A 
ATOM     29 CL   UNL     1       0.581   9.310  23.136  0.00  0.00    +0.000 Cl
ATOM     30  C   UNL     1       1.480   8.373  20.769  0.00  0.00    +0.000 A 
ENDBRANCH  20  23
ENDBRANCH   5  20
TORSDOF 6
ENDMDL
MODEL 6
REMARK VINA RESULT:      -7.3      3.187      7.088
REMARK  Name = 
REMARK  6 active torsions:
REMARK  status: ('A' for Active; 'I' for Inactive)
REMARK    1  A    between atoms: C_2  and  O_3
REMARK    2  A    between atoms: C_2  and  C_4
REMARK    3  A    between atoms: C_9  and  N_10
REMARK    4  A    between atoms: C_11  and  C_13
REMARK    5  A    between atoms: N_17  and  S_18
REMARK    6  A    between atoms: S_18  and  C_21
REMARK                            x       y       z     vdW  Elec       q    Type
REMARK                         _______ _______ _______ _____ _____    ______ ____
ROOT
ATOM      1  C   UNL     1       3.254   4.585  19.408  0.00  0.00    +0.000 C 
ATOM      2  C   UNL     1       1.931   3.809  19.330  0.00  0.00    +0.000 C 
ATOM      3  C   UNL     1       1.154   4.315  20.523  0.00  0.00    +0.000 C 
ATOM      4  C   UNL     1       1.624   5.751  20.722  0.00  0.00    +0.000 C 
ATOM      5  N   UNL     1       2.804   5.962  19.801  0.00  0.00    +0.000 NA
ENDROOT
BRANCH   1   7
ATOM      6  N   UNL     1       4.347   4.936  17.185  0.00  0.00    +0.000 N 
ATOM      7  C   UNL     1       4.186   4.117  18.290  0.00  0.00    +0.000 C 
ATOM      8  O   UNL     1       4.868   3.106  18.487  0.00  0.00    +0.000 OA
ATOM      9  H   UNL     1       3.560   5.557  16.966  0.00  0.00    +0.000 HD
BRANCH   6  15
ATOM     10  C   UNL     1       6.639   5.129  16.272  0.00  0.00    +0.000 A 
ATOM     11  C   UNL     1       7.537   5.102  15.184  0.00  0.00    +0.000 A 
ATOM     12  C   UNL     1       7.152   4.554  13.968  0.00  0.00    +0.000 A 
ATOM     13  C   UNL     1       5.874   4.026  13.844  0.00  0.00    +0.000 A 
ATOM     14  C   UNL     1       4.954   4.134  14.901  0.00  0.00    +0.000 A 
ATOM     15  C   UNL     1       5.293   4.742  16.120  0.00  0.00    +0.000 A 
BRANCH  10  17
ATOM     16  O   UNL     1       7.064   6.382  18.306  0.00  0.00    +0.000 OA
ATOM     17  C   UNL     1       7.204   5.399  17.609  0.00  0.00    +0.000 C 
BRANCH  17  18
ATOM     18  O   UNL     1       7.758   4.274  18.106  0.00  0.00    +0.000 OA
ATOM     19  H   UNL     1       7.607   3.609  17.405  0.00  0.00    +0.000 HD
ENDBRANCH  17  18
ENDBRANCH  10  17
ENDBRANCH   6  15
ENDBRANCH   1   7
BRANCH   5  20
ATOM     20  S   UNL     1       2.492   7.094  18.566  0.00  0.00    +0.000 S 
ATOM     21  O   UNL     1       3.756   7.592  18.096  0.00  0.00    +0.000 OA
ATOM     22  O   UNL     1       1.546   6.492  17.664  0.00  0.00    +0.000 OA
BRANCH  20  23
ATOM     23  C   UNL     1       1.675   8.430  19.419  0.00  0.00    +0.000 A 
ATOM     24  C   UNL     1       1.462   8.347  20.796  0.00  0.00    +0.000 A 
ATOM     25  C   UNL     1       0.806   9.387  21.448  0.00  0.00    +0.000 A 
ATOM     26 CL   UNL     1       0.525   9.297  23.148  0.00  0.00    +0.000 Cl
ATOM     27  C   UNL     1       0.380  10.521  20.752  0.00  0.00    +0.000 A 
ATOM     28  C   UNL     1       0.628  10.599  19.384  0.00  0.00    +0.000 A 
ATOM     29 CL   UNL     1       0.150  12.018  18.523  0.00  0.00    +0.000 Cl
ATOM     30  C   UNL     1       1.268   9.567  18.706  0.00  0.00    +0.000 A 
ENDBRANCH  20  23
ENDBRANCH   5  20
TORSDOF 6
ENDMDL
MODEL 7
REMARK VINA RESULT:      -7.3      5.918      9.752
REMARK  Name = 
REMARK  6 active torsions:
REMARK  status: ('A' for Active; 'I' for Inactive)
REMARK    1  A    between atoms: C_2  and  O_3
REMARK    2  A    between atoms: C_2  and  C_4
REMARK    3  A    between atoms: C_9  and  N_10
REMARK    4  A    between atoms: C_11  and  C_13
REMARK    5  A    between atoms: N_17  and  S_18
REMARK    6  A    between atoms: S_18  and  C_21
REMARK                            x       y       z     vdW  Elec       q    Type
REMARK                         _______ _______ _______ _____ _____    ______ ____
ROOT
ATOM      1  C   UNL     1       0.253  13.483  20.179  0.00  0.00    +0.000 C 
ATOM      2  C   UNL     1       0.620  14.337  21.401  0.00  0.00    +0.000 C 
ATOM      3  C   UNL     1      -0.074  15.653  21.135  0.00  0.00    +0.000 C 
ATOM      4  C   UNL     1      -1.316  15.289  20.328  0.00  0.00    +0.000 C 
ATOM      5  N   UNL     1      -1.192  13.829  19.958  0.00  0.00    +0.000 NA
ENDROOT
BRANCH   1   7
ATOM      6  N   UNL     1       0.440  11.070  19.545  0.00  0.00    +0.000 N 
ATOM      7  C   UNL     1       0.956  12.128  20.273  0.00  0.00    +0.000 C 
ATOM      8  O   UNL     1       2.034  12.074  20.873  0.00  0.00    +0.000 OA
ATOM      9  H   UNL     1      -0.567  11.110  19.343  0.00  0.00    +0.000 HD
BRANCH   6  15
ATOM     10  C   UNL     1       1.052   8.846  20.440  0.00  0.00    +0.000 A 
ATOM     11  C   UNL     1       1.789   7.646  20.357  0.00  0.00    +0.000 A 
ATOM     12  C   UNL     1       2.416   7.287  19.170  0.00  0.00    +0.000 A 
ATOM     13  C   UNL     1       2.297   8.122  18.069  0.00  0.00    +0.000 A 
ATOM     14  C   UNL     1       1.636   9.357  18.180  0.00  0.00    +0.000 A 
ATOM     15  C   UNL     1       1.049   9.779  19.384  0.00  0.00    +0.000 A 
BRANCH  10  17
ATOM     16  O   UNL     1      -0.840   8.345  21.873  0.00  0.00    +0.000 OA
ATOM     17  C   UNL     1       0.140   9.001  21.591  0.00  0.00    +0.000 C 
BRANCH  17  18
ATOM     18  O   UNL     1       0.665   9.874  22.474  0.00  0.00    +0.000 OA
ATOM     19  H   UNL     1       1.617   9.891  22.251  0.00  0.00    +0.000 HD
ENDBRANCH  17  18
ENDBRANCH  10  17
ENDBRANCH   6  15
ENDBRANCH   1   7
BRANCH   5  20
ATOM     20  S   UNL     1      -2.378  12.851  20.695  0.00  0.00    +0.000 S 
ATOM     21  O   UNL     1      -1.709  11.739  21.314  0.00  0.00    +0.000 OA
ATOM     22  O   UNL     1      -3.236  13.721  21.454  0.00  0.00    +0.000 OA
BRANCH  20  23
ATOM     23  C   UNL     1      -3.310  12.213  19.315  0.00  0.00    +0.000 A 
ATOM     24  C   UNL     1      -4.702  12.147  19.389  0.00  0.00    +0.000 A 
ATOM     25  C   UNL     1      -5.418  11.629  18.314  0.00  0.00    +0.000 A 
ATOM     26 CL   UNL     1      -7.138  11.531  18.391  0.00  0.00    +0.000 Cl
ATOM     27  C   UNL     1      -4.768  11.196  17.155  0.00  0.00    +0.000 A 
ATOM     28  C   UNL     1      -3.380  11.296  17.088  0.00  0.00    +0.000 A 
ATOM     29 CL   UNL     1      -2.571  10.810  15.643  0.00  0.00    +0.000 Cl
ATOM     30  C   UNL     1      -2.640  11.797  18.155  0.00  0.00    +0.000 A 
ENDBRANCH  20  23
ENDBRANCH   5  20
TORSDOF 6
ENDMDL
MODEL 8
REMARK VINA RESULT:      -7.2      6.263     10.431
REMARK  Name = 
REMARK  6 active torsions:
REMARK  status: ('A' for Active; 'I' for Inactive)
REMARK    1  A    between atoms: C_2  and  O_3
REMARK    2  A    between atoms: C_2  and  C_4
REMARK    3  A    between atoms: C_9  and  N_10
REMARK    4  A    between atoms: C_11  and  C_13
REMARK    5  A    between atoms: N_17  and  S_18
REMARK    6  A    between atoms: S_18  and  C_21
REMARK                            x       y       z     vdW  Elec       q    Type
REMARK                         _______ _______ _______ _____ _____    ______ ____
ROOT
ATOM      1  C   UNL     1      -0.809  12.570  19.167  0.00  0.00    +0.000 C 
ATOM      2  C   UNL     1       0.397  13.493  18.942  0.00  0.00    +0.000 C 
ATOM      3  C   UNL     1      -0.160  14.873  19.205  0.00  0.00    +0.000 C 
ATOM      4  C   UNL     1      -1.260  14.665  20.239  0.00  0.00    +0.000 C 
ATOM      5  N   UNL     1      -1.463  13.173  20.376  0.00  0.00    +0.000 NA
ENDROOT
BRANCH   1   7
ATOM      6  N   UNL     1       0.871  10.716  19.187  0.00  0.00    +0.000 N 
ATOM      7  C   UNL     1      -0.410  11.126  18.859  0.00  0.00    +0.000 C 
ATOM      8  O   UNL     1      -1.290  10.350  18.473  0.00  0.00    +0.000 OA
ATOM      9  H   UNL     1       1.588  11.450  19.205  0.00  0.00    +0.000 HD
BRANCH   6  15
ATOM     10  C   UNL     1       1.510   8.594  20.289  0.00  0.00    +0.000 A 
ATOM     11  C   UNL     1       2.153   7.339  20.263  0.00  0.00    +0.000 A 
ATOM     12  C   UNL     1       2.536   6.770  19.055  0.00  0.00    +0.000 A 
ATOM     13  C   UNL     1       2.269   7.452  17.877  0.00  0.00    +0.000 A 
ATOM     14  C   UNL     1       1.708   8.740  17.912  0.00  0.00    +0.000 A 
ATOM     15  C   UNL     1       1.369   9.369  19.121  0.00  0.00    +0.000 A 
BRANCH  10  17
ATOM     16  O   UNL     1       1.252   9.651  22.457  0.00  0.00    +0.000 OA
ATOM     17  C   UNL     1       0.828   8.980  21.540  0.00  0.00    +0.000 C 
BRANCH  17  18
ATOM     18  O   UNL     1      -0.482   8.667  21.461  0.00  0.00    +0.000 OA
ATOM     19  H   UNL     1      -0.851   9.350  20.867  0.00  0.00    +0.000 HD
ENDBRANCH  17  18
ENDBRANCH  10  17
ENDBRANCH   6  15
ENDBRANCH   1   7
BRANCH   5  20
ATOM     20  S   UNL     1      -1.027  12.579  21.912  0.00  0.00    +0.000 S 
ATOM     21  O   UNL     1      -1.550  11.244  22.032  0.00  0.00    +0.000 OA
ATOM     22  O   UNL     1       0.374  12.849  22.093  0.00  0.00    +0.000 OA
BRANCH  20  23
ATOM     23  C   UNL     1      -1.945  13.614  23.037  0.00  0.00    +0.000 A 
ATOM     24  C   UNL     1      -1.266  14.378  23.988  0.00  0.00    +0.000 A 
ATOM     25  C   UNL     1      -1.993  15.167  24.873  0.00  0.00    +0.000 A 
ATOM     26 CL   UNL     1      -1.172  16.111  26.061  0.00  0.00    +0.000 Cl
ATOM     27  C   UNL     1      -3.388  15.225  24.812  0.00  0.00    +0.000 A 
ATOM     28  C   UNL     1      -4.046  14.478  23.838  0.00  0.00    +0.000 A 
ATOM     29 CL   UNL     1      -5.766  14.580  23.721  0.00  0.00    +0.000 Cl
ATOM     30  C   UNL     1      -3.343  13.670  22.950  0.00  0.00    +0.000 A 
ENDBRANCH  20  23
ENDBRANCH   5  20
TORSDOF 6
ENDMDL
MODEL 9
REMARK VINA RESULT:      -7.1      4.878      9.146
REMARK  Name = 
REMARK  6 active torsions:
REMARK  status: ('A' for Active; 'I' for Inactive)
REMARK    1  A    between atoms: C_2  and  O_3
REMARK    2  A    between atoms: C_2  and  C_4
REMARK    3  A    between atoms: C_9  and  N_10
REMARK    4  A    between atoms: C_11  and  C_13
REMARK    5  A    between atoms: N_17  and  S_18
REMARK    6  A    between atoms: S_18  and  C_21
REMARK                            x       y       z     vdW  Elec       q    Type
REMARK                         _______ _______ _______ _____ _____    ______ ____
ROOT
ATOM      1  C   UNL     1       0.117  10.533  18.707  0.00  0.00    +0.000 C 
ATOM      2  C   UNL     1       0.375  12.022  18.430  0.00  0.00    +0.000 C 
ATOM      3  C   UNL     1      -0.979  12.660  18.640  0.00  0.00    +0.000 C 
ATOM      4  C   UNL     1      -1.665  11.797  19.693  0.00  0.00    +0.000 C 
ATOM      5  N   UNL     1      -0.800  10.574  19.895  0.00  0.00    +0.000 NA
ENDROOT
BRANCH   1   7
ATOM      6  N   UNL     1       1.481   8.452  18.960  0.00  0.00    +0.000 N 
ATOM      7  C   UNL     1       1.399   9.739  18.457  0.00  0.00    +0.000 C 
ATOM      8  O   UNL     1       2.242  10.220  17.693  0.00  0.00    +0.000 OA
ATOM      9  H   UNL     1       0.914   8.257  19.794  0.00  0.00    +0.000 HD
BRANCH   6  15
ATOM     10  C   UNL     1       2.763   6.424  19.566  0.00  0.00    +0.000 A 
ATOM     11  C   UNL     1       3.889   5.587  19.412  0.00  0.00    +0.000 A 
ATOM     12  C   UNL     1       4.719   5.723  18.307  0.00  0.00    +0.000 A 
ATOM     13  C   UNL     1       4.418   6.686  17.355  0.00  0.00    +0.000 A 
ATOM     14  C   UNL     1       3.348   7.574  17.555  0.00  0.00    +0.000 A 
ATOM     15  C   UNL     1       2.529   7.505  18.694  0.00  0.00    +0.000 A 
BRANCH  10  17
ATOM     16  O   UNL     1       1.313   4.903  20.778  0.00  0.00    +0.000 OA
ATOM     17  C   UNL     1       1.745   6.013  20.554  0.00  0.00    +0.000 C 
BRANCH  17  18
ATOM     18  O   UNL     1       1.480   7.039  21.389  0.00  0.00    +0.000 OA
ATOM     19  H   UNL     1       0.530   6.935  21.595  0.00  0.00    +0.000 HD
ENDBRANCH  17  18
ENDBRANCH  10  17
ENDBRANCH   6  15
ENDBRANCH   1   7
BRANCH   5  20
ATOM     20  S   UNL     1      -0.109  10.495  21.451  0.00  0.00    +0.000 S 
ATOM     21  O   UNL     1      -0.530   9.261  22.057  0.00  0.00    +0.000 OA
ATOM     22  O   UNL     1       1.285  10.822  21.316  0.00  0.00    +0.000 OA
BRANCH  20  23
ATOM     23  C   UNL     1      -0.910  11.822  22.332  0.00  0.00    +0.000 A 
ATOM     24  C   UNL     1      -2.082  11.573  23.048  0.00  0.00    +0.000 A 
ATOM     25  C   UNL     1      -2.708  12.620  23.716  0.00  0.00    +0.000 A 
ATOM     26 CL   UNL     1      -4.162  12.333  24.599  0.00  0.00    +0.000 Cl
ATOM     27  C   UNL     1      -2.172  13.911  23.700  0.00  0.00    +0.000 A 
ATOM     28  C   UNL     1      -0.987  14.135  23.004  0.00  0.00    +0.000 A 
ATOM     29 CL   UNL     1      -0.289  15.714  23.018  0.00  0.00    +0.000 Cl
ATOM     30  C   UNL     1      -0.348  13.108  22.316  0.00  0.00    +0.000 A 
ENDBRANCH  20  23
ENDBRANCH   5  20
TORSDOF 6
ENDMDL
