MODEL 1
REMARK VINA RESULT:      -8.2      0.000      0.000
REMARK  Name = 
REMARK  5 active torsions:
REMARK  status: ('A' for Active; 'I' for Inactive)
REMARK    1  A    between atoms: C_2  and  C_3
REMARK    2  A    between atoms: C_3  and  C_4
REMARK    3  A    between atoms: C_4  and  N_5
REMARK    4  A    between atoms: N_5  and  C_6
REMARK    5  A    between atoms: C_6  and  C_7
REMARK                            x       y       z     vdW  Elec       q    Type
REMARK                         _______ _______ _______ _____ _____    ______ ____
ROOT
ATOM      1  C   UNL     1       5.236   4.772  16.030  0.00  0.00    +0.000 A 
ATOM      2  C   UNL     1       5.319   6.176  15.998  0.00  0.00    +0.000 A 
ATOM      3  C   UNL     1       4.571   6.960  16.872  0.00  0.00    +0.000 A 
ATOM      4  C   UNL     1       3.721   6.362  17.806  0.00  0.00    +0.000 A 
ATOM      5  C   UNL     1       2.966   7.152  18.686  0.00  0.00    +0.000 A 
ATOM      6  C   UNL     1       2.117   6.556  19.621  0.00  0.00    +0.000 A 
ATOM      7  C   UNL     1       2.004   5.160  19.689  0.00  0.00    +0.000 A 
ATOM      8  C   UNL     1       1.151   4.554  20.624  0.00  0.00    +0.000 A 
ATOM      9  C   UNL     1       1.044   3.162  20.679  0.00  0.00    +0.000 A 
ATOM     10  C   UNL     1       1.782   2.360  19.804  0.00  0.00    +0.000 A 
ATOM     11  C   UNL     1       2.643   2.948  18.864  0.00  0.00    +0.000 A 
ATOM     12  C   UNL     1       3.389   2.155  17.986  0.00  0.00    +0.000 A 
ATOM     13  C   UNL     1       4.247   2.743  17.055  0.00  0.00    +0.000 A 
ATOM     14  C   UNL     1       4.378   4.147  16.973  0.00  0.00    +0.000 A 
ATOM     15  C   UNL     1       3.621   4.953  17.861  0.00  0.00    +0.000 A 
ATOM     16  C   UNL     1       2.756   4.353  18.804  0.00  0.00    +0.000 A 
ENDROOT
BRANCH   1  17
ATOM     17  C   UNL     1       6.054   3.983  15.026  0.00  0.00    +0.000 C 
BRANCH  17  18
ATOM     18  N   UNL     1       5.426   3.998  13.696  0.00  0.00    +0.000 NA
ATOM     19  H   UNL     1       4.634   3.312  13.703  0.00  0.00    +0.000 HD
BRANCH  18  20
ATOM     20  C   UNL     1       6.374   3.625  12.636  0.00  0.00    +0.000 C 
BRANCH  20  21
ATOM     21  C   UNL     1       5.764   2.553  11.737  0.00  0.00    +0.000 C 
BRANCH  21  23
ATOM     22  N   UNL     1       3.397   3.323  10.908  0.00  0.00    +0.000 NA
ATOM     23  C   UNL     1       4.440   2.982  11.277  0.00  0.00    +0.000 C 
ENDBRANCH  21  23
ENDBRANCH  20  21
ENDBRANCH  18  20
ENDBRANCH  17  18
ENDBRANCH   1  17
TORSDOF 5
ENDMDL
MODEL 2
REMARK VINA RESULT:      -8.1      2.183      3.589
REMARK  Name = 
REMARK  5 active torsions:
REMARK  status: ('A' for Active; 'I' for Inactive)
REMARK    1  A    between atoms: C_2  and  C_3
REMARK    2  A    between atoms: C_3  and  C_4
REMARK    3  A    between atoms: C_4  and  N_5
REMARK    4  A    between atoms: N_5  and  C_6
REMARK    5  A    between atoms: C_6  and  C_7
REMARK                            x       y       z     vdW  Elec       q    Type
REMARK                         _______ _______ _______ _____ _____    ______ ____
ROOT
ATOM      1  C   UNL     1       4.833   5.635  16.337  0.00  0.00    +0.000 A 
ATOM      2  C   UNL     1       4.680   7.014  16.560  0.00  0.00    +0.000 A 
ATOM      3  C   UNL     1       3.862   7.490  17.583  0.00  0.00    +0.000 A 
ATOM      4  C   UNL     1       3.179   6.598  18.413  0.00  0.00    +0.000 A 
ATOM      5  C   UNL     1       2.354   7.077  19.442  0.00  0.00    +0.000 A 
ATOM      6  C   UNL     1       1.670   6.187  20.274  0.00  0.00    +0.000 A 
ATOM      7  C   UNL     1       1.796   4.803  20.087  0.00  0.00    +0.000 A 
ATOM      8  C   UNL     1       1.110   3.903  20.917  0.00  0.00    +0.000 A 
ATOM      9  C   UNL     1       1.239   2.526  20.718  0.00  0.00    +0.000 A 
ATOM     10  C   UNL     1       2.049   2.032  19.693  0.00  0.00    +0.000 A 
ATOM     11  C   UNL     1       2.745   2.916  18.854  0.00  0.00    +0.000 A 
ATOM     12  C   UNL     1       3.562   2.432  17.827  0.00  0.00    +0.000 A 
ATOM     13  C   UNL     1       4.255   3.316  16.997  0.00  0.00    +0.000 A 
ATOM     14  C   UNL     1       4.146   4.713  17.172  0.00  0.00    +0.000 A 
ATOM     15  C   UNL     1       3.317   5.206  18.211  0.00  0.00    +0.000 A 
ATOM     16  C   UNL     1       2.619   4.308  19.050  0.00  0.00    +0.000 A 
ENDROOT
BRANCH   1  17
ATOM     17  C   UNL     1       5.712   5.190  15.184  0.00  0.00    +0.000 C 
BRANCH  17  18
ATOM     18  N   UNL     1       7.139   5.343  15.509  0.00  0.00    +0.000 NA
ATOM     19  H   UNL     1       7.690   4.761  14.835  0.00  0.00    +0.000 HD
BRANCH  18  20
ATOM     20  C   UNL     1       7.441   4.903  16.879  0.00  0.00    +0.000 C 
BRANCH  20  21
ATOM     21  C   UNL     1       7.684   6.112  17.778  0.00  0.00    +0.000 C 
BRANCH  21  23
ATOM     22  N   UNL     1       7.715   5.355  20.290  0.00  0.00    +0.000 NA
ATOM     23  C   UNL     1       7.701   5.693  19.183  0.00  0.00    +0.000 C 
ENDBRANCH  21  23
ENDBRANCH  20  21
ENDBRANCH  18  20
ENDBRANCH  17  18
ENDBRANCH   1  17
TORSDOF 5
ENDMDL
MODEL 3
REMARK VINA RESULT:      -8.0      0.963      1.656
REMARK  Name = 
REMARK  5 active torsions:
REMARK  status: ('A' for Active; 'I' for Inactive)
REMARK    1  A    between atoms: C_2  and  C_3
REMARK    2  A    between atoms: C_3  and  C_4
REMARK    3  A    between atoms: C_4  and  N_5
REMARK    4  A    between atoms: N_5  and  C_6
REMARK    5  A    between atoms: C_6  and  C_7
REMARK                            x       y       z     vdW  Elec       q    Type
REMARK                         _______ _______ _______ _____ _____    ______ ____
ROOT
ATOM      1  C   UNL     1       5.195   4.700  16.085  0.00  0.00    +0.000 A 
ATOM      2  C   UNL     1       5.302   6.102  16.077  0.00  0.00    +0.000 A 
ATOM      3  C   UNL     1       4.577   6.883  16.974  0.00  0.00    +0.000 A 
ATOM      4  C   UNL     1       3.728   6.282  17.906  0.00  0.00    +0.000 A 
ATOM      5  C   UNL     1       2.996   7.068  18.809  0.00  0.00    +0.000 A 
ATOM      6  C   UNL     1       2.147   6.469  19.743  0.00  0.00    +0.000 A 
ATOM      7  C   UNL     1       2.011   5.075  19.786  0.00  0.00    +0.000 A 
ATOM      8  C   UNL     1       1.158   4.466  20.719  0.00  0.00    +0.000 A 
ATOM      9  C   UNL     1       1.027   3.075  20.749  0.00  0.00    +0.000 A 
ATOM     10  C   UNL     1       1.741   2.277  19.852  0.00  0.00    +0.000 A 
ATOM     11  C   UNL     1       2.602   2.868  18.913  0.00  0.00    +0.000 A 
ATOM     12  C   UNL     1       3.325   2.078  18.012  0.00  0.00    +0.000 A 
ATOM     13  C   UNL     1       4.182   2.669  17.083  0.00  0.00    +0.000 A 
ATOM     14  C   UNL     1       4.337   4.072  17.026  0.00  0.00    +0.000 A 
ATOM     15  C   UNL     1       3.604   4.874  17.936  0.00  0.00    +0.000 A 
ATOM     16  C   UNL     1       2.739   4.272  18.878  0.00  0.00    +0.000 A 
ENDROOT
BRANCH   1  17
ATOM     17  C   UNL     1       5.988   3.916  15.057  0.00  0.00    +0.000 C 
BRANCH  17  18
ATOM     18  N   UNL     1       5.532   4.212  13.690  0.00  0.00    +0.000 NA
ATOM     19  H   UNL     1       4.497   4.060  13.653  0.00  0.00    +0.000 HD
BRANCH  18  20
ATOM     20  C   UNL     1       6.179   3.345  12.695  0.00  0.00    +0.000 C 
BRANCH  20  21
ATOM     21  C   UNL     1       7.070   4.174  11.774  0.00  0.00    +0.000 C 
BRANCH  21  23
ATOM     22  N   UNL     1       8.496   5.855  13.196  0.00  0.00    +0.000 NA
ATOM     23  C   UNL     1       7.870   5.112  12.566  0.00  0.00    +0.000 C 
ENDBRANCH  21  23
ENDBRANCH  20  21
ENDBRANCH  18  20
ENDBRANCH  17  18
ENDBRANCH   1  17
TORSDOF 5
ENDMDL
MODEL 4
REMARK VINA RESULT:      -7.6      2.288      4.494
REMARK  Name = 
REMARK  5 active torsions:
REMARK  status: ('A' for Active; 'I' for Inactive)
REMARK    1  A    between atoms: C_2  and  C_3
REMARK    2  A    between atoms: C_3  and  C_4
REMARK    3  A    between atoms: C_4  and  N_5
REMARK    4  A    between atoms: N_5  and  C_6
REMARK    5  A    between atoms: C_6  and  C_7
REMARK                            x       y       z     vdW  Elec       q    Type
REMARK                         _______ _______ _______ _____ _____    ______ ____
ROOT
ATOM      1  C   UNL     1       4.533   4.528  16.758  0.00  0.00    +0.000 A 
ATOM      2  C   UNL     1       4.445   3.211  17.242  0.00  0.00    +0.000 A 
ATOM      3  C   UNL     1       3.708   2.914  18.387  0.00  0.00    +0.000 A 
ATOM      4  C   UNL     1       3.037   3.927  19.077  0.00  0.00    +0.000 A 
ATOM      5  C   UNL     1       2.297   3.628  20.231  0.00  0.00    +0.000 A 
ATOM      6  C   UNL     1       1.625   4.639  20.922  0.00  0.00    +0.000 A 
ATOM      7  C   UNL     1       1.686   5.966  20.474  0.00  0.00    +0.000 A 
ATOM      8  C   UNL     1       1.015   6.988  21.164  0.00  0.00    +0.000 A 
ATOM      9  C   UNL     1       1.088   8.307  20.711  0.00  0.00    +0.000 A 
ATOM     10  C   UNL     1       1.828   8.624  19.569  0.00  0.00    +0.000 A 
ATOM     11  C   UNL     1       2.503   7.615  18.863  0.00  0.00    +0.000 A 
ATOM     12  C   UNL     1       3.244   7.921  17.716  0.00  0.00    +0.000 A 
ATOM     13  C   UNL     1       3.910   6.914  17.015  0.00  0.00    +0.000 A 
ATOM     14  C   UNL     1       3.858   5.571  17.447  0.00  0.00    +0.000 A 
ATOM     15  C   UNL     1       3.109   5.259  18.611  0.00  0.00    +0.000 A 
ATOM     16  C   UNL     1       2.433   6.281  19.316  0.00  0.00    +0.000 A 
ENDROOT
BRANCH   1  17
ATOM     17  C   UNL     1       5.380   4.783  15.527  0.00  0.00    +0.000 C 
BRANCH  17  18
ATOM     18  N   UNL     1       6.698   5.328  15.887  0.00  0.00    +0.000 NA
ATOM     19  H   UNL     1       7.326   5.237  15.054  0.00  0.00    +0.000 HD
BRANCH  18  20
ATOM     20  C   UNL     1       7.299   4.609  17.020  0.00  0.00    +0.000 C 
BRANCH  20  21
ATOM     21  C   UNL     1       7.598   5.578  18.160  0.00  0.00    +0.000 C 
BRANCH  21  23
ATOM     22  N   UNL     1       7.487   8.049  17.284  0.00  0.00    +0.000 NA
ATOM     23  C   UNL     1       7.540   6.958  17.669  0.00  0.00    +0.000 C 
ENDBRANCH  21  23
ENDBRANCH  20  21
ENDBRANCH  18  20
ENDBRANCH  17  18
ENDBRANCH   1  17
TORSDOF 5
ENDMDL
MODEL 5
REMARK VINA RESULT:      -7.4      2.539      4.616
REMARK  Name = 
REMARK  5 active torsions:
REMARK  status: ('A' for Active; 'I' for Inactive)
REMARK    1  A    between atoms: C_2  and  C_3
REMARK    2  A    between atoms: C_3  and  C_4
REMARK    3  A    between atoms: C_4  and  N_5
REMARK    4  A    between atoms: N_5  and  C_6
REMARK    5  A    between atoms: C_6  and  C_7
REMARK                            x       y       z     vdW  Elec       q    Type
REMARK                         _______ _______ _______ _____ _____    ______ ____
ROOT
ATOM      1  C   UNL     1       5.346   5.489  16.373  0.00  0.00    +0.000 A 
ATOM      2  C   UNL     1       5.704   4.268  15.773  0.00  0.00    +0.000 A 
ATOM      3  C   UNL     1       5.101   3.073  16.161  0.00  0.00    +0.000 A 
ATOM      4  C   UNL     1       4.122   3.068  17.157  0.00  0.00    +0.000 A 
ATOM      5  C   UNL     1       3.516   1.865  17.549  0.00  0.00    +0.000 A 
ATOM      6  C   UNL     1       2.536   1.856  18.544  0.00  0.00    +0.000 A 
ATOM      7  C   UNL     1       2.148   3.051  19.168  0.00  0.00    +0.000 A 
ATOM      8  C   UNL     1       1.166   3.051  20.171  0.00  0.00    +0.000 A 
ATOM      9  C   UNL     1       0.792   4.247  20.788  0.00  0.00    +0.000 A 
ATOM     10  C   UNL     1       1.391   5.453  20.417  0.00  0.00    +0.000 A 
ATOM     11  C   UNL     1       2.374   5.474  19.414  0.00  0.00    +0.000 A 
ATOM     12  C   UNL     1       2.978   6.676  19.032  0.00  0.00    +0.000 A 
ATOM     13  C   UNL     1       3.951   6.693  18.031  0.00  0.00    +0.000 A 
ATOM     14  C   UNL     1       4.352   5.502  17.387  0.00  0.00    +0.000 A 
ATOM     15  C   UNL     1       3.743   4.281  17.775  0.00  0.00    +0.000 A 
ATOM     16  C   UNL     1       2.756   4.269  18.786  0.00  0.00    +0.000 A 
ENDROOT
BRANCH   1  17
ATOM     17  C   UNL     1       6.068   6.745  15.925  0.00  0.00    +0.000 C 
BRANCH  17  18
ATOM     18  N   UNL     1       7.433   6.800  16.468  0.00  0.00    +0.000 NA
ATOM     19  H   UNL     1       7.619   5.901  16.972  0.00  0.00    +0.000 HD
BRANCH  18  20
ATOM     20  C   UNL     1       7.607   7.919  17.407  0.00  0.00    +0.000 C 
BRANCH  20  21
ATOM     21  C   UNL     1       8.264   7.429  18.694  0.00  0.00    +0.000 C 
BRANCH  21  23
ATOM     22  N   UNL     1       7.508   4.967  19.197  0.00  0.00    +0.000 NA
ATOM     23  C   UNL     1       7.840   6.055  18.979  0.00  0.00    +0.000 C 
ENDBRANCH  21  23
ENDBRANCH  20  21
ENDBRANCH  18  20
ENDBRANCH  17  18
ENDBRANCH   1  17
TORSDOF 5
ENDMDL
MODEL 6
REMARK VINA RESULT:      -7.4      2.354      4.663
REMARK  Name = 
REMARK  5 active torsions:
REMARK  status: ('A' for Active; 'I' for Inactive)
REMARK    1  A    between atoms: C_2  and  C_3
REMARK    2  A    between atoms: C_3  and  C_4
REMARK    3  A    between atoms: C_4  and  N_5
REMARK    4  A    between atoms: N_5  and  C_6
REMARK    5  A    between atoms: C_6  and  C_7
REMARK                            x       y       z     vdW  Elec       q    Type
REMARK                         _______ _______ _______ _____ _____    ______ ____
ROOT
ATOM      1  C   UNL     1       4.514   4.792  16.731  0.00  0.00    +0.000 A 
ATOM      2  C   UNL     1       4.565   3.485  17.246  0.00  0.00    +0.000 A 
ATOM      3  C   UNL     1       3.930   3.158  18.442  0.00  0.00    +0.000 A 
ATOM      4  C   UNL     1       3.223   4.131  19.154  0.00  0.00    +0.000 A 
ATOM      5  C   UNL     1       2.584   3.803  20.359  0.00  0.00    +0.000 A 
ATOM      6  C   UNL     1       1.875   4.773  21.072  0.00  0.00    +0.000 A 
ATOM      7  C   UNL     1       1.798   6.089  20.594  0.00  0.00    +0.000 A 
ATOM      8  C   UNL     1       1.091   7.070  21.306  0.00  0.00    +0.000 A 
ATOM      9  C   UNL     1       1.025   8.379  20.822  0.00  0.00    +0.000 A 
ATOM     10  C   UNL     1       1.663   8.725  19.628  0.00  0.00    +0.000 A 
ATOM     11  C   UNL     1       2.373   7.757  18.900  0.00  0.00    +0.000 A 
ATOM     12  C   UNL     1       3.012   8.092  17.702  0.00  0.00    +0.000 A 
ATOM     13  C   UNL     1       3.714   7.125  16.979  0.00  0.00    +0.000 A 
ATOM     14  C   UNL     1       3.800   5.793  17.441  0.00  0.00    +0.000 A 
ATOM     15  C   UNL     1       3.155   5.452  18.657  0.00  0.00    +0.000 A 
ATOM     16  C   UNL     1       2.443   6.433  19.383  0.00  0.00    +0.000 A 
ENDROOT
BRANCH   1  17
ATOM     17  C   UNL     1       5.258   5.083  15.442  0.00  0.00    +0.000 C 
BRANCH  17  18
ATOM     18  N   UNL     1       6.265   6.137  15.631  0.00  0.00    +0.000 NA
ATOM     19  H   UNL     1       6.657   6.385  14.692  0.00  0.00    +0.000 HD
BRANCH  18  20
ATOM     20  C   UNL     1       7.362   5.700  16.507  0.00  0.00    +0.000 C 
BRANCH  20  21
ATOM     21  C   UNL     1       7.473   6.626  17.715  0.00  0.00    +0.000 C 
BRANCH  21  23
ATOM     22  N   UNL     1       7.097   5.269  19.928  0.00  0.00    +0.000 NA
ATOM     23  C   UNL     1       7.264   5.864  18.950  0.00  0.00    +0.000 C 
ENDBRANCH  21  23
ENDBRANCH  20  21
ENDBRANCH  18  20
ENDBRANCH  17  18
ENDBRANCH   1  17
TORSDOF 5
ENDMDL
MODEL 7
REMARK VINA RESULT:      -7.4      2.643      3.653
REMARK  Name = 
REMARK  5 active torsions:
REMARK  status: ('A' for Active; 'I' for Inactive)
REMARK    1  A    between atoms: C_2  and  C_3
REMARK    2  A    between atoms: C_3  and  C_4
REMARK    3  A    between atoms: C_4  and  N_5
REMARK    4  A    between atoms: N_5  and  C_6
REMARK    5  A    between atoms: C_6  and  C_7
REMARK                            x       y       z     vdW  Elec       q    Type
REMARK                         _______ _______ _______ _____ _____    ______ ____
ROOT
ATOM      1  C   UNL     1       4.449   6.442  16.819  0.00  0.00    +0.000 A 
ATOM      2  C   UNL     1       3.999   7.730  17.160  0.00  0.00    +0.000 A 
ATOM      3  C   UNL     1       3.112   7.925  18.216  0.00  0.00    +0.000 A 
ATOM      4  C   UNL     1       2.654   6.837  18.963  0.00  0.00    +0.000 A 
ATOM      5  C   UNL     1       1.759   7.033  20.026  0.00  0.00    +0.000 A 
ATOM      6  C   UNL     1       1.300   5.946  20.774  0.00  0.00    +0.000 A 
ATOM      7  C   UNL     1       1.724   4.645  20.470  0.00  0.00    +0.000 A 
ATOM      8  C   UNL     1       1.265   3.549  21.215  0.00  0.00    +0.000 A 
ATOM      9  C   UNL     1       1.691   2.256  20.899  0.00  0.00    +0.000 A 
ATOM     10  C   UNL     1       2.575   2.042  19.838  0.00  0.00    +0.000 A 
ATOM     11  C   UNL     1       3.047   3.126  19.082  0.00  0.00    +0.000 A 
ATOM     12  C   UNL     1       3.935   2.924  18.020  0.00  0.00    +0.000 A 
ATOM     13  C   UNL     1       4.405   4.006  17.274  0.00  0.00    +0.000 A 
ATOM     14  C   UNL     1       3.994   5.324  17.567  0.00  0.00    +0.000 A 
ATOM     15  C   UNL     1       3.092   5.532  18.642  0.00  0.00    +0.000 A 
ATOM     16  C   UNL     1       2.621   4.434  19.397  0.00  0.00    +0.000 A 
ENDROOT
BRANCH   1  17
ATOM     17  C   UNL     1       5.387   6.302  15.636  0.00  0.00    +0.000 C 
BRANCH  17  18
ATOM     18  N   UNL     1       6.793   6.268  16.069  0.00  0.00    +0.000 NA
ATOM     19  H   UNL     1       6.935   5.403  16.642  0.00  0.00    +0.000 HD
BRANCH  18  20
ATOM     20  C   UNL     1       7.147   7.442  16.878  0.00  0.00    +0.000 C 
BRANCH  20  21
ATOM     21  C   UNL     1       7.785   7.003  18.193  0.00  0.00    +0.000 C 
BRANCH  21  23
ATOM     22  N   UNL     1       7.667   4.392  18.417  0.00  0.00    +0.000 NA
ATOM     23  C   UNL     1       7.722   5.543  18.315  0.00  0.00    +0.000 C 
ENDBRANCH  21  23
ENDBRANCH  20  21
ENDBRANCH  18  20
ENDBRANCH  17  18
ENDBRANCH   1  17
TORSDOF 5
ENDMDL
MODEL 8
REMARK VINA RESULT:      -7.4      4.166      7.927
REMARK  Name = 
REMARK  5 active torsions:
REMARK  status: ('A' for Active; 'I' for Inactive)
REMARK    1  A    between atoms: C_2  and  C_3
REMARK    2  A    between atoms: C_3  and  C_4
REMARK    3  A    between atoms: C_4  and  N_5
REMARK    4  A    between atoms: N_5  and  C_6
REMARK    5  A    between atoms: C_6  and  C_7
REMARK                            x       y       z     vdW  Elec       q    Type
REMARK                         _______ _______ _______ _____ _____    ______ ____
ROOT
ATOM      1  C   UNL     1       1.813   6.546  20.066  0.00  0.00    +0.000 A 
ATOM      2  C   UNL     1       1.416   5.371  20.727  0.00  0.00    +0.000 A 
ATOM      3  C   UNL     1       1.874   4.122  20.312  0.00  0.00    +0.000 A 
ATOM      4  C   UNL     1       2.746   4.017  19.225  0.00  0.00    +0.000 A 
ATOM      5  C   UNL     1       3.206   2.759  18.805  0.00  0.00    +0.000 A 
ATOM      6  C   UNL     1       4.078   2.651  17.719  0.00  0.00    +0.000 A 
ATOM      7  C   UNL     1       4.500   3.797  17.031  0.00  0.00    +0.000 A 
ATOM      8  C   UNL     1       5.374   3.697  15.938  0.00  0.00    +0.000 A 
ATOM      9  C   UNL     1       5.784   4.846  15.257  0.00  0.00    +0.000 A 
ATOM     10  C   UNL     1       5.328   6.105  15.656  0.00  0.00    +0.000 A 
ATOM     11  C   UNL     1       4.456   6.227  16.749  0.00  0.00    +0.000 A 
ATOM     12  C   UNL     1       3.996   7.483  17.160  0.00  0.00    +0.000 A 
ATOM     13  C   UNL     1       3.132   7.599  18.250  0.00  0.00    +0.000 A 
ATOM     14  C   UNL     1       2.699   6.457  18.959  0.00  0.00    +0.000 A 
ATOM     15  C   UNL     1       3.161   5.183  18.544  0.00  0.00    +0.000 A 
ATOM     16  C   UNL     1       4.039   5.070  17.441  0.00  0.00    +0.000 A 
ENDROOT
BRANCH   1  17
ATOM     17  C   UNL     1       1.248   7.867  20.552  0.00  0.00    +0.000 C 
BRANCH  17  18
ATOM     18  N   UNL     1       1.787   8.226  21.872  0.00  0.00    +0.000 NA
ATOM     19  H   UNL     1       1.567   7.447  22.536  0.00  0.00    +0.000 HD
BRANCH  18  20
ATOM     20  C   UNL     1       1.200   9.472  22.385  0.00  0.00    +0.000 C 
BRANCH  20  21
ATOM     21  C   UNL     1      -0.309   9.315  22.548  0.00  0.00    +0.000 C 
BRANCH  21  23
ATOM     22  N   UNL     1      -1.364  11.594  23.309  0.00  0.00    +0.000 NA
ATOM     23  C   UNL     1      -0.900  10.587  22.977  0.00  0.00    +0.000 C 
ENDBRANCH  21  23
ENDBRANCH  20  21
ENDBRANCH  18  20
ENDBRANCH  17  18
ENDBRANCH   1  17
TORSDOF 5
ENDMDL
MODEL 9
REMARK VINA RESULT:      -7.4      1.319      1.852
REMARK  Name = 
REMARK  5 active torsions:
REMARK  status: ('A' for Active; 'I' for Inactive)
REMARK    1  A    between atoms: C_2  and  C_3
REMARK    2  A    between atoms: C_3  and  C_4
REMARK    3  A    between atoms: C_4  and  N_5
REMARK    4  A    between atoms: N_5  and  C_6
REMARK    5  A    between atoms: C_6  and  C_7
REMARK                            x       y       z     vdW  Elec       q    Type
REMARK                         _______ _______ _______ _____ _____    ______ ____
ROOT
ATOM      1  C   UNL     1       4.409   6.372  16.636  0.00  0.00    +0.000 A 
ATOM      2  C   UNL     1       4.102   7.681  17.047  0.00  0.00    +0.000 A 
ATOM      3  C   UNL     1       3.302   7.915  18.163  0.00  0.00    +0.000 A 
ATOM      4  C   UNL     1       2.790   6.845  18.901  0.00  0.00    +0.000 A 
ATOM      5  C   UNL     1       1.983   7.080  20.025  0.00  0.00    +0.000 A 
ATOM      6  C   UNL     1       1.471   6.011  20.765  0.00  0.00    +0.000 A 
ATOM      7  C   UNL     1       1.753   4.690  20.391  0.00  0.00    +0.000 A 
ATOM      8  C   UNL     1       1.240   3.611  21.128  0.00  0.00    +0.000 A 
ATOM      9  C   UNL     1       1.524   2.299  20.742  0.00  0.00    +0.000 A 
ATOM     10  C   UNL     1       2.319   2.046  19.621  0.00  0.00    +0.000 A 
ATOM     11  C   UNL     1       2.843   3.112  18.873  0.00  0.00    +0.000 A 
ATOM     12  C   UNL     1       3.643   2.871  17.751  0.00  0.00    +0.000 A 
ATOM     13  C   UNL     1       4.166   3.934  17.012  0.00  0.00    +0.000 A 
ATOM     14  C   UNL     1       3.898   5.272  17.375  0.00  0.00    +0.000 A 
ATOM     15  C   UNL     1       3.085   5.519  18.510  0.00  0.00    +0.000 A 
ATOM     16  C   UNL     1       2.560   4.440  19.257  0.00  0.00    +0.000 A 
ENDROOT
BRANCH   1  17
ATOM     17  C   UNL     1       5.257   6.193  15.392  0.00  0.00    +0.000 C 
BRANCH  17  18
ATOM     18  N   UNL     1       6.623   5.765  15.733  0.00  0.00    +0.000 NA
ATOM     19  H   UNL     1       7.247   6.604  15.689  0.00  0.00    +0.000 HD
BRANCH  18  20
ATOM     20  C   UNL     1       7.127   4.744  14.803  0.00  0.00    +0.000 C 
BRANCH  20  21
ATOM     21  C   UNL     1       5.966   4.094  14.054  0.00  0.00    +0.000 C 
BRANCH  21  23
ATOM     22  N   UNL     1       6.792   3.211  11.726  0.00  0.00    +0.000 NA
ATOM     23  C   UNL     1       6.425   3.604  12.751  0.00  0.00    +0.000 C 
ENDBRANCH  21  23
ENDBRANCH  20  21
ENDBRANCH  18  20
ENDBRANCH  17  18
ENDBRANCH   1  17
TORSDOF 5
ENDMDL
