MODEL 1
REMARK VINA RESULT:      -7.4      0.000      0.000
REMARK  Name = 
REMARK  3 active torsions:
REMARK  status: ('A' for Active; 'I' for Inactive)
REMARK    1  A    between atoms: C_2  and  C_12
REMARK    2  A    between atoms: N_3  and  N_4
REMARK    3  A    between atoms: N_4  and  C_5
REMARK                            x       y       z     vdW  Elec       q    Type
REMARK                         _______ _______ _______ _____ _____    ______ ____
ROOT
ATOM      1  O   UNL     1       3.850   3.945  17.176  0.00  0.00    +0.000 OA
ATOM      2  C   UNL     1       4.155   3.676  18.335  0.00  0.00    +0.000 C 
ATOM      3  N   UNL     1       5.458   3.656  18.809  0.00  0.00    +0.000 N 
ATOM      4  H   UNL     1       5.630   3.865  19.787  0.00  0.00    +0.000 HD
ENDROOT
BRANCH   2   5
ATOM      5  C   UNL     1       3.119   3.339  19.350  0.00  0.00    +0.000 A 
ATOM      6  C   UNL     1       1.762   3.597  19.102  0.00  0.00    +0.000 A 
ATOM      7  C   UNL     1       0.808   3.330  20.084  0.00  0.00    +0.000 A 
ATOM      8  C   UNL     1       1.203   2.809  21.315  0.00  0.00    +0.000 A 
ATOM      9  C   UNL     1       2.552   2.548  21.565  0.00  0.00    +0.000 A 
ATOM     10  C   UNL     1       3.512   2.816  20.587  0.00  0.00    +0.000 A 
ENDBRANCH   2   5
BRANCH   3  11
ATOM     11  N   UNL     1       6.479   4.030  17.932  0.00  0.00    +0.000 N 
ATOM     12  H   UNL     1       7.278   3.384  17.966  0.00  0.00    +0.000 HD
BRANCH  11  13
ATOM     13  C   UNL     1       6.870   5.388  18.014  0.00  0.00    +0.000 A 
ATOM     14  C   UNL     1       6.479   6.365  17.086  0.00  0.00    +0.000 A 
ATOM     15  C   UNL     1       7.004   7.661  17.130  0.00  0.00    +0.000 A 
ATOM     16  C   UNL     1       7.947   7.989  18.098  0.00  0.00    +0.000 A 
ATOM     17 BR   UNL     1       8.701   9.722  18.120  0.00  0.00    +0.000 Br
ATOM     18  C   UNL     1       8.351   7.041  19.033  0.00  0.00    +0.000 A 
ATOM     19  C   UNL     1       7.816   5.748  18.986  0.00  0.00    +0.000 A 
ENDBRANCH  11  13
ENDBRANCH   3  11
TORSDOF 3
ENDMDL
MODEL 2
REMARK VINA RESULT:      -7.2      0.546      1.727
REMARK  Name = 
REMARK  3 active torsions:
REMARK  status: ('A' for Active; 'I' for Inactive)
REMARK    1  A    between atoms: C_2  and  C_12
REMARK    2  A    between atoms: N_3  and  N_4
REMARK    3  A    between atoms: N_4  and  C_5
REMARK                            x       y       z     vdW  Elec       q    Type
REMARK                         _______ _______ _______ _____ _____    ______ ____
ROOT
ATOM      1  O   UNL     1       3.560   4.844  17.244  0.00  0.00    +0.000 OA
ATOM      2  C   UNL     1       3.923   4.075  18.130  0.00  0.00    +0.000 C 
ATOM      3  N   UNL     1       5.179   3.493  18.184  0.00  0.00    +0.000 N 
ATOM      4  H   UNL     1       5.572   3.251  19.088  0.00  0.00    +0.000 HD
ENDROOT
BRANCH   2   5
ATOM      5  C   UNL     1       3.014   3.698  19.248  0.00  0.00    +0.000 A 
ATOM      6  C   UNL     1       3.490   2.959  20.342  0.00  0.00    +0.000 A 
ATOM      7  C   UNL     1       2.614   2.563  21.353  0.00  0.00    +0.000 A 
ATOM      8  C   UNL     1       1.264   2.900  21.277  0.00  0.00    +0.000 A 
ATOM      9  C   UNL     1       0.787   3.638  20.192  0.00  0.00    +0.000 A 
ATOM     10  C   UNL     1       1.657   4.035  19.175  0.00  0.00    +0.000 A 
ENDBRANCH   2   5
BRANCH   3  11
ATOM     11  N   UNL     1       6.111   3.854  17.208  0.00  0.00    +0.000 N 
ATOM     12  H   UNL     1       6.740   3.079  16.964  0.00  0.00    +0.000 HD
BRANCH  11  13
ATOM     13  C   UNL     1       6.804   5.062  17.462  0.00  0.00    +0.000 A 
ATOM     14  C   UNL     1       7.520   5.312  18.643  0.00  0.00    +0.000 A 
ATOM     15  C   UNL     1       8.070   6.571  18.907  0.00  0.00    +0.000 A 
ATOM     16  C   UNL     1       7.892   7.605  17.994  0.00  0.00    +0.000 A 
ATOM     17 BR   UNL     1       8.585   9.321  18.379  0.00  0.00    +0.000 Br
ATOM     18  C   UNL     1       7.191   7.385  16.813  0.00  0.00    +0.000 A 
ATOM     19  C   UNL     1       6.648   6.120  16.554  0.00  0.00    +0.000 A 
ENDBRANCH  11  13
ENDBRANCH   3  11
TORSDOF 3
ENDMDL
MODEL 3
REMARK VINA RESULT:      -7.2      0.147      1.172
REMARK  Name = 
REMARK  3 active torsions:
REMARK  status: ('A' for Active; 'I' for Inactive)
REMARK    1  A    between atoms: C_2  and  C_12
REMARK    2  A    between atoms: N_3  and  N_4
REMARK    3  A    between atoms: N_4  and  C_5
REMARK                            x       y       z     vdW  Elec       q    Type
REMARK                         _______ _______ _______ _____ _____    ______ ____
ROOT
ATOM      1  O   UNL     1       3.876   3.974  17.154  0.00  0.00    +0.000 OA
ATOM      2  C   UNL     1       4.165   3.722  18.320  0.00  0.00    +0.000 C 
ATOM      3  N   UNL     1       5.460   3.714  18.814  0.00  0.00    +0.000 N 
ATOM      4  H   UNL     1       5.617   3.937  19.791  0.00  0.00    +0.000 HD
ENDROOT
BRANCH   2   5
ATOM      5  C   UNL     1       3.115   3.395  19.325  0.00  0.00    +0.000 A 
ATOM      6  C   UNL     1       3.464   3.030  20.634  0.00  0.00    +0.000 A 
ATOM      7  C   UNL     1       2.473   2.670  21.548  0.00  0.00    +0.000 A 
ATOM      8  C   UNL     1       1.135   2.670  21.159  0.00  0.00    +0.000 A 
ATOM      9  C   UNL     1       0.783   3.035  19.858  0.00  0.00    +0.000 A 
ATOM     10  C   UNL     1       1.770   3.393  18.938  0.00  0.00    +0.000 A 
ENDBRANCH   2   5
BRANCH   3  11
ATOM     11  N   UNL     1       6.493   4.080  17.947  0.00  0.00    +0.000 N 
ATOM     12  H   UNL     1       7.288   3.430  17.990  0.00  0.00    +0.000 HD
BRANCH  11  13
ATOM     13  C   UNL     1       6.892   5.436  18.031  0.00  0.00    +0.000 A 
ATOM     14  C   UNL     1       6.507   6.417  17.104  0.00  0.00    +0.000 A 
ATOM     15  C   UNL     1       7.039   7.710  17.150  0.00  0.00    +0.000 A 
ATOM     16  C   UNL     1       7.983   8.032  18.119  0.00  0.00    +0.000 A 
ATOM     17 BR   UNL     1       8.747   9.760  18.144  0.00  0.00    +0.000 Br
ATOM     18  C   UNL     1       8.381   7.080  19.053  0.00  0.00    +0.000 A 
ATOM     19  C   UNL     1       7.839   5.790  19.004  0.00  0.00    +0.000 A 
ENDBRANCH  11  13
ENDBRANCH   3  11
TORSDOF 3
ENDMDL
MODEL 4
REMARK VINA RESULT:      -7.2      0.621      1.310
REMARK  Name = 
REMARK  3 active torsions:
REMARK  status: ('A' for Active; 'I' for Inactive)
REMARK    1  A    between atoms: C_2  and  C_12
REMARK    2  A    between atoms: N_3  and  N_4
REMARK    3  A    between atoms: N_4  and  C_5
REMARK                            x       y       z     vdW  Elec       q    Type
REMARK                         _______ _______ _______ _____ _____    ______ ____
ROOT
ATOM      1  O   UNL     1       3.463   4.831  17.262  0.00  0.00    +0.000 OA
ATOM      2  C   UNL     1       3.842   4.026  18.108  0.00  0.00    +0.000 C 
ATOM      3  N   UNL     1       5.092   3.427  18.103  0.00  0.00    +0.000 N 
ATOM      4  H   UNL     1       5.509   3.147  18.985  0.00  0.00    +0.000 HD
ENDROOT
BRANCH   2   5
ATOM      5  C   UNL     1       2.962   3.619  19.239  0.00  0.00    +0.000 A 
ATOM      6  C   UNL     1       1.627   4.047  19.299  0.00  0.00    +0.000 A 
ATOM      7  C   UNL     1       0.831   3.706  20.393  0.00  0.00    +0.000 A 
ATOM      8  C   UNL     1       1.364   2.942  21.430  0.00  0.00    +0.000 A 
ATOM      9  C   UNL     1       2.691   2.512  21.373  0.00  0.00    +0.000 A 
ATOM     10  C   UNL     1       3.493   2.852  20.282  0.00  0.00    +0.000 A 
ENDBRANCH   2   5
BRANCH   3  11
ATOM     11  N   UNL     1       5.998   3.812  17.112  0.00  0.00    +0.000 N 
ATOM     12  H   UNL     1       6.616   3.041  16.827  0.00  0.00    +0.000 HD
BRANCH  11  13
ATOM     13  C   UNL     1       6.705   5.008  17.382  0.00  0.00    +0.000 A 
ATOM     14  C   UNL     1       7.436   5.228  18.560  0.00  0.00    +0.000 A 
ATOM     15  C   UNL     1       8.001   6.477  18.843  0.00  0.00    +0.000 A 
ATOM     16  C   UNL     1       7.823   7.531  17.953  0.00  0.00    +0.000 A 
ATOM     17 BR   UNL     1       8.534   9.233  18.364  0.00  0.00    +0.000 Br
ATOM     18  C   UNL     1       7.105   7.340  16.776  0.00  0.00    +0.000 A 
ATOM     19  C   UNL     1       6.549   6.086  16.497  0.00  0.00    +0.000 A 
ENDBRANCH  11  13
ENDBRANCH   3  11
TORSDOF 3
ENDMDL
MODEL 5
REMARK VINA RESULT:      -7.2      3.853      6.637
REMARK  Name = 
REMARK  3 active torsions:
REMARK  status: ('A' for Active; 'I' for Inactive)
REMARK    1  A    between atoms: C_2  and  C_12
REMARK    2  A    between atoms: N_3  and  N_4
REMARK    3  A    between atoms: N_4  and  C_5
REMARK                            x       y       z     vdW  Elec       q    Type
REMARK                         _______ _______ _______ _____ _____    ______ ____
ROOT
ATOM      1  O   UNL     1       6.461   6.333  16.336  0.00  0.00    +0.000 OA
ATOM      2  C   UNL     1       6.676   5.163  16.030  0.00  0.00    +0.000 C 
ATOM      3  N   UNL     1       6.859   4.142  16.949  0.00  0.00    +0.000 N 
ATOM      4  H   UNL     1       6.597   3.195  16.694  0.00  0.00    +0.000 HD
ENDROOT
BRANCH   2   5
ATOM      5  C   UNL     1       6.759   4.739  14.605  0.00  0.00    +0.000 A 
ATOM      6  C   UNL     1       7.682   5.335  13.732  0.00  0.00    +0.000 A 
ATOM      7  C   UNL     1       7.709   4.969  12.386  0.00  0.00    +0.000 A 
ATOM      8  C   UNL     1       6.818   4.012  11.907  0.00  0.00    +0.000 A 
ATOM      9  C   UNL     1       5.900   3.413  12.772  0.00  0.00    +0.000 A 
ATOM     10  C   UNL     1       5.865   3.778  14.120  0.00  0.00    +0.000 A 
ENDBRANCH   2   5
BRANCH   3  11
ATOM     11  N   UNL     1       6.725   4.450  18.305  0.00  0.00    +0.000 N 
ATOM     12  H   UNL     1       7.464   4.023  18.877  0.00  0.00    +0.000 HD
BRANCH  11  13
ATOM     13  C   UNL     1       5.431   4.242  18.840  0.00  0.00    +0.000 A 
ATOM     14  C   UNL     1       4.737   3.026  18.742  0.00  0.00    +0.000 A 
ATOM     15  C   UNL     1       3.408   2.911  19.162  0.00  0.00    +0.000 A 
ATOM     16  C   UNL     1       2.747   4.024  19.670  0.00  0.00    +0.000 A 
ATOM     17 BR   UNL     1       0.933   3.883  20.182  0.00  0.00    +0.000 Br
ATOM     18  C   UNL     1       3.411   5.242  19.782  0.00  0.00    +0.000 A 
ATOM     19  C   UNL     1       4.744   5.347  19.366  0.00  0.00    +0.000 A 
ENDBRANCH  11  13
ENDBRANCH   3  11
TORSDOF 3
ENDMDL
MODEL 6
REMARK VINA RESULT:      -7.1      3.915      6.674
REMARK  Name = 
REMARK  3 active torsions:
REMARK  status: ('A' for Active; 'I' for Inactive)
REMARK    1  A    between atoms: C_2  and  C_12
REMARK    2  A    between atoms: N_3  and  N_4
REMARK    3  A    between atoms: N_4  and  C_5
REMARK                            x       y       z     vdW  Elec       q    Type
REMARK                         _______ _______ _______ _____ _____    ______ ____
ROOT
ATOM      1  O   UNL     1       6.715   6.299  16.199  0.00  0.00    +0.000 OA
ATOM      2  C   UNL     1       6.759   5.124  15.847  0.00  0.00    +0.000 C 
ATOM      3  N   UNL     1       6.797   4.052  16.725  0.00  0.00    +0.000 N 
ATOM      4  H   UNL     1       6.402   3.163  16.436  0.00  0.00    +0.000 HD
ENDROOT
BRANCH   2   5
ATOM      5  C   UNL     1       6.778   4.748  14.406  0.00  0.00    +0.000 A 
ATOM      6  C   UNL     1       5.961   3.714  13.924  0.00  0.00    +0.000 A 
ATOM      7  C   UNL     1       6.031   3.334  12.583  0.00  0.00    +0.000 A 
ATOM      8  C   UNL     1       6.915   3.980  11.722  0.00  0.00    +0.000 A 
ATOM      9  C   UNL     1       7.727   5.012  12.196  0.00  0.00    +0.000 A 
ATOM     10  C   UNL     1       7.664   5.395  13.537  0.00  0.00    +0.000 A 
ENDBRANCH   2   5
BRANCH   3  11
ATOM     11  N   UNL     1       6.712   4.324  18.093  0.00  0.00    +0.000 N 
ATOM     12  H   UNL     1       7.436   3.835  18.633  0.00  0.00    +0.000 HD
BRANCH  11  13
ATOM     13  C   UNL     1       5.420   4.176  18.652  0.00  0.00    +0.000 A 
ATOM     14  C   UNL     1       4.565   3.103  18.358  0.00  0.00    +0.000 A 
ATOM     15  C   UNL     1       3.247   3.074  18.825  0.00  0.00    +0.000 A 
ATOM     16  C   UNL     1       2.760   4.135  19.580  0.00  0.00    +0.000 A 
ATOM     17 BR   UNL     1       0.961   4.124  20.160  0.00  0.00    +0.000 Br
ATOM     18  C   UNL     1       3.586   5.211  19.889  0.00  0.00    +0.000 A 
ATOM     19  C   UNL     1       4.906   5.230  19.424  0.00  0.00    +0.000 A 
ENDBRANCH  11  13
ENDBRANCH   3  11
TORSDOF 3
ENDMDL
MODEL 7
REMARK VINA RESULT:      -7.0      3.900      6.751
REMARK  Name = 
REMARK  3 active torsions:
REMARK  status: ('A' for Active; 'I' for Inactive)
REMARK    1  A    between atoms: C_2  and  C_12
REMARK    2  A    between atoms: N_3  and  N_4
REMARK    3  A    between atoms: N_4  and  C_5
REMARK                            x       y       z     vdW  Elec       q    Type
REMARK                         _______ _______ _______ _____ _____    ______ ____
ROOT
ATOM      1  O   UNL     1       6.949   6.281  16.322  0.00  0.00    +0.000 OA
ATOM      2  C   UNL     1       6.890   5.117  15.935  0.00  0.00    +0.000 C 
ATOM      3  N   UNL     1       6.737   4.027  16.777  0.00  0.00    +0.000 N 
ATOM      4  H   UNL     1       6.270   3.196  16.428  0.00  0.00    +0.000 HD
ENDROOT
BRANCH   2   5
ATOM      5  C   UNL     1       6.982   4.777  14.488  0.00  0.00    +0.000 A 
ATOM      6  C   UNL     1       7.836   5.494  13.635  0.00  0.00    +0.000 A 
ATOM      7  C   UNL     1       7.869   5.202  12.271  0.00  0.00    +0.000 A 
ATOM      8  C   UNL     1       7.050   4.200  11.753  0.00  0.00    +0.000 A 
ATOM      9  C   UNL     1       6.202   3.482  12.598  0.00  0.00    +0.000 A 
ATOM     10  C   UNL     1       6.162   3.771  13.964  0.00  0.00    +0.000 A 
ENDBRANCH   2   5
BRANCH   3  11
ATOM     11  N   UNL     1       6.574   4.272  18.142  0.00  0.00    +0.000 N 
ATOM     12  H   UNL     1       7.200   3.697  18.720  0.00  0.00    +0.000 HD
BRANCH  11  13
ATOM     13  C   UNL     1       5.234   4.247  18.597  0.00  0.00    +0.000 A 
ATOM     14  C   UNL     1       4.440   5.396  18.737  0.00  0.00    +0.000 A 
ATOM     15  C   UNL     1       3.171   5.337  19.323  0.00  0.00    +0.000 A 
ATOM     16  C   UNL     1       2.687   4.122  19.797  0.00  0.00    +0.000 A 
ATOM     17 BR   UNL     1       0.999   4.052  20.642  0.00  0.00    +0.000 Br
ATOM     18  C   UNL     1       3.451   2.966  19.669  0.00  0.00    +0.000 A 
ATOM     19  C   UNL     1       4.718   3.032  19.075  0.00  0.00    +0.000 A 
ENDBRANCH  11  13
ENDBRANCH   3  11
TORSDOF 3
ENDMDL
MODEL 8
REMARK VINA RESULT:      -7.0      4.023      6.731
REMARK  Name = 
REMARK  3 active torsions:
REMARK  status: ('A' for Active; 'I' for Inactive)
REMARK    1  A    between atoms: C_2  and  C_12
REMARK    2  A    between atoms: N_3  and  N_4
REMARK    3  A    between atoms: N_4  and  C_5
REMARK                            x       y       z     vdW  Elec       q    Type
REMARK                         _______ _______ _______ _____ _____    ______ ____
ROOT
ATOM      1  O   UNL     1       7.807   4.804  16.808  0.00  0.00    +0.000 OA
ATOM      2  C   UNL     1       6.793   5.008  16.147  0.00  0.00    +0.000 C 
ATOM      3  N   UNL     1       5.623   5.538  16.666  0.00  0.00    +0.000 N 
ATOM      4  H   UNL     1       5.013   6.077  16.058  0.00  0.00    +0.000 HD
ENDROOT
BRANCH   2   5
ATOM      5  C   UNL     1       6.741   4.690  14.693  0.00  0.00    +0.000 A 
ATOM      6  C   UNL     1       5.814   3.762  14.194  0.00  0.00    +0.000 A 
ATOM      7  C   UNL     1       5.815   3.431  12.839  0.00  0.00    +0.000 A 
ATOM      8  C   UNL     1       6.739   4.021  11.979  0.00  0.00    +0.000 A 
ATOM      9  C   UNL     1       7.661   4.947  12.470  0.00  0.00    +0.000 A 
ATOM     10  C   UNL     1       7.667   5.280  13.826  0.00  0.00    +0.000 A 
ENDBRANCH   2   5
BRANCH   3  11
ATOM     11  N   UNL     1       5.619   5.927  18.008  0.00  0.00    +0.000 N 
ATOM     12  H   UNL     1       6.568   6.003  18.394  0.00  0.00    +0.000 HD
BRANCH  11  13
ATOM     13  C   UNL     1       4.746   5.187  18.842  0.00  0.00    +0.000 A 
ATOM     14  C   UNL     1       4.854   3.802  19.042  0.00  0.00    +0.000 A 
ATOM     15  C   UNL     1       3.885   3.094  19.762  0.00  0.00    +0.000 A 
ATOM     16  C   UNL     1       2.781   3.766  20.275  0.00  0.00    +0.000 A 
ATOM     17 BR   UNL     1       1.443   2.800  21.196  0.00  0.00    +0.000 Br
ATOM     18  C   UNL     1       2.650   5.139  20.095  0.00  0.00    +0.000 A 
ATOM     19  C   UNL     1       3.628   5.842  19.379  0.00  0.00    +0.000 A 
ENDBRANCH  11  13
ENDBRANCH   3  11
TORSDOF 3
ENDMDL
MODEL 9
REMARK VINA RESULT:      -6.9      3.863      6.663
REMARK  Name = 
REMARK  3 active torsions:
REMARK  status: ('A' for Active; 'I' for Inactive)
REMARK    1  A    between atoms: C_2  and  C_12
REMARK    2  A    between atoms: N_3  and  N_4
REMARK    3  A    between atoms: N_4  and  C_5
REMARK                            x       y       z     vdW  Elec       q    Type
REMARK                         _______ _______ _______ _____ _____    ______ ____
ROOT
ATOM      1  O   UNL     1       5.917   6.216  16.286  0.00  0.00    +0.000 OA
ATOM      2  C   UNL     1       6.379   5.131  15.944  0.00  0.00    +0.000 C 
ATOM      3  N   UNL     1       6.772   4.141  16.832  0.00  0.00    +0.000 N 
ATOM      4  H   UNL     1       6.721   3.170  16.542  0.00  0.00    +0.000 HD
ENDROOT
BRANCH   2   5
ATOM      5  C   UNL     1       6.560   4.784  14.507  0.00  0.00    +0.000 A 
ATOM      6  C   UNL     1       5.742   3.824  13.893  0.00  0.00    +0.000 A 
ATOM      7  C   UNL     1       5.960   3.467  12.562  0.00  0.00    +0.000 A 
ATOM      8  C   UNL     1       6.993   4.064  11.841  0.00  0.00    +0.000 A 
ATOM      9  C   UNL     1       7.807   5.023  12.447  0.00  0.00    +0.000 A 
ATOM     10  C   UNL     1       7.596   5.381  13.780  0.00  0.00    +0.000 A 
ENDBRANCH   2   5
BRANCH   3  11
ATOM     11  N   UNL     1       6.567   4.366  18.195  0.00  0.00    +0.000 N 
ATOM     12  H   UNL     1       7.178   3.784  18.783  0.00  0.00    +0.000 HD
BRANCH  11  13
ATOM     13  C   UNL     1       5.214   4.331  18.610  0.00  0.00    +0.000 A 
ATOM     14  C   UNL     1       4.619   5.328  19.399  0.00  0.00    +0.000 A 
ATOM     15  C   UNL     1       3.321   5.179  19.901  0.00  0.00    +0.000 A 
ATOM     16  C   UNL     1       2.608   4.016  19.633  0.00  0.00    +0.000 A 
ATOM     17 BR   UNL     1       0.878   3.790  20.360  0.00  0.00    +0.000 Br
ATOM     18  C   UNL     1       3.172   3.013  18.851  0.00  0.00    +0.000 A 
ATOM     19  C   UNL     1       4.469   3.171  18.347  0.00  0.00    +0.000 A 
ENDBRANCH  11  13
ENDBRANCH   3  11
TORSDOF 3
ENDMDL
