MODEL 1
REMARK VINA RESULT:      -7.9      0.000      0.000
REMARK  Name = 
REMARK  9 active torsions:
REMARK  status: ('A' for Active; 'I' for Inactive)
REMARK    1  A    between atoms: CG1_1  and  CB_2
REMARK    2  A    between atoms: CB_2  and  CG2_3
REMARK    3  A    between atoms: CB_2  and  CA_4
REMARK    4  A    between atoms: CA_4  and  N_5
REMARK    5  A    between atoms: CA_4  and  C_26
REMARK    6  A    between atoms: C_6  and  C_8
REMARK    7  A    between atoms: C_11  and  C_12
REMARK    8  A    between atoms: C_12  and  N_13
REMARK    9  A    between atoms: C_26  and  OXT_28
REMARK                            x       y       z     vdW  Elec       q    Type
REMARK                         _______ _______ _______ _____ _____    ______ ____
ROOT
ATOM      1  C   UNK A   0       2.432   7.388  19.487  0.00  0.00    +0.000 C 
ATOM      2  C   UNK A   0       1.809   8.139  18.309  0.00  0.00    +0.000 C 
ATOM      3  C   UNK A   0       1.541   9.596  18.722  0.00  0.00    +0.000 C 
ATOM      4  C   UNK A   0       0.693   9.722  20.009  0.00  0.00    +0.000 C 
ATOM      5  C   UNK A   0       1.170   8.768  21.123  0.00  0.00    +0.000 C 
ATOM      6  C   UNK A   0       1.411   7.349  20.623  0.00  0.00    +0.000 C 
ENDROOT
BRANCH   1   8
ATOM      7  N   VAL A   1       3.853   5.909  18.140  0.00  0.00    +0.000 N 
ATOM      8  C   UNK A   0       2.986   6.002  19.189  0.00  0.00    +0.000 C 
ATOM      9  O   UNK A   0       2.617   5.014  19.822  0.00  0.00    +0.000 OA
ATOM     10  H   VAL A   1       4.184   6.746  17.669  0.00  0.00    +0.000 HD
BRANCH   7  11
ATOM     11  CA  VAL A   1       4.352   4.625  17.636  0.00  0.00    +0.000 C 
BRANCH  11  13
ATOM     12  CG1 VAL A   1       5.941   3.704  15.844  0.00  0.00    +0.000 C 
ATOM     13  CB  VAL A   1       4.838   4.719  16.166  0.00  0.00    +0.000 C 
ATOM     14  CG2 VAL A   1       5.305   6.124  15.775  0.00  0.00    +0.000 C 
ENDBRANCH  11  13
BRANCH  11  15
ATOM     15  C   VAL A   1       5.449   4.192  18.614  0.00  0.00    +0.000 C 
ATOM     16  O   VAL A   1       6.479   4.829  18.802  0.00  0.00    +0.000 OA
BRANCH  15  17
ATOM     17  OXT VAL A   1       5.188   3.041  19.276  0.00  0.00    +0.000 OA
ATOM     18  HXT VAL A   1       4.443   3.101  19.909  0.00  0.00    +0.000 HD
ENDBRANCH  15  17
ENDBRANCH  11  15
ENDBRANCH   7  11
ENDBRANCH   1   8
BRANCH   4  19
ATOM     19  C   UNK A   0       0.698  11.157  20.579  0.00  0.00    +0.000 C 
BRANCH  19  20
ATOM     20  N   UNK A   0      -0.628  11.687  20.845  0.00  0.00    +0.000 N 
ATOM     21  N   UNK A   0      -1.329  12.113  19.754  0.00  0.00    +0.000 NA
ATOM     22  N   UNK A   0      -2.478  12.591  19.859  0.00  0.00    +0.000 NA
ATOM     23  C   UNK A   0      -3.095  12.646  21.113  0.00  0.00    +0.000 A 
ATOM     24  C   UNK A   0      -4.415  13.106  21.195  0.00  0.00    +0.000 A 
ATOM     25  C   UNK A   0      -5.081  13.154  22.423  0.00  0.00    +0.000 A 
ATOM     26  C   UNK A   0      -4.427  12.754  23.588  0.00  0.00    +0.000 A 
ATOM     27  C   UNK A   0      -3.109  12.306  23.522  0.00  0.00    +0.000 A 
ATOM     28  C   UNK A   0      -2.463  12.254  22.280  0.00  0.00    +0.000 A 
ATOM     29  C   UNK A   0      -1.098  11.755  22.143  0.00  0.00    +0.000 A 
ATOM     30  O   UNK A   0      -0.463  11.416  23.137  0.00  0.00    +0.000 OA
ENDBRANCH  19  20
ENDBRANCH   4  19
TORSDOF 7
ENDMDL
MODEL 2
REMARK VINA RESULT:      -7.9      3.120     10.453
REMARK  Name = 
REMARK  9 active torsions:
REMARK  status: ('A' for Active; 'I' for Inactive)
REMARK    1  A    between atoms: CG1_1  and  CB_2
REMARK    2  A    between atoms: CB_2  and  CG2_3
REMARK    3  A    between atoms: CB_2  and  CA_4
REMARK    4  A    between atoms: CA_4  and  N_5
REMARK    5  A    between atoms: CA_4  and  C_26
REMARK    6  A    between atoms: C_6  and  C_8
REMARK    7  A    between atoms: C_11  and  C_12
REMARK    8  A    between atoms: C_12  and  N_13
REMARK    9  A    between atoms: C_26  and  OXT_28
REMARK                            x       y       z     vdW  Elec       q    Type
REMARK                         _______ _______ _______ _____ _____    ______ ____
ROOT
ATOM      1  C   UNK A   0       2.230   7.788  19.569  0.00  0.00    +0.000 C 
ATOM      2  C   UNK A   0       1.968   6.322  19.921  0.00  0.00    +0.000 C 
ATOM      3  C   UNK A   0       3.260   5.513  19.714  0.00  0.00    +0.000 C 
ATOM      4  C   UNK A   0       3.865   5.676  18.300  0.00  0.00    +0.000 C 
ATOM      5  C   UNK A   0       3.893   7.147  17.838  0.00  0.00    +0.000 C 
ATOM      6  C   UNK A   0       2.574   7.868  18.083  0.00  0.00    +0.000 C 
ENDROOT
BRANCH   1   8
ATOM      7  N   VAL A   1       0.751   9.650  18.966  0.00  0.00    +0.000 N 
ATOM      8  C   UNK A   0       1.137   8.779  19.942  0.00  0.00    +0.000 C 
ATOM      9  O   UNK A   0       0.678   8.830  21.081  0.00  0.00    +0.000 OA
ATOM     10  H   VAL A   1       1.106   9.553  18.018  0.00  0.00    +0.000 HD
BRANCH   7  11
ATOM     11  CA  VAL A   1      -0.177  10.758  19.213  0.00  0.00    +0.000 C 
BRANCH  11  13
ATOM     12  CG1 VAL A   1       1.909  12.136  18.639  0.00  0.00    +0.000 C 
ATOM     13  CB  VAL A   1       0.553  12.118  19.353  0.00  0.00    +0.000 C 
ATOM     14  CG2 VAL A   1       0.736  12.557  20.809  0.00  0.00    +0.000 C 
ENDBRANCH  11  13
BRANCH  11  15
ATOM     15  C   VAL A   1      -1.185  10.723  18.060  0.00  0.00    +0.000 C 
ATOM     16  O   VAL A   1      -1.871   9.744  17.789  0.00  0.00    +0.000 OA
BRANCH  15  17
ATOM     17  OXT VAL A   1      -1.274  11.876  17.358  0.00  0.00    +0.000 OA
ATOM     18  HXT VAL A   1      -0.440  12.389  17.317  0.00  0.00    +0.000 HD
ENDBRANCH  15  17
ENDBRANCH  11  15
ENDBRANCH   7  11
ENDBRANCH   1   8
BRANCH   4  19
ATOM     19  C   UNK A   0       5.303   5.121  18.208  0.00  0.00    +0.000 C 
BRANCH  19  20
ATOM     20  N   UNK A   0       5.820   5.054  16.852  0.00  0.00    +0.000 N 
ATOM     21  N   UNK A   0       6.942   5.791  16.606  0.00  0.00    +0.000 NA
ATOM     22  N   UNK A   0       7.476   5.816  15.477  0.00  0.00    +0.000 NA
ATOM     23  C   UNK A   0       6.953   5.029  14.445  0.00  0.00    +0.000 A 
ATOM     24  C   UNK A   0       7.617   5.006  13.213  0.00  0.00    +0.000 A 
ATOM     25  C   UNK A   0       7.146   4.213  12.161  0.00  0.00    +0.000 A 
ATOM     26  C   UNK A   0       5.995   3.445  12.327  0.00  0.00    +0.000 A 
ATOM     27  C   UNK A   0       5.317   3.470  13.544  0.00  0.00    +0.000 A 
ATOM     28  C   UNK A   0       5.811   4.260  14.590  0.00  0.00    +0.000 A 
ATOM     29  C   UNK A   0       5.168   4.294  15.899  0.00  0.00    +0.000 A 
ATOM     30  O   UNK A   0       4.136   3.660  16.096  0.00  0.00    +0.000 OA
ENDBRANCH  19  20
ENDBRANCH   4  19
TORSDOF 7
ENDMDL
MODEL 3
REMARK VINA RESULT:      -7.8      1.767      2.552
REMARK  Name = 
REMARK  9 active torsions:
REMARK  status: ('A' for Active; 'I' for Inactive)
REMARK    1  A    between atoms: CG1_1  and  CB_2
REMARK    2  A    between atoms: CB_2  and  CG2_3
REMARK    3  A    between atoms: CB_2  and  CA_4
REMARK    4  A    between atoms: CA_4  and  N_5
REMARK    5  A    between atoms: CA_4  and  C_26
REMARK    6  A    between atoms: C_6  and  C_8
REMARK    7  A    between atoms: C_11  and  C_12
REMARK    8  A    between atoms: C_12  and  N_13
REMARK    9  A    between atoms: C_26  and  OXT_28
REMARK                            x       y       z     vdW  Elec       q    Type
REMARK                         _______ _______ _______ _____ _____    ______ ____
ROOT
ATOM      1  C   UNK A   0       2.477   7.439  19.224  0.00  0.00    +0.000 C 
ATOM      2  C   UNK A   0       1.770   8.283  18.162  0.00  0.00    +0.000 C 
ATOM      3  C   UNK A   0       1.497   9.686  18.729  0.00  0.00    +0.000 C 
ATOM      4  C   UNK A   0       0.723   9.666  20.068  0.00  0.00    +0.000 C 
ATOM      5  C   UNK A   0       1.284   8.623  21.055  0.00  0.00    +0.000 C 
ATOM      6  C   UNK A   0       1.524   7.265  20.406  0.00  0.00    +0.000 C 
ENDROOT
BRANCH   1   8
ATOM      7  N   VAL A   1       2.411   4.987  19.231  0.00  0.00    +0.000 N 
ATOM      8  C   UNK A   0       3.040   6.103  18.763  0.00  0.00    +0.000 C 
ATOM      9  O   UNK A   0       4.047   6.039  18.060  0.00  0.00    +0.000 OA
ATOM     10  H   VAL A   1       1.550   5.065  19.765  0.00  0.00    +0.000 HD
BRANCH   7  11
ATOM     11  CA  VAL A   1       2.925   3.632  19.000  0.00  0.00    +0.000 C 
BRANCH  11  13
ATOM     12  CG1 VAL A   1       2.354   3.527  21.500  0.00  0.00    +0.000 C 
ATOM     13  CB  VAL A   1       2.918   2.772  20.291  0.00  0.00    +0.000 C 
ATOM     14  CG2 VAL A   1       4.296   2.202  20.642  0.00  0.00    +0.000 C 
ENDBRANCH  11  13
BRANCH  11  15
ATOM     15  C   VAL A   1       2.066   3.047  17.875  0.00  0.00    +0.000 C 
ATOM     16  O   VAL A   1       1.303   3.716  17.188  0.00  0.00    +0.000 OA
BRANCH  15  17
ATOM     17  OXT VAL A   1       2.226   1.717  17.681  0.00  0.00    +0.000 OA
ATOM     18  HXT VAL A   1       3.123   1.384  17.891  0.00  0.00    +0.000 HD
ENDBRANCH  15  17
ENDBRANCH  11  15
ENDBRANCH   7  11
ENDBRANCH   1   8
BRANCH   4  19
ATOM     19  C   UNK A   0       0.732  11.040  20.773  0.00  0.00    +0.000 C 
BRANCH  19  20
ATOM     20  N   UNK A   0      -0.593  11.597  20.988  0.00  0.00    +0.000 N 
ATOM     21  N   UNK A   0      -1.249  12.020  19.868  0.00  0.00    +0.000 NA
ATOM     22  N   UNK A   0      -2.392  12.521  19.929  0.00  0.00    +0.000 NA
ATOM     23  C   UNK A   0      -3.049  12.604  21.161  0.00  0.00    +0.000 A 
ATOM     24  C   UNK A   0      -4.362  13.088  21.193  0.00  0.00    +0.000 A 
ATOM     25  C   UNK A   0      -5.067  13.164  22.398  0.00  0.00    +0.000 A 
ATOM     26  C   UNK A   0      -4.459  12.768  23.589  0.00  0.00    +0.000 A 
ATOM     27  C   UNK A   0      -3.148  12.296  23.573  0.00  0.00    +0.000 A 
ATOM     28  C   UNK A   0      -2.463  12.216  22.354  0.00  0.00    +0.000 A 
ATOM     29  C   UNK A   0      -1.104  11.691  22.268  0.00  0.00    +0.000 A 
ATOM     30  O   UNK A   0      -0.508  11.353  23.287  0.00  0.00    +0.000 OA
ENDBRANCH  19  20
ENDBRANCH   4  19
TORSDOF 7
ENDMDL
MODEL 4
REMARK VINA RESULT:      -7.8      2.021      2.993
REMARK  Name = 
REMARK  9 active torsions:
REMARK  status: ('A' for Active; 'I' for Inactive)
REMARK    1  A    between atoms: CG1_1  and  CB_2
REMARK    2  A    between atoms: CB_2  and  CG2_3
REMARK    3  A    between atoms: CB_2  and  CA_4
REMARK    4  A    between atoms: CA_4  and  N_5
REMARK    5  A    between atoms: CA_4  and  C_26
REMARK    6  A    between atoms: C_6  and  C_8
REMARK    7  A    between atoms: C_11  and  C_12
REMARK    8  A    between atoms: C_12  and  N_13
REMARK    9  A    between atoms: C_26  and  OXT_28
REMARK                            x       y       z     vdW  Elec       q    Type
REMARK                         _______ _______ _______ _____ _____    ______ ____
ROOT
ATOM      1  C   UNK A   0       2.808   7.369  19.132  0.00  0.00    +0.000 C 
ATOM      2  C   UNK A   0       2.163   7.941  17.868  0.00  0.00    +0.000 C 
ATOM      3  C   UNK A   0       1.831   9.425  18.096  0.00  0.00    +0.000 C 
ATOM      4  C   UNK A   0       0.968   9.673  19.355  0.00  0.00    +0.000 C 
ATOM      5  C   UNK A   0       1.475   8.886  20.580  0.00  0.00    +0.000 C 
ATOM      6  C   UNK A   0       1.779   7.428  20.260  0.00  0.00    +0.000 C 
ENDROOT
BRANCH   1   8
ATOM      7  N   VAL A   1       2.579   4.928  19.211  0.00  0.00    +0.000 N 
ATOM      8  C   UNK A   0       3.422   5.982  19.010  0.00  0.00    +0.000 C 
ATOM      9  O   UNK A   0       4.624   5.828  18.808  0.00  0.00    +0.000 OA
ATOM     10  H   VAL A   1       1.580   5.079  19.323  0.00  0.00    +0.000 HD
BRANCH   7  11
ATOM     11  CA  VAL A   1       3.049   3.540  19.278  0.00  0.00    +0.000 C 
BRANCH  11  13
ATOM     12  CG1 VAL A   1       0.631   3.058  19.989  0.00  0.00    +0.000 C 
ATOM     13  CB  VAL A   1       2.099   2.636  20.106  0.00  0.00    +0.000 C 
ATOM     14  CG2 VAL A   1       2.490   2.548  21.585  0.00  0.00    +0.000 C 
ENDBRANCH  11  13
BRANCH  11  15
ATOM     15  C   VAL A   1       3.209   3.084  17.824  0.00  0.00    +0.000 C 
ATOM     16  O   VAL A   1       2.263   2.829  17.086  0.00  0.00    +0.000 OA
BRANCH  15  17
ATOM     17  OXT VAL A   1       4.491   2.995  17.402  0.00  0.00    +0.000 OA
ATOM     18  HXT VAL A   1       5.077   2.484  17.998  0.00  0.00    +0.000 HD
ENDBRANCH  15  17
ENDBRANCH  11  15
ENDBRANCH   7  11
ENDBRANCH   1   8
BRANCH   4  19
ATOM     19  C   UNK A   0       0.907  11.167  19.742  0.00  0.00    +0.000 C 
BRANCH  19  20
ATOM     20  N   UNK A   0      -0.156  11.488  20.678  0.00  0.00    +0.000 N 
ATOM     21  N   UNK A   0       0.154  11.348  22.000  0.00  0.00    +0.000 NA
ATOM     22  N   UNK A   0      -0.681  11.591  22.898  0.00  0.00    +0.000 NA
ATOM     23  C   UNK A   0      -1.949  12.072  22.555  0.00  0.00    +0.000 A 
ATOM     24  C   UNK A   0      -2.838  12.419  23.579  0.00  0.00    +0.000 A 
ATOM     25  C   UNK A   0      -4.106  12.928  23.284  0.00  0.00    +0.000 A 
ATOM     26  C   UNK A   0      -4.504  13.083  21.957  0.00  0.00    +0.000 A 
ATOM     27  C   UNK A   0      -3.634  12.728  20.928  0.00  0.00    +0.000 A 
ATOM     28  C   UNK A   0      -2.364  12.232  21.244  0.00  0.00    +0.000 A 
ATOM     29  C   UNK A   0      -1.394  11.884  20.210  0.00  0.00    +0.000 A 
ATOM     30  O   UNK A   0      -1.699  11.973  19.024  0.00  0.00    +0.000 OA
ENDBRANCH  19  20
ENDBRANCH   4  19
TORSDOF 7
ENDMDL
MODEL 5
REMARK VINA RESULT:      -7.8      1.326      1.766
REMARK  Name = 
REMARK  9 active torsions:
REMARK  status: ('A' for Active; 'I' for Inactive)
REMARK    1  A    between atoms: CG1_1  and  CB_2
REMARK    2  A    between atoms: CB_2  and  CG2_3
REMARK    3  A    between atoms: CB_2  and  CA_4
REMARK    4  A    between atoms: CA_4  and  N_5
REMARK    5  A    between atoms: CA_4  and  C_26
REMARK    6  A    between atoms: C_6  and  C_8
REMARK    7  A    between atoms: C_11  and  C_12
REMARK    8  A    between atoms: C_12  and  N_13
REMARK    9  A    between atoms: C_26  and  OXT_28
REMARK                            x       y       z     vdW  Elec       q    Type
REMARK                         _______ _______ _______ _____ _____    ______ ____
ROOT
ATOM      1  C   UNK A   0       2.486   7.654  18.777  0.00  0.00    +0.000 C 
ATOM      2  C   UNK A   0       1.679   8.529  17.818  0.00  0.00    +0.000 C 
ATOM      3  C   UNK A   0       1.453   9.909  18.460  0.00  0.00    +0.000 C 
ATOM      4  C   UNK A   0       0.809   9.833  19.863  0.00  0.00    +0.000 C 
ATOM      5  C   UNK A   0       1.465   8.759  20.754  0.00  0.00    +0.000 C 
ATOM      6  C   UNK A   0       1.649   7.429  20.036  0.00  0.00    +0.000 C 
ENDROOT
BRANCH   1   8
ATOM      7  N   VAL A   1       4.342   6.294  17.924  0.00  0.00    +0.000 N 
ATOM      8  C   UNK A   0       3.010   6.340  18.216  0.00  0.00    +0.000 C 
ATOM      9  O   UNK A   0       2.257   5.397  17.980  0.00  0.00    +0.000 OA
ATOM     10  H   VAL A   1       4.952   7.067  18.179  0.00  0.00    +0.000 HD
BRANCH   7  11
ATOM     11  CA  VAL A   1       4.965   5.157  17.240  0.00  0.00    +0.000 C 
BRANCH  11  13
ATOM     12  CG1 VAL A   1       7.066   4.381  15.987  0.00  0.00    +0.000 C 
ATOM     13  CB  VAL A   1       6.206   5.577  16.410  0.00  0.00    +0.000 C 
ATOM     14  CG2 VAL A   1       7.084   6.612  17.122  0.00  0.00    +0.000 C 
ENDBRANCH  11  13
BRANCH  11  15
ATOM     15  C   VAL A   1       5.282   4.134  18.335  0.00  0.00    +0.000 C 
ATOM     16  O   VAL A   1       5.959   4.390  19.325  0.00  0.00    +0.000 OA
BRANCH  15  17
ATOM     17  OXT VAL A   1       4.741   2.911  18.134  0.00  0.00    +0.000 OA
ATOM     18  HXT VAL A   1       3.780   2.922  17.942  0.00  0.00    +0.000 HD
ENDBRANCH  15  17
ENDBRANCH  11  15
ENDBRANCH   7  11
ENDBRANCH   1   8
BRANCH   4  19
ATOM     19  C   UNK A   0       0.877  11.181  20.615  0.00  0.00    +0.000 C 
BRANCH  19  20
ATOM     20  N   UNK A   0      -0.324  11.491  21.372  0.00  0.00    +0.000 N 
ATOM     21  N   UNK A   0      -0.289  11.173  22.699  0.00  0.00    +0.000 NA
ATOM     22  N   UNK A   0      -1.264  11.389  23.450  0.00  0.00    +0.000 NA
ATOM     23  C   UNK A   0      -2.403  12.024  22.944  0.00  0.00    +0.000 A 
ATOM     24  C   UNK A   0      -3.448  12.333  23.822  0.00  0.00    +0.000 A 
ATOM     25  C   UNK A   0      -4.595  12.991  23.365  0.00  0.00    +0.000 A 
ATOM     26  C   UNK A   0      -4.714  13.334  22.019  0.00  0.00    +0.000 A 
ATOM     27  C   UNK A   0      -3.687  13.019  21.132  0.00  0.00    +0.000 A 
ATOM     28  C   UNK A   0      -2.541  12.372  21.611  0.00  0.00    +0.000 A 
ATOM     29  C   UNK A   0      -1.415  12.054  20.738  0.00  0.00    +0.000 A 
ATOM     30  O   UNK A   0      -1.474  12.307  19.538  0.00  0.00    +0.000 OA
ENDBRANCH  19  20
ENDBRANCH   4  19
TORSDOF 7
ENDMDL
MODEL 6
REMARK VINA RESULT:      -7.8      1.125      1.830
REMARK  Name = 
REMARK  9 active torsions:
REMARK  status: ('A' for Active; 'I' for Inactive)
REMARK    1  A    between atoms: CG1_1  and  CB_2
REMARK    2  A    between atoms: CB_2  and  CG2_3
REMARK    3  A    between atoms: CB_2  and  CA_4
REMARK    4  A    between atoms: CA_4  and  N_5
REMARK    5  A    between atoms: CA_4  and  C_26
REMARK    6  A    between atoms: C_6  and  C_8
REMARK    7  A    between atoms: C_11  and  C_12
REMARK    8  A    between atoms: C_12  and  N_13
REMARK    9  A    between atoms: C_26  and  OXT_28
REMARK                            x       y       z     vdW  Elec       q    Type
REMARK                         _______ _______ _______ _____ _____    ______ ____
ROOT
ATOM      1  C   UNK A   0       2.399   7.493  19.094  0.00  0.00    +0.000 C 
ATOM      2  C   UNK A   0       1.753   8.321  17.983  0.00  0.00    +0.000 C 
ATOM      3  C   UNK A   0       1.534   9.759  18.484  0.00  0.00    +0.000 C 
ATOM      4  C   UNK A   0       0.735   9.831  19.806  0.00  0.00    +0.000 C 
ATOM      5  C   UNK A   0       1.228   8.807  20.848  0.00  0.00    +0.000 C 
ATOM      6  C   UNK A   0       1.418   7.413  20.262  0.00  0.00    +0.000 C 
ENDROOT
BRANCH   1   8
ATOM      7  N   VAL A   1       4.197   6.049  18.256  0.00  0.00    +0.000 N 
ATOM      8  C   UNK A   0       2.909   6.114  18.701  0.00  0.00    +0.000 C 
ATOM      9  O   UNK A   0       2.175   5.128  18.724  0.00  0.00    +0.000 OA
ATOM     10  H   VAL A   1       4.799   6.867  18.298  0.00  0.00    +0.000 HD
BRANCH   7  11
ATOM     11  CA  VAL A   1       4.783   4.824  17.701  0.00  0.00    +0.000 C 
BRANCH  11  13
ATOM     12  CG1 VAL A   1       5.187   6.296  15.637  0.00  0.00    +0.000 C 
ATOM     13  CB  VAL A   1       5.683   5.108  16.470  0.00  0.00    +0.000 C 
ATOM     14  CG2 VAL A   1       5.864   3.887  15.562  0.00  0.00    +0.000 C 
ENDBRANCH  11  13
BRANCH  11  15
ATOM     15  C   VAL A   1       5.529   4.156  18.860  0.00  0.00    +0.000 C 
ATOM     16  O   VAL A   1       5.131   3.146  19.429  0.00  0.00    +0.000 OA
BRANCH  15  17
ATOM     17  OXT VAL A   1       6.687   4.765  19.206  0.00  0.00    +0.000 OA
ATOM     18  HXT VAL A   1       7.374   4.158  19.552  0.00  0.00    +0.000 HD
ENDBRANCH  15  17
ENDBRANCH  11  15
ENDBRANCH   7  11
ENDBRANCH   1   8
BRANCH   4  19
ATOM     19  C   UNK A   0       0.794  11.232  20.453  0.00  0.00    +0.000 C 
BRANCH  19  20
ATOM     20  N   UNK A   0      -0.376  11.560  21.249  0.00  0.00    +0.000 N 
ATOM     21  N   UNK A   0      -0.269  11.325  22.589  0.00  0.00    +0.000 NA
ATOM     22  N   UNK A   0      -1.211  11.564  23.374  0.00  0.00    +0.000 NA
ATOM     23  C   UNK A   0      -2.391  12.138  22.889  0.00  0.00    +0.000 A 
ATOM     24  C   UNK A   0      -3.399  12.476  23.798  0.00  0.00    +0.000 A 
ATOM     25  C   UNK A   0      -4.584  13.077  23.361  0.00  0.00    +0.000 A 
ATOM     26  C   UNK A   0      -4.778  13.334  22.004  0.00  0.00    +0.000 A 
ATOM     27  C   UNK A   0      -3.787  12.989  21.087  0.00  0.00    +0.000 A 
ATOM     28  C   UNK A   0      -2.602  12.400  21.545  0.00  0.00    +0.000 A 
ATOM     29  C   UNK A   0      -1.512  12.057  20.638  0.00  0.00    +0.000 A 
ATOM     30  O   UNK A   0      -1.637  12.233  19.430  0.00  0.00    +0.000 OA
ENDBRANCH  19  20
ENDBRANCH   4  19
TORSDOF 7
ENDMDL
MODEL 7
REMARK VINA RESULT:      -7.8      2.480     10.585
REMARK  Name = 
REMARK  9 active torsions:
REMARK  status: ('A' for Active; 'I' for Inactive)
REMARK    1  A    between atoms: CG1_1  and  CB_2
REMARK    2  A    between atoms: CB_2  and  CG2_3
REMARK    3  A    between atoms: CB_2  and  CA_4
REMARK    4  A    between atoms: CA_4  and  N_5
REMARK    5  A    between atoms: CA_4  and  C_26
REMARK    6  A    between atoms: C_6  and  C_8
REMARK    7  A    between atoms: C_11  and  C_12
REMARK    8  A    between atoms: C_12  and  N_13
REMARK    9  A    between atoms: C_26  and  OXT_28
REMARK                            x       y       z     vdW  Elec       q    Type
REMARK                         _______ _______ _______ _____ _____    ______ ____
ROOT
ATOM      1  C   UNK A   0       2.202   8.262  19.196  0.00  0.00    +0.000 C 
ATOM      2  C   UNK A   0       1.902   6.895  19.813  0.00  0.00    +0.000 C 
ATOM      3  C   UNK A   0       3.160   6.014  19.728  0.00  0.00    +0.000 C 
ATOM      4  C   UNK A   0       3.729   5.896  18.294  0.00  0.00    +0.000 C 
ATOM      5  C   UNK A   0       3.793   7.258  17.574  0.00  0.00    +0.000 C 
ATOM      6  C   UNK A   0       2.506   8.060  17.712  0.00  0.00    +0.000 C 
ENDROOT
BRANCH   1   8
ATOM      7  N   VAL A   1       1.081   9.882  20.659  0.00  0.00    +0.000 N 
ATOM      8  C   UNK A   0       1.153   9.344  19.407  0.00  0.00    +0.000 C 
ATOM      9  O   UNK A   0       0.373   9.664  18.512  0.00  0.00    +0.000 OA
ATOM     10  H   VAL A   1       1.771   9.640  21.365  0.00  0.00    +0.000 HD
BRANCH   7  11
ATOM     11  CA  VAL A   1       0.028  10.821  21.058  0.00  0.00    +0.000 C 
BRANCH  11  13
ATOM     12  CG1 VAL A   1      -0.428   9.259  23.042  0.00  0.00    +0.000 C 
ATOM     13  CB  VAL A   1      -0.318  10.712  22.566  0.00  0.00    +0.000 C 
ATOM     14  CG2 VAL A   1      -1.591  11.473  22.949  0.00  0.00    +0.000 C 
ENDBRANCH  11  13
BRANCH  11  15
ATOM     15  C   VAL A   1       0.530  12.209  20.648  0.00  0.00    +0.000 C 
ATOM     16  O   VAL A   1      -0.066  12.941  19.866  0.00  0.00    +0.000 OA
BRANCH  15  17
ATOM     17  OXT VAL A   1       1.692  12.581  21.233  0.00  0.00    +0.000 OA
ATOM     18  HXT VAL A   1       2.118  11.878  21.766  0.00  0.00    +0.000 HD
ENDBRANCH  15  17
ENDBRANCH  11  15
ENDBRANCH   7  11
ENDBRANCH   1   8
BRANCH   4  19
ATOM     19  C   UNK A   0       5.145   5.281  18.273  0.00  0.00    +0.000 C 
BRANCH  19  20
ATOM     20  N   UNK A   0       5.724   5.186  16.943  0.00  0.00    +0.000 N 
ATOM     21  N   UNK A   0       6.861   5.911  16.736  0.00  0.00    +0.000 NA
ATOM     22  N   UNK A   0       7.445   5.912  15.632  0.00  0.00    +0.000 NA
ATOM     23  C   UNK A   0       6.965   5.110  14.591  0.00  0.00    +0.000 A 
ATOM     24  C   UNK A   0       7.684   5.060  13.392  0.00  0.00    +0.000 A 
ATOM     25  C   UNK A   0       7.256   4.252  12.334  0.00  0.00    +0.000 A 
ATOM     26  C   UNK A   0       6.093   3.494  12.461  0.00  0.00    +0.000 A 
ATOM     27  C   UNK A   0       5.360   3.545  13.645  0.00  0.00    +0.000 A 
ATOM     28  C   UNK A   0       5.812   4.350  14.698  0.00  0.00    +0.000 A 
ATOM     29  C   UNK A   0       5.111   4.412  15.976  0.00  0.00    +0.000 A 
ATOM     30  O   UNK A   0       4.065   3.789  16.136  0.00  0.00    +0.000 OA
ENDBRANCH  19  20
ENDBRANCH   4  19
TORSDOF 7
ENDMDL
MODEL 8
REMARK VINA RESULT:      -7.7      2.048      3.040
REMARK  Name = 
REMARK  9 active torsions:
REMARK  status: ('A' for Active; 'I' for Inactive)
REMARK    1  A    between atoms: CG1_1  and  CB_2
REMARK    2  A    between atoms: CB_2  and  CG2_3
REMARK    3  A    between atoms: CB_2  and  CA_4
REMARK    4  A    between atoms: CA_4  and  N_5
REMARK    5  A    between atoms: CA_4  and  C_26
REMARK    6  A    between atoms: C_6  and  C_8
REMARK    7  A    between atoms: C_11  and  C_12
REMARK    8  A    between atoms: C_12  and  N_13
REMARK    9  A    between atoms: C_26  and  OXT_28
REMARK                            x       y       z     vdW  Elec       q    Type
REMARK                         _______ _______ _______ _____ _____    ______ ____
ROOT
ATOM      1  C   UNK A   0       2.579   7.345  19.231  0.00  0.00    +0.000 C 
ATOM      2  C   UNK A   0       1.835   8.090  18.122  0.00  0.00    +0.000 C 
ATOM      3  C   UNK A   0       1.577   9.539  18.569  0.00  0.00    +0.000 C 
ATOM      4  C   UNK A   0       0.850   9.640  19.930  0.00  0.00    +0.000 C 
ATOM      5  C   UNK A   0       1.446   8.690  20.987  0.00  0.00    +0.000 C 
ATOM      6  C   UNK A   0       1.667   7.279  20.456  0.00  0.00    +0.000 C 
ENDROOT
BRANCH   1   8
ATOM      7  N   VAL A   1       2.379   4.900  19.259  0.00  0.00    +0.000 N 
ATOM      8  C   UNK A   0       3.129   5.972  18.874  0.00  0.00    +0.000 C 
ATOM      9  O   UNK A   0       4.222   5.843  18.326  0.00  0.00    +0.000 OA
ATOM     10  H   VAL A   1       1.455   5.035  19.661  0.00  0.00    +0.000 HD
BRANCH   7  11
ATOM     11  CA  VAL A   1       2.846   3.517  19.122  0.00  0.00    +0.000 C 
BRANCH  11  13
ATOM     12  CG1 VAL A   1       2.225   3.586  21.612  0.00  0.00    +0.000 C 
ATOM     13  CB  VAL A   1       2.800   2.744  20.466  0.00  0.00    +0.000 C 
ATOM     14  CG2 VAL A   1       4.161   2.177  20.882  0.00  0.00    +0.000 C 
ENDBRANCH  11  13
BRANCH  11  15
ATOM     15  C   VAL A   1       1.975   2.889  18.029  0.00  0.00    +0.000 C 
ATOM     16  O   VAL A   1       1.845   3.368  16.908  0.00  0.00    +0.000 OA
BRANCH  15  17
ATOM     17  OXT VAL A   1       1.360   1.740  18.393  0.00  0.00    +0.000 OA
ATOM     18  HXT VAL A   1       1.953   1.080  18.810  0.00  0.00    +0.000 HD
ENDBRANCH  15  17
ENDBRANCH  11  15
ENDBRANCH   7  11
ENDBRANCH   1   8
BRANCH   4  19
ATOM     19  C   UNK A   0       0.879  11.072  20.507  0.00  0.00    +0.000 C 
BRANCH  19  20
ATOM     20  N   UNK A   0      -0.306  11.421  21.271  0.00  0.00    +0.000 N 
ATOM     21  N   UNK A   0      -0.243  11.178  22.612  0.00  0.00    +0.000 NA
ATOM     22  N   UNK A   0      -1.203  11.433  23.370  0.00  0.00    +0.000 NA
ATOM     23  C   UNK A   0      -2.355  12.035  22.854  0.00  0.00    +0.000 A 
ATOM     24  C   UNK A   0      -3.383  12.390  23.735  0.00  0.00    +0.000 A 
ATOM     25  C   UNK A   0      -4.541  13.017  23.267  0.00  0.00    +0.000 A 
ATOM     26  C   UNK A   0      -4.690  13.284  21.907  0.00  0.00    +0.000 A 
ATOM     27  C   UNK A   0      -3.680  12.923  21.017  0.00  0.00    +0.000 A 
ATOM     28  C   UNK A   0      -2.522  12.307  21.506  0.00  0.00    +0.000 A 
ATOM     29  C   UNK A   0      -1.413  11.945  20.630  0.00  0.00    +0.000 A 
ATOM     30  O   UNK A   0      -1.498  12.130  19.419  0.00  0.00    +0.000 OA
ENDBRANCH  19  20
ENDBRANCH   4  19
TORSDOF 7
ENDMDL
MODEL 9
REMARK VINA RESULT:      -7.6      2.924      3.555
REMARK  Name = 
REMARK  9 active torsions:
REMARK  status: ('A' for Active; 'I' for Inactive)
REMARK    1  A    between atoms: CG1_1  and  CB_2
REMARK    2  A    between atoms: CB_2  and  CG2_3
REMARK    3  A    between atoms: CB_2  and  CA_4
REMARK    4  A    between atoms: CA_4  and  N_5
REMARK    5  A    between atoms: CA_4  and  C_26
REMARK    6  A    between atoms: C_6  and  C_8
REMARK    7  A    between atoms: C_11  and  C_12
REMARK    8  A    between atoms: C_12  and  N_13
REMARK    9  A    between atoms: C_26  and  OXT_28
REMARK                            x       y       z     vdW  Elec       q    Type
REMARK                         _______ _______ _______ _____ _____    ______ ____
ROOT
ATOM      1  C   UNK A   0       2.739   6.113  18.599  0.00  0.00    +0.000 C 
ATOM      2  C   UNK A   0       2.662   6.013  20.123  0.00  0.00    +0.000 C 
ATOM      3  C   UNK A   0       1.498   6.882  20.630  0.00  0.00    +0.000 C 
ATOM      4  C   UNK A   0       1.573   8.349  20.144  0.00  0.00    +0.000 C 
ATOM      5  C   UNK A   0       1.907   8.454  18.642  0.00  0.00    +0.000 C 
ATOM      6  C   UNK A   0       3.070   7.559  18.232  0.00  0.00    +0.000 C 
ENDROOT
BRANCH   1   8
ATOM      7  N   VAL A   1       4.979   5.518  17.793  0.00  0.00    +0.000 N 
ATOM      8  C   UNK A   0       3.674   5.135  17.903  0.00  0.00    +0.000 C 
ATOM      9  O   UNK A   0       3.257   4.088  17.411  0.00  0.00    +0.000 OA
ATOM     10  H   VAL A   1       5.309   6.362  18.255  0.00  0.00    +0.000 HD
BRANCH   7  11
ATOM     11  CA  VAL A   1       5.966   4.758  17.020  0.00  0.00    +0.000 C 
BRANCH  11  13
ATOM     12  CG1 VAL A   1       5.306   6.558  15.314  0.00  0.00    +0.000 C 
ATOM     13  CB  VAL A   1       6.074   5.253  15.554  0.00  0.00    +0.000 C 
ATOM     14  CG2 VAL A   1       5.633   4.204  14.529  0.00  0.00    +0.000 C 
ENDBRANCH  11  13
BRANCH  11  15
ATOM     15  C   VAL A   1       7.280   4.869  17.798  0.00  0.00    +0.000 C 
ATOM     16  O   VAL A   1       7.455   5.653  18.724  0.00  0.00    +0.000 OA
BRANCH  15  17
ATOM     17  OXT VAL A   1       8.247   4.013  17.392  0.00  0.00    +0.000 OA
ATOM     18  HXT VAL A   1       8.381   3.245  17.985  0.00  0.00    +0.000 HD
ENDBRANCH  15  17
ENDBRANCH  11  15
ENDBRANCH   7  11
ENDBRANCH   1   8
BRANCH   4  19
ATOM     19  C   UNK A   0       0.257   9.118  20.392  0.00  0.00    +0.000 C 
BRANCH  19  20
ATOM     20  N   UNK A   0       0.405  10.563  20.345  0.00  0.00    +0.000 N 
ATOM     21  N   UNK A   0       1.137  11.120  21.353  0.00  0.00    +0.000 NA
ATOM     22  N   UNK A   0       1.329  12.352  21.421  0.00  0.00    +0.000 NA
ATOM     23  C   UNK A   0       0.834  13.188  20.414  0.00  0.00    +0.000 A 
ATOM     24  C   UNK A   0       1.133  14.554  20.464  0.00  0.00    +0.000 A 
ATOM     25  C   UNK A   0       0.682  15.423  19.466  0.00  0.00    +0.000 A 
ATOM     26  C   UNK A   0      -0.088  14.934  18.411  0.00  0.00    +0.000 A 
ATOM     27  C   UNK A   0      -0.405  13.578  18.357  0.00  0.00    +0.000 A 
ATOM     28  C   UNK A   0       0.067  12.722  19.359  0.00  0.00    +0.000 A 
ATOM     29  C   UNK A   0      -0.196  11.287  19.333  0.00  0.00    +0.000 A 
ATOM     30  O   UNK A   0      -0.892  10.804  18.445  0.00  0.00    +0.000 OA
ENDBRANCH  19  20
ENDBRANCH   4  19
TORSDOF 7
ENDMDL
