MODEL 1
REMARK VINA RESULT:      -8.0      0.000      0.000
REMARK  Name = 
REMARK  2 active torsions:
REMARK  status: ('A' for Active; 'I' for Inactive)
REMARK    1  A    between atoms: C_2  and  C_16
REMARK    2  A    between atoms: N_6  and  C_7
REMARK                            x       y       z     vdW  Elec       q    Type
REMARK                         _______ _______ _______ _____ _____    ______ ____
ROOT
ATOM      1  O   UNL     1       1.424   5.725  21.244  0.00  0.00    +0.000 OA
ATOM      2  C   UNL     1       1.968   6.057  20.179  0.00  0.00    +0.000 C 
ATOM      3  N   UNL     1       1.996   7.394  19.816  0.00  0.00    +0.000 N 
ATOM      4  C   UNL     1       2.519   8.005  18.583  0.00  0.00    +0.000 C 
ATOM      5  C   UNL     1       1.451   8.877  17.906  0.00  0.00    +0.000 C 
ATOM      6  N   UNL     1       0.908   9.868  18.846  0.00  0.00    +0.000 N 
ATOM      7  C   UNL     1       0.431   9.323  20.131  0.00  0.00    +0.000 C 
ATOM      8  C   UNL     1       1.483   8.391  20.767  0.00  0.00    +0.000 C 
ENDROOT
BRANCH   2   9
ATOM      9  C   UNL     1       2.613   4.963  19.294  0.00  0.00    +0.000 C 
ATOM     10  C   UNL     1       2.365   3.568  19.963  0.00  0.00    +0.000 C 
ATOM     11  C   UNL     1       3.020   2.431  19.158  0.00  0.00    +0.000 C 
ATOM     12  C   UNL     1       2.427   2.406  17.742  0.00  0.00    +0.000 C 
ATOM     13  C   UNL     1       2.658   3.761  17.058  0.00  0.00    +0.000 C 
ATOM     14  C   UNL     1       4.170   4.034  16.976  0.00  0.00    +0.000 C 
ATOM     15  C   UNL     1       4.792   4.032  18.383  0.00  0.00    +0.000 C 
ATOM     16  C   UNL     1       4.532   2.685  19.068  0.00  0.00    +0.000 C 
ATOM     17  C   UNL     1       4.150   5.146  19.219  0.00  0.00    +0.000 C 
ATOM     18  C   UNL     1       1.978   4.868  17.885  0.00  0.00    +0.000 C 
ENDBRANCH   2   9
BRANCH   6  19
ATOM     19  C   UNL     1       1.101  11.229  18.677  0.00  0.00    +0.000 A 
ATOM     20  C   UNL     1       2.367  11.714  18.302  0.00  0.00    +0.000 A 
ATOM     21  C   UNL     1       2.622  13.080  18.138  0.00  0.00    +0.000 A 
ATOM     22  C   UNL     1       1.610  14.009  18.348  0.00  0.00    +0.000 A 
ATOM     23  C   UNL     1       0.347  13.569  18.727  0.00  0.00    +0.000 A 
ATOM     24  C   UNL     1       0.103  12.202  18.886  0.00  0.00    +0.000 A 
ATOM     25  F   UNL     1      -1.147  11.839  19.211  0.00  0.00    +0.000 F 
ENDBRANCH   6  19
TORSDOF 2
ENDMDL
MODEL 2
REMARK VINA RESULT:      -7.6      0.101      1.482
REMARK  Name = 
REMARK  2 active torsions:
REMARK  status: ('A' for Active; 'I' for Inactive)
REMARK    1  A    between atoms: C_2  and  C_16
REMARK    2  A    between atoms: N_6  and  C_7
REMARK                            x       y       z     vdW  Elec       q    Type
REMARK                         _______ _______ _______ _____ _____    ______ ____
ROOT
ATOM      1  O   UNL     1       1.435   5.738  21.277  0.00  0.00    +0.000 OA
ATOM      2  C   UNL     1       2.007   6.070  20.227  0.00  0.00    +0.000 C 
ATOM      3  N   UNL     1       2.025   7.404  19.852  0.00  0.00    +0.000 N 
ATOM      4  C   UNL     1       2.577   8.013  18.632  0.00  0.00    +0.000 C 
ATOM      5  C   UNL     1       1.517   8.861  17.913  0.00  0.00    +0.000 C 
ATOM      6  N   UNL     1       0.928   9.851  18.825  0.00  0.00    +0.000 N 
ATOM      7  C   UNL     1       0.418   9.309  20.100  0.00  0.00    +0.000 C 
ATOM      8  C   UNL     1       1.464   8.401  20.777  0.00  0.00    +0.000 C 
ENDROOT
BRANCH   2   9
ATOM      9  C   UNL     1       2.699   4.979  19.373  0.00  0.00    +0.000 C 
ATOM     10  C   UNL     1       2.009   4.934  17.967  0.00  0.00    +0.000 C 
ATOM     11  C   UNL     1       2.617   3.837  17.075  0.00  0.00    +0.000 C 
ATOM     12  C   UNL     1       4.113   4.116  16.876  0.00  0.00    +0.000 C 
ATOM     13  C   UNL     1       4.818   4.163  18.239  0.00  0.00    +0.000 C 
ATOM     14  C   UNL     1       4.639   2.809  18.947  0.00  0.00    +0.000 C 
ATOM     15  C   UNL     1       3.145   2.491  19.128  0.00  0.00    +0.000 C 
ATOM     16  C   UNL     1       2.444   2.475  17.764  0.00  0.00    +0.000 C 
ATOM     17  C   UNL     1       2.503   3.576  20.002  0.00  0.00    +0.000 C 
ATOM     18  C   UNL     1       4.192   5.279  19.095  0.00  0.00    +0.000 C 
ENDBRANCH   2   9
BRANCH   6  19
ATOM     19  C   UNL     1       1.103  11.214  18.650  0.00  0.00    +0.000 A 
ATOM     20  C   UNL     1       2.368  11.714  18.291  0.00  0.00    +0.000 A 
ATOM     21  C   UNL     1       2.605  13.083  18.122  0.00  0.00    +0.000 A 
ATOM     22  C   UNL     1       1.577  13.999  18.311  0.00  0.00    +0.000 A 
ATOM     23  C   UNL     1       0.315  13.542  18.674  0.00  0.00    +0.000 A 
ATOM     24  C   UNL     1       0.089  12.173  18.838  0.00  0.00    +0.000 A 
ATOM     25  F   UNL     1      -1.161  11.794  19.148  0.00  0.00    +0.000 F 
ENDBRANCH   6  19
TORSDOF 2
ENDMDL
MODEL 3
REMARK VINA RESULT:      -7.4      0.950      1.332
REMARK  Name = 
REMARK  2 active torsions:
REMARK  status: ('A' for Active; 'I' for Inactive)
REMARK    1  A    between atoms: C_2  and  C_16
REMARK    2  A    between atoms: N_6  and  C_7
REMARK                            x       y       z     vdW  Elec       q    Type
REMARK                         _______ _______ _______ _____ _____    ______ ____
ROOT
ATOM      1  O   UNL     1       1.323   5.674  21.202  0.00  0.00    +0.000 OA
ATOM      2  C   UNL     1       1.906   6.050  20.173  0.00  0.00    +0.000 C 
ATOM      3  N   UNL     1       1.944   7.400  19.866  0.00  0.00    +0.000 N 
ATOM      4  C   UNL     1       2.511   8.063  18.680  0.00  0.00    +0.000 C 
ATOM      5  C   UNL     1       1.467   8.961  18.000  0.00  0.00    +0.000 C 
ATOM      6  N   UNL     1       0.887   9.911  18.958  0.00  0.00    +0.000 N 
ATOM      7  C   UNL     1       0.363   9.313  20.201  0.00  0.00    +0.000 C 
ATOM      8  C   UNL     1       1.393   8.357  20.837  0.00  0.00    +0.000 C 
ENDROOT
BRANCH   2   9
ATOM      9  C   UNL     1       2.587   4.993  19.268  0.00  0.00    +0.000 C 
ATOM     10  C   UNL     1       2.391   3.580  19.916  0.00  0.00    +0.000 C 
ATOM     11  C   UNL     1       3.083   2.481  19.090  0.00  0.00    +0.000 C 
ATOM     12  C   UNL     1       2.486   2.457  17.676  0.00  0.00    +0.000 C 
ATOM     13  C   UNL     1       2.666   3.829  17.013  0.00  0.00    +0.000 C 
ATOM     14  C   UNL     1       4.167   4.158  16.931  0.00  0.00    +0.000 C 
ATOM     15  C   UNL     1       4.794   4.155  18.336  0.00  0.00    +0.000 C 
ATOM     16  C   UNL     1       4.585   2.789  19.000  0.00  0.00    +0.000 C 
ATOM     17  C   UNL     1       4.115   5.232  19.191  0.00  0.00    +0.000 C 
ATOM     18  C   UNL     1       1.950   4.898  17.859  0.00  0.00    +0.000 C 
ENDBRANCH   2   9
BRANCH   6  19
ATOM     19  C   UNL     1       1.082  11.279  18.853  0.00  0.00    +0.000 A 
ATOM     20  C   UNL     1       0.152  12.163  19.428  0.00  0.00    +0.000 A 
ATOM     21  C   UNL     1       0.290  13.553  19.333  0.00  0.00    +0.000 A 
ATOM     22  C   UNL     1       1.370  14.102  18.654  0.00  0.00    +0.000 A 
ATOM     23  C   UNL     1       2.306  13.260  18.066  0.00  0.00    +0.000 A 
ATOM     24  C   UNL     1       2.160  11.874  18.168  0.00  0.00    +0.000 A 
ATOM     25  F   UNL     1       3.121  11.116  17.616  0.00  0.00    +0.000 F 
ENDBRANCH   6  19
TORSDOF 2
ENDMDL
MODEL 4
REMARK VINA RESULT:      -7.4      0.265      1.600
REMARK  Name = 
REMARK  2 active torsions:
REMARK  status: ('A' for Active; 'I' for Inactive)
REMARK    1  A    between atoms: C_2  and  C_16
REMARK    2  A    between atoms: N_6  and  C_7
REMARK                            x       y       z     vdW  Elec       q    Type
REMARK                         _______ _______ _______ _____ _____    ______ ____
ROOT
ATOM      1  O   UNL     1       1.456   5.740  21.210  0.00  0.00    +0.000 OA
ATOM      2  C   UNL     1       2.000   6.084  20.149  0.00  0.00    +0.000 C 
ATOM      3  N   UNL     1       2.011   7.422  19.790  0.00  0.00    +0.000 N 
ATOM      4  C   UNL     1       2.530   8.045  18.562  0.00  0.00    +0.000 C 
ATOM      5  C   UNL     1       1.453   8.904  17.883  0.00  0.00    +0.000 C 
ATOM      6  N   UNL     1       0.892   9.884  18.824  0.00  0.00    +0.000 N 
ATOM      7  C   UNL     1       0.417   9.327  20.106  0.00  0.00    +0.000 C 
ATOM      8  C   UNL     1       1.479   8.409  20.742  0.00  0.00    +0.000 C 
ENDROOT
BRANCH   2   9
ATOM      9  C   UNL     1       2.664   5.001  19.262  0.00  0.00    +0.000 C 
ATOM     10  C   UNL     1       4.121   5.464  18.916  0.00  0.00    +0.000 C 
ATOM     11  C   UNL     1       4.829   4.454  17.996  0.00  0.00    +0.000 C 
ATOM     12  C   UNL     1       4.904   3.092  18.700  0.00  0.00    +0.000 C 
ATOM     13  C   UNL     1       3.489   2.610  19.050  0.00  0.00    +0.000 C 
ATOM     14  C   UNL     1       2.667   2.474  17.756  0.00  0.00    +0.000 C 
ATOM     15  C   UNL     1       2.607   3.821  17.015  0.00  0.00    +0.000 C 
ATOM     16  C   UNL     1       4.025   4.308  16.696  0.00  0.00    +0.000 C 
ATOM     17  C   UNL     1       1.918   4.857  17.912  0.00  0.00    +0.000 C 
ATOM     18  C   UNL     1       2.819   3.638  19.980  0.00  0.00    +0.000 C 
ENDBRANCH   2   9
BRANCH   6  19
ATOM     19  C   UNL     1       1.066  11.248  18.661  0.00  0.00    +0.000 A 
ATOM     20  C   UNL     1       2.338  11.756  18.339  0.00  0.00    +0.000 A 
ATOM     21  C   UNL     1       2.574  13.127  18.183  0.00  0.00    +0.000 A 
ATOM     22  C   UNL     1       1.537  14.037  18.348  0.00  0.00    +0.000 A 
ATOM     23  C   UNL     1       0.268  13.573  18.674  0.00  0.00    +0.000 A 
ATOM     24  C   UNL     1       0.043  12.203  18.825  0.00  0.00    +0.000 A 
ATOM     25  F   UNL     1      -1.213  11.816  19.098  0.00  0.00    +0.000 F 
ENDBRANCH   6  19
TORSDOF 2
ENDMDL
MODEL 5
REMARK VINA RESULT:      -7.2      2.414      3.593
REMARK  Name = 
REMARK  2 active torsions:
REMARK  status: ('A' for Active; 'I' for Inactive)
REMARK    1  A    between atoms: C_2  and  C_16
REMARK    2  A    between atoms: N_6  and  C_7
REMARK                            x       y       z     vdW  Elec       q    Type
REMARK                         _______ _______ _______ _____ _____    ______ ____
ROOT
ATOM      1  O   UNL     1       3.027   8.373  17.069  0.00  0.00    +0.000 OA
ATOM      2  C   UNL     1       2.500   7.774  18.020  0.00  0.00    +0.000 C 
ATOM      3  N   UNL     1       1.580   8.435  18.817  0.00  0.00    +0.000 N 
ATOM      4  C   UNL     1       0.889   7.954  20.024  0.00  0.00    +0.000 C 
ATOM      5  C   UNL     1       1.100   8.918  21.201  0.00  0.00    +0.000 C 
ATOM      6  N   UNL     1       0.715  10.288  20.834  0.00  0.00    +0.000 N 
ATOM      7  C   UNL     1       1.324  10.803  19.592  0.00  0.00    +0.000 C 
ATOM      8  C   UNL     1       1.168   9.795  18.436  0.00  0.00    +0.000 C 
ENDROOT
BRANCH   2   9
ATOM      9  C   UNL     1       2.880   6.295  18.276  0.00  0.00    +0.000 C 
ATOM     10  C   UNL     1       4.132   5.942  17.402  0.00  0.00    +0.000 C 
ATOM     11  C   UNL     1       4.541   4.468  17.573  0.00  0.00    +0.000 C 
ATOM     12  C   UNL     1       4.884   4.204  19.045  0.00  0.00    +0.000 C 
ATOM     13  C   UNL     1       3.674   4.538  19.929  0.00  0.00    +0.000 C 
ATOM     14  C   UNL     1       2.485   3.655  19.513  0.00  0.00    +0.000 C 
ATOM     15  C   UNL     1       2.144   3.878  18.029  0.00  0.00    +0.000 C 
ATOM     16  C   UNL     1       3.367   3.568  17.158  0.00  0.00    +0.000 C 
ATOM     17  C   UNL     1       1.745   5.344  17.821  0.00  0.00    +0.000 C 
ATOM     18  C   UNL     1       3.304   6.021  19.741  0.00  0.00    +0.000 C 
ENDBRANCH   2   9
BRANCH   6  19
ATOM     19  C   UNL     1      -0.356  10.938  21.425  0.00  0.00    +0.000 A 
ATOM     20  C   UNL     1      -1.105  11.867  20.681  0.00  0.00    +0.000 A 
ATOM     21  C   UNL     1      -2.184  12.566  21.235  0.00  0.00    +0.000 A 
ATOM     22  C   UNL     1      -2.546  12.356  22.560  0.00  0.00    +0.000 A 
ATOM     23  C   UNL     1      -1.824  11.451  23.329  0.00  0.00    +0.000 A 
ATOM     24  C   UNL     1      -0.750  10.757  22.766  0.00  0.00    +0.000 A 
ATOM     25  F   UNL     1      -0.121   9.866  23.548  0.00  0.00    +0.000 F 
ENDBRANCH   6  19
TORSDOF 2
ENDMDL
MODEL 6
REMARK VINA RESULT:      -7.1      2.430      3.398
REMARK  Name = 
REMARK  2 active torsions:
REMARK  status: ('A' for Active; 'I' for Inactive)
REMARK    1  A    between atoms: C_2  and  C_16
REMARK    2  A    between atoms: N_6  and  C_7
REMARK                            x       y       z     vdW  Elec       q    Type
REMARK                         _______ _______ _______ _____ _____    ______ ____
ROOT
ATOM      1  O   UNL     1       2.987   8.462  17.067  0.00  0.00    +0.000 OA
ATOM      2  C   UNL     1       2.456   7.858  18.012  0.00  0.00    +0.000 C 
ATOM      3  N   UNL     1       1.536   8.518  18.812  0.00  0.00    +0.000 N 
ATOM      4  C   UNL     1       0.840   8.031  20.013  0.00  0.00    +0.000 C 
ATOM      5  C   UNL     1       1.051   8.986  21.197  0.00  0.00    +0.000 C 
ATOM      6  N   UNL     1       0.671  10.360  20.838  0.00  0.00    +0.000 N 
ATOM      7  C   UNL     1       1.285  10.881  19.601  0.00  0.00    +0.000 C 
ATOM      8  C   UNL     1       1.130   9.881  18.437  0.00  0.00    +0.000 C 
ENDROOT
BRANCH   2   9
ATOM      9  C   UNL     1       2.831   6.377  18.261  0.00  0.00    +0.000 C 
ATOM     10  C   UNL     1       1.642   5.474  17.785  0.00  0.00    +0.000 C 
ATOM     11  C   UNL     1       1.926   3.984  18.044  0.00  0.00    +0.000 C 
ATOM     12  C   UNL     1       3.190   3.568  17.279  0.00  0.00    +0.000 C 
ATOM     13  C   UNL     1       4.376   4.434  17.726  0.00  0.00    +0.000 C 
ATOM     14  C   UNL     1       4.603   4.240  19.236  0.00  0.00    +0.000 C 
ATOM     15  C   UNL     1       3.336   4.619  20.022  0.00  0.00    +0.000 C 
ATOM     16  C   UNL     1       2.152   3.768  19.548  0.00  0.00    +0.000 C 
ATOM     17  C   UNL     1       3.015   6.098  19.774  0.00  0.00    +0.000 C 
ATOM     18  C   UNL     1       4.060   5.914  17.439  0.00  0.00    +0.000 C 
ENDBRANCH   2   9
BRANCH   6  19
ATOM     19  C   UNL     1      -0.400  11.009  21.430  0.00  0.00    +0.000 A 
ATOM     20  C   UNL     1      -1.141  11.949  20.691  0.00  0.00    +0.000 A 
ATOM     21  C   UNL     1      -2.219  12.648  21.247  0.00  0.00    +0.000 A 
ATOM     22  C   UNL     1      -2.588  12.428  22.568  0.00  0.00    +0.000 A 
ATOM     23  C   UNL     1      -1.874  11.511  23.332  0.00  0.00    +0.000 A 
ATOM     24  C   UNL     1      -0.801  10.818  22.767  0.00  0.00    +0.000 A 
ATOM     25  F   UNL     1      -0.180   9.916  23.544  0.00  0.00    +0.000 F 
ENDBRANCH   6  19
TORSDOF 2
ENDMDL
MODEL 7
REMARK VINA RESULT:      -7.0      0.975      1.963
REMARK  Name = 
REMARK  2 active torsions:
REMARK  status: ('A' for Active; 'I' for Inactive)
REMARK    1  A    between atoms: C_2  and  C_16
REMARK    2  A    between atoms: N_6  and  C_7
REMARK                            x       y       z     vdW  Elec       q    Type
REMARK                         _______ _______ _______ _____ _____    ______ ____
ROOT
ATOM      1  O   UNL     1       1.362   5.753  21.224  0.00  0.00    +0.000 OA
ATOM      2  C   UNL     1       1.962   6.155  20.216  0.00  0.00    +0.000 C 
ATOM      3  N   UNL     1       1.944   7.504  19.903  0.00  0.00    +0.000 N 
ATOM      4  C   UNL     1       2.521   8.190  18.736  0.00  0.00    +0.000 C 
ATOM      5  C   UNL     1       1.459   9.033  18.013  0.00  0.00    +0.000 C 
ATOM      6  N   UNL     1       0.797   9.956  18.944  0.00  0.00    +0.000 N 
ATOM      7  C   UNL     1       0.258   9.336  20.171  0.00  0.00    +0.000 C 
ATOM      8  C   UNL     1       1.310   8.436  20.849  0.00  0.00    +0.000 C 
ENDROOT
BRANCH   2   9
ATOM      9  C   UNL     1       2.728   5.131  19.342  0.00  0.00    +0.000 C 
ATOM     10  C   UNL     1       1.975   4.978  17.976  0.00  0.00    +0.000 C 
ATOM     11  C   UNL     1       2.657   3.938  17.069  0.00  0.00    +0.000 C 
ATOM     12  C   UNL     1       4.099   4.380  16.785  0.00  0.00    +0.000 C 
ATOM     13  C   UNL     1       4.865   4.535  18.107  0.00  0.00    +0.000 C 
ATOM     14  C   UNL     1       4.878   3.185  18.845  0.00  0.00    +0.000 C 
ATOM     15  C   UNL     1       3.441   2.705  19.111  0.00  0.00    +0.000 C 
ATOM     16  C   UNL     1       2.676   2.581  17.787  0.00  0.00    +0.000 C 
ATOM     17  C   UNL     1       2.726   3.729  20.001  0.00  0.00    +0.000 C 
ATOM     18  C   UNL     1       4.161   5.592  18.979  0.00  0.00    +0.000 C 
ENDBRANCH   2   9
BRANCH   6  19
ATOM     19  C   UNL     1       0.928  11.331  18.839  0.00  0.00    +0.000 A 
ATOM     20  C   UNL     1      -0.096  12.168  19.318  0.00  0.00    +0.000 A 
ATOM     21  C   UNL     1      -0.025  13.562  19.219  0.00  0.00    +0.000 A 
ATOM     22  C   UNL     1       1.080  14.165  18.631  0.00  0.00    +0.000 A 
ATOM     23  C   UNL     1       2.109  13.370  18.139  0.00  0.00    +0.000 A 
ATOM     24  C   UNL     1       2.028  11.979  18.245  0.00  0.00    +0.000 A 
ATOM     25  F   UNL     1       3.074  11.270  17.790  0.00  0.00    +0.000 F 
ENDBRANCH   6  19
TORSDOF 2
ENDMDL
MODEL 8
REMARK VINA RESULT:      -7.0      2.418      3.286
REMARK  Name = 
REMARK  2 active torsions:
REMARK  status: ('A' for Active; 'I' for Inactive)
REMARK    1  A    between atoms: C_2  and  C_16
REMARK    2  A    between atoms: N_6  and  C_7
REMARK                            x       y       z     vdW  Elec       q    Type
REMARK                         _______ _______ _______ _____ _____    ______ ____
ROOT
ATOM      1  O   UNL     1       3.132   8.441  17.063  0.00  0.00    +0.000 OA
ATOM      2  C   UNL     1       2.561   7.814  17.969  0.00  0.00    +0.000 C 
ATOM      3  N   UNL     1       1.630   8.461  18.765  0.00  0.00    +0.000 N 
ATOM      4  C   UNL     1       0.888   7.944  19.926  0.00  0.00    +0.000 C 
ATOM      5  C   UNL     1       1.082   8.850  21.151  0.00  0.00    +0.000 C 
ATOM      6  N   UNL     1       0.740  10.244  20.833  0.00  0.00    +0.000 N 
ATOM      7  C   UNL     1       1.400  10.798  19.635  0.00  0.00    +0.000 C 
ATOM      8  C   UNL     1       1.261   9.845  18.431  0.00  0.00    +0.000 C 
ENDROOT
BRANCH   2   9
ATOM      9  C   UNL     1       2.899   6.316  18.172  0.00  0.00    +0.000 C 
ATOM     10  C   UNL     1       3.239   6.081  19.683  0.00  0.00    +0.000 C 
ATOM     11  C   UNL     1       3.630   4.618  19.952  0.00  0.00    +0.000 C 
ATOM     12  C   UNL     1       2.462   3.700  19.566  0.00  0.00    +0.000 C 
ATOM     13  C   UNL     1       2.107   3.906  18.086  0.00  0.00    +0.000 C 
ATOM     14  C   UNL     1       3.334   3.566  17.221  0.00  0.00    +0.000 C 
ATOM     15  C   UNL     1       4.529   4.451  17.614  0.00  0.00    +0.000 C 
ATOM     16  C   UNL     1       4.857   4.260  19.099  0.00  0.00    +0.000 C 
ATOM     17  C   UNL     1       4.166   5.922  17.371  0.00  0.00    +0.000 C 
ATOM     18  C   UNL     1       1.709   5.376  17.860  0.00  0.00    +0.000 C 
ENDBRANCH   2   9
BRANCH   6  19
ATOM     19  C   UNL     1      -0.336  10.892  21.418  0.00  0.00    +0.000 A 
ATOM     20  C   UNL     1      -1.104  11.793  20.659  0.00  0.00    +0.000 A 
ATOM     21  C   UNL     1      -2.188  12.490  21.205  0.00  0.00    +0.000 A 
ATOM     22  C   UNL     1      -2.536  12.306  22.537  0.00  0.00    +0.000 A 
ATOM     23  C   UNL     1      -1.796  11.429  23.321  0.00  0.00    +0.000 A 
ATOM     24  C   UNL     1      -0.717  10.737  22.765  0.00  0.00    +0.000 A 
ATOM     25  F   UNL     1      -0.069   9.873  23.563  0.00  0.00    +0.000 F 
ENDBRANCH   6  19
TORSDOF 2
ENDMDL
MODEL 9
REMARK VINA RESULT:      -7.0      2.477      3.690
REMARK  Name = 
REMARK  2 active torsions:
REMARK  status: ('A' for Active; 'I' for Inactive)
REMARK    1  A    between atoms: C_2  and  C_16
REMARK    2  A    between atoms: N_6  and  C_7
REMARK                            x       y       z     vdW  Elec       q    Type
REMARK                         _______ _______ _______ _____ _____    ______ ____
ROOT
ATOM      1  O   UNL     1       2.605   8.683  17.221  0.00  0.00    +0.000 OA
ATOM      2  C   UNL     1       2.181   8.146  18.257  0.00  0.00    +0.000 C 
ATOM      3  N   UNL     1       1.407   8.883  19.139  0.00  0.00    +0.000 N 
ATOM      4  C   UNL     1       0.860   8.481  20.444  0.00  0.00    +0.000 C 
ATOM      5  C   UNL     1       1.269   9.475  21.542  0.00  0.00    +0.000 C 
ATOM      6  N   UNL     1       0.903  10.849  21.170  0.00  0.00    +0.000 N 
ATOM      7  C   UNL     1       1.365  11.287  19.839  0.00  0.00    +0.000 C 
ATOM      8  C   UNL     1       1.012  10.247  18.756  0.00  0.00    +0.000 C 
ENDROOT
BRANCH   2   9
ATOM      9  C   UNL     1       2.523   6.660  18.524  0.00  0.00    +0.000 C 
ATOM     10  C   UNL     1       3.885   6.327  17.824  0.00  0.00    +0.000 C 
ATOM     11  C   UNL     1       4.268   4.848  18.011  0.00  0.00    +0.000 C 
ATOM     12  C   UNL     1       4.402   4.544  19.509  0.00  0.00    +0.000 C 
ATOM     13  C   UNL     1       3.080   4.858  20.224  0.00  0.00    +0.000 C 
ATOM     14  C   UNL     1       1.961   3.989  19.622  0.00  0.00    +0.000 C 
ATOM     15  C   UNL     1       1.831   4.253  18.112  0.00  0.00    +0.000 C 
ATOM     16  C   UNL     1       3.164   3.963  17.412  0.00  0.00    +0.000 C 
ATOM     17  C   UNL     1       1.464   5.725  17.890  0.00  0.00    +0.000 C 
ATOM     18  C   UNL     1       2.739   6.346  20.026  0.00  0.00    +0.000 C 
ENDBRANCH   2   9
BRANCH   6  19
ATOM     19  C   UNL     1      -0.049  11.574  21.868  0.00  0.00    +0.000 A 
ATOM     20  C   UNL     1      -1.056  10.899  22.580  0.00  0.00    +0.000 A 
ATOM     21  C   UNL     1      -2.054  11.582  23.285  0.00  0.00    +0.000 A 
ATOM     22  C   UNL     1      -2.075  12.971  23.295  0.00  0.00    +0.000 A 
ATOM     23  C   UNL     1      -1.100  13.673  22.597  0.00  0.00    +0.000 A 
ATOM     24  C   UNL     1      -0.107  12.981  21.898  0.00  0.00    +0.000 A 
ATOM     25  F   UNL     1       0.830  13.717  21.279  0.00  0.00    +0.000 F 
ENDBRANCH   6  19
TORSDOF 2
ENDMDL
