MODEL 1
REMARK VINA RESULT:      -5.9      0.000      0.000
REMARK  Name = 
REMARK  7 active torsions:
REMARK  status: ('A' for Active; 'I' for Inactive)
REMARK    1  A    between atoms: C_1  and  C_2
REMARK    2  A    between atoms: C_2  and  N_3
REMARK    3  A    between atoms: N_5  and  C_6
REMARK    4  A    between atoms: C_6  and  C_7
REMARK    5  A    between atoms: C_6  and  C_8
REMARK    6  A    between atoms: N_10  and  C_11
REMARK    7  A    between atoms: N_10  and  C_12
REMARK                            x       y       z     vdW  Elec       q    Type
REMARK                         _______ _______ _______ _____ _____    ______ ____
ROOT
ATOM      1  N   UNL     1       6.745   6.342  17.515  0.00  0.00    +0.000 N 
ATOM      2  C   UNL     1       5.448   6.886  17.282  0.00  0.00    +0.000 C 
ATOM      3  N   UNL     1       4.612   5.748  16.896  0.00  0.00    +0.000 NA
ATOM      4  C   UNL     1       5.538   4.693  16.426  0.00  0.00    +0.000 C 
ATOM      5  C   UNL     1       6.897   5.090  16.958  0.00  0.00    +0.000 C 
ATOM      6  O   UNL     1       7.917   4.421  16.896  0.00  0.00    +0.000 OA
ENDROOT
BRANCH   1   8
ATOM      7  C   UNL     1       7.911   8.520  17.629  0.00  0.00    +0.000 C 
ATOM      8  C   UNL     1       7.797   7.100  18.154  0.00  0.00    +0.000 C 
ENDBRANCH   1   8
BRANCH   3   9
ATOM      9  C   UNL     1       3.719   5.288  17.989  0.00  0.00    +0.000 C 
ATOM     10  C   UNL     1       2.496   6.191  18.244  0.00  0.00    +0.000 C 
BRANCH   9  11
ATOM     11  C   UNL     1       3.240   3.822  17.732  0.00  0.00    +0.000 C 
ATOM     12  O   UNL     1       2.456   3.590  16.806  0.00  0.00    +0.000 OA
ATOM     13  N   UNL     1       3.690   2.794  18.556  0.00  0.00    +0.000 N 
ATOM     14  C   UNL     1       4.590   2.934  19.691  0.00  0.00    +0.000 C 
ATOM     15  C   UNL     1       3.143   1.460  18.362  0.00  0.00    +0.000 C 
ENDBRANCH   9  11
ENDBRANCH   3   9
TORSDOF 3
ENDMDL
MODEL 2
REMARK VINA RESULT:      -5.9      1.006      1.053
REMARK  Name = 
REMARK  7 active torsions:
REMARK  status: ('A' for Active; 'I' for Inactive)
REMARK    1  A    between atoms: C_1  and  C_2
REMARK    2  A    between atoms: C_2  and  N_3
REMARK    3  A    between atoms: N_5  and  C_6
REMARK    4  A    between atoms: C_6  and  C_7
REMARK    5  A    between atoms: C_6  and  C_8
REMARK    6  A    between atoms: N_10  and  C_11
REMARK    7  A    between atoms: N_10  and  C_12
REMARK                            x       y       z     vdW  Elec       q    Type
REMARK                         _______ _______ _______ _____ _____    ______ ____
ROOT
ATOM      1  N   UNL     1       6.444   6.177  16.980  0.00  0.00    +0.000 N 
ATOM      2  C   UNL     1       5.053   6.455  16.840  0.00  0.00    +0.000 C 
ATOM      3  N   UNL     1       4.385   5.157  16.942  0.00  0.00    +0.000 NA
ATOM      4  C   UNL     1       5.409   4.135  16.628  0.00  0.00    +0.000 C 
ATOM      5  C   UNL     1       6.737   4.845  16.776  0.00  0.00    +0.000 C 
ATOM      6  O   UNL     1       7.841   4.325  16.723  0.00  0.00    +0.000 OA
ENDROOT
BRANCH   1   8
ATOM      7  C   UNL     1       8.076   7.166  18.554  0.00  0.00    +0.000 C 
ATOM      8  C   UNL     1       7.424   7.221  17.183  0.00  0.00    +0.000 C 
ENDBRANCH   1   8
BRANCH   3   9
ATOM      9  C   UNL     1       3.739   4.940  18.261  0.00  0.00    +0.000 C 
ATOM     10  C   UNL     1       3.222   6.222  18.943  0.00  0.00    +0.000 C 
BRANCH   9  11
ATOM     11  C   UNL     1       2.572   3.906  18.143  0.00  0.00    +0.000 C 
ATOM     12  O   UNL     1       1.781   3.984  17.199  0.00  0.00    +0.000 OA
ATOM     13  N   UNL     1       2.428   2.915  19.111  0.00  0.00    +0.000 N 
ATOM     14  C   UNL     1       3.271   2.727  20.281  0.00  0.00    +0.000 C 
ATOM     15  C   UNL     1       1.271   2.035  19.034  0.00  0.00    +0.000 C 
ENDBRANCH   9  11
ENDBRANCH   3   9
TORSDOF 3
ENDMDL
MODEL 3
REMARK VINA RESULT:      -5.9      1.274      1.587
REMARK  Name = 
REMARK  7 active torsions:
REMARK  status: ('A' for Active; 'I' for Inactive)
REMARK    1  A    between atoms: C_1  and  C_2
REMARK    2  A    between atoms: C_2  and  N_3
REMARK    3  A    between atoms: N_5  and  C_6
REMARK    4  A    between atoms: C_6  and  C_7
REMARK    5  A    between atoms: C_6  and  C_8
REMARK    6  A    between atoms: N_10  and  C_11
REMARK    7  A    between atoms: N_10  and  C_12
REMARK                            x       y       z     vdW  Elec       q    Type
REMARK                         _______ _______ _______ _____ _____    ______ ____
ROOT
ATOM      1  N   UNL     1       6.439   6.517  16.857  0.00  0.00    +0.000 N 
ATOM      2  C   UNL     1       5.095   6.604  17.326  0.00  0.00    +0.000 C 
ATOM      3  N   UNL     1       4.444   5.376  16.869  0.00  0.00    +0.000 NA
ATOM      4  C   UNL     1       5.258   4.868  15.741  0.00  0.00    +0.000 C 
ATOM      5  C   UNL     1       6.588   5.579  15.858  0.00  0.00    +0.000 C 
ATOM      6  O   UNL     1       7.585   5.353  15.190  0.00  0.00    +0.000 OA
ENDROOT
BRANCH   1   8
ATOM      7  C   UNL     1       8.084   7.005  18.639  0.00  0.00    +0.000 C 
ATOM      8  C   UNL     1       7.476   7.418  17.311  0.00  0.00    +0.000 C 
ENDBRANCH   1   8
BRANCH   3   9
ATOM      9  C   UNL     1       4.271   4.375  17.952  0.00  0.00    +0.000 C 
ATOM     10  C   UNL     1       4.880   4.782  19.308  0.00  0.00    +0.000 C 
BRANCH   9  11
ATOM     11  C   UNL     1       2.759   4.024  18.145  0.00  0.00    +0.000 C 
ATOM     12  O   UNL     1       1.913   4.922  18.092  0.00  0.00    +0.000 OA
ATOM     13  N   UNL     1       2.382   2.706  18.387  0.00  0.00    +0.000 N 
ATOM     14  C   UNL     1       3.275   1.564  18.498  0.00  0.00    +0.000 C 
ATOM     15  C   UNL     1       0.982   2.427  18.670  0.00  0.00    +0.000 C 
ENDBRANCH   9  11
ENDBRANCH   3   9
TORSDOF 3
ENDMDL
MODEL 4
REMARK VINA RESULT:      -5.8      1.754      5.275
REMARK  Name = 
REMARK  7 active torsions:
REMARK  status: ('A' for Active; 'I' for Inactive)
REMARK    1  A    between atoms: C_1  and  C_2
REMARK    2  A    between atoms: C_2  and  N_3
REMARK    3  A    between atoms: N_5  and  C_6
REMARK    4  A    between atoms: C_6  and  C_7
REMARK    5  A    between atoms: C_6  and  C_8
REMARK    6  A    between atoms: N_10  and  C_11
REMARK    7  A    between atoms: N_10  and  C_12
REMARK                            x       y       z     vdW  Elec       q    Type
REMARK                         _______ _______ _______ _____ _____    ______ ____
ROOT
ATOM      1  N   UNL     1       3.289   3.109  18.377  0.00  0.00    +0.000 N 
ATOM      2  C   UNL     1       3.342   4.408  17.792  0.00  0.00    +0.000 C 
ATOM      3  N   UNL     1       4.608   4.986  18.243  0.00  0.00    +0.000 NA
ATOM      4  C   UNL     1       5.000   4.235  19.456  0.00  0.00    +0.000 C 
ATOM      5  C   UNL     1       4.175   2.968  19.424  0.00  0.00    +0.000 C 
ATOM      6  O   UNL     1       4.285   2.018  20.184  0.00  0.00    +0.000 OA
ENDROOT
BRANCH   1   8
ATOM      7  C   UNL     1       0.960   2.318  18.637  0.00  0.00    +0.000 C 
ATOM      8  C   UNL     1       2.313   2.120  17.977  0.00  0.00    +0.000 C 
ENDBRANCH   1   8
BRANCH   3   9
ATOM      9  C   UNL     1       5.657   4.974  17.192  0.00  0.00    +0.000 C 
ATOM     10  C   UNL     1       5.204   4.397  15.836  0.00  0.00    +0.000 C 
BRANCH   9  11
ATOM     11  C   UNL     1       6.244   6.408  16.978  0.00  0.00    +0.000 C 
ATOM     12  O   UNL     1       5.802   7.117  16.069  0.00  0.00    +0.000 OA
ATOM     13  N   UNL     1       7.266   6.865  17.805  0.00  0.00    +0.000 N 
ATOM     14  C   UNL     1       7.890   6.125  18.890  0.00  0.00    +0.000 C 
ATOM     15  C   UNL     1       7.866   8.159  17.513  0.00  0.00    +0.000 C 
ENDBRANCH   9  11
ENDBRANCH   3   9
TORSDOF 3
ENDMDL
MODEL 5
REMARK VINA RESULT:      -5.8      1.693      5.308
REMARK  Name = 
REMARK  7 active torsions:
REMARK  status: ('A' for Active; 'I' for Inactive)
REMARK    1  A    between atoms: C_1  and  C_2
REMARK    2  A    between atoms: C_2  and  N_3
REMARK    3  A    between atoms: N_5  and  C_6
REMARK    4  A    between atoms: C_6  and  C_7
REMARK    5  A    between atoms: C_6  and  C_8
REMARK    6  A    between atoms: N_10  and  C_11
REMARK    7  A    between atoms: N_10  and  C_12
REMARK                            x       y       z     vdW  Elec       q    Type
REMARK                         _______ _______ _______ _____ _____    ______ ____
ROOT
ATOM      1  N   UNL     1       3.161   3.505  18.648  0.00  0.00    +0.000 N 
ATOM      2  C   UNL     1       3.503   3.592  17.266  0.00  0.00    +0.000 C 
ATOM      3  N   UNL     1       4.142   4.898  17.106  0.00  0.00    +0.000 NA
ATOM      4  C   UNL     1       3.702   5.722  18.254  0.00  0.00    +0.000 C 
ATOM      5  C   UNL     1       3.169   4.735  19.270  0.00  0.00    +0.000 C 
ATOM      6  O   UNL     1       2.818   4.995  20.410  0.00  0.00    +0.000 OA
ENDROOT
BRANCH   1   8
ATOM      7  C   UNL     1       1.241   2.025  19.137  0.00  0.00    +0.000 C 
ATOM      8  C   UNL     1       2.735   2.267  19.262  0.00  0.00    +0.000 C 
ENDBRANCH   1   8
BRANCH   3   9
ATOM      9  C   UNL     1       5.620   4.810  16.992  0.00  0.00    +0.000 C 
ATOM     10  C   UNL     1       6.125   3.925  15.835  0.00  0.00    +0.000 C 
BRANCH   9  11
ATOM     11  C   UNL     1       6.253   6.235  16.873  0.00  0.00    +0.000 C 
ATOM     12  O   UNL     1       5.928   6.970  15.936  0.00  0.00    +0.000 OA
ATOM     13  N   UNL     1       7.185   6.657  17.817  0.00  0.00    +0.000 N 
ATOM     14  C   UNL     1       7.672   5.885  18.949  0.00  0.00    +0.000 C 
ATOM     15  C   UNL     1       7.837   7.944  17.619  0.00  0.00    +0.000 C 
ENDBRANCH   9  11
ENDBRANCH   3   9
TORSDOF 3
ENDMDL
MODEL 6
REMARK VINA RESULT:      -5.8      1.780      5.010
REMARK  Name = 
REMARK  7 active torsions:
REMARK  status: ('A' for Active; 'I' for Inactive)
REMARK    1  A    between atoms: C_1  and  C_2
REMARK    2  A    between atoms: C_2  and  N_3
REMARK    3  A    between atoms: N_5  and  C_6
REMARK    4  A    between atoms: C_6  and  C_7
REMARK    5  A    between atoms: C_6  and  C_8
REMARK    6  A    between atoms: N_10  and  C_11
REMARK    7  A    between atoms: N_10  and  C_12
REMARK                            x       y       z     vdW  Elec       q    Type
REMARK                         _______ _______ _______ _____ _____    ______ ____
ROOT
ATOM      1  N   UNL     1       3.156   4.404  18.991  0.00  0.00    +0.000 N 
ATOM      2  C   UNL     1       4.403   4.388  19.682  0.00  0.00    +0.000 C 
ATOM      3  N   UNL     1       5.399   4.010  18.679  0.00  0.00    +0.000 NA
ATOM      4  C   UNL     1       4.658   3.333  17.591  0.00  0.00    +0.000 C 
ATOM      5  C   UNL     1       3.210   3.721  17.794  0.00  0.00    +0.000 C 
ATOM      6  O   UNL     1       2.284   3.470  17.038  0.00  0.00    +0.000 OA
ENDROOT
BRANCH   1   8
ATOM      7  C   UNL     1       1.159   3.966  20.383  0.00  0.00    +0.000 C 
ATOM      8  C   UNL     1       1.958   4.969  19.571  0.00  0.00    +0.000 C 
ENDBRANCH   1   8
BRANCH   3   9
ATOM      9  C   UNL     1       6.203   5.162  18.199  0.00  0.00    +0.000 C 
ATOM     10  C   UNL     1       7.222   5.706  19.220  0.00  0.00    +0.000 C 
BRANCH   9  11
ATOM     11  C   UNL     1       6.941   4.806  16.867  0.00  0.00    +0.000 C 
ATOM     12  O   UNL     1       7.975   4.132  16.904  0.00  0.00    +0.000 OA
ATOM     13  N   UNL     1       6.432   5.262  15.654  0.00  0.00    +0.000 N 
ATOM     14  C   UNL     1       5.244   6.081  15.473  0.00  0.00    +0.000 C 
ATOM     15  C   UNL     1       7.198   5.008  14.442  0.00  0.00    +0.000 C 
ENDBRANCH   9  11
ENDBRANCH   3   9
TORSDOF 3
ENDMDL
MODEL 7
REMARK VINA RESULT:      -5.7      2.376      3.216
REMARK  Name = 
REMARK  7 active torsions:
REMARK  status: ('A' for Active; 'I' for Inactive)
REMARK    1  A    between atoms: C_1  and  C_2
REMARK    2  A    between atoms: C_2  and  N_3
REMARK    3  A    between atoms: N_5  and  C_6
REMARK    4  A    between atoms: C_6  and  C_7
REMARK    5  A    between atoms: C_6  and  C_8
REMARK    6  A    between atoms: N_10  and  C_11
REMARK    7  A    between atoms: N_10  and  C_12
REMARK                            x       y       z     vdW  Elec       q    Type
REMARK                         _______ _______ _______ _____ _____    ______ ____
ROOT
ATOM      1  N   UNL     1       5.991   5.142  16.315  0.00  0.00    +0.000 N 
ATOM      2  C   UNL     1       5.924   4.546  17.610  0.00  0.00    +0.000 C 
ATOM      3  N   UNL     1       4.725   5.107  18.234  0.00  0.00    +0.000 NA
ATOM      4  C   UNL     1       4.427   6.363  17.509  0.00  0.00    +0.000 C 
ATOM      5  C   UNL     1       5.205   6.270  16.215  0.00  0.00    +0.000 C 
ATOM      6  O   UNL     1       5.138   7.049  15.277  0.00  0.00    +0.000 OA
ENDROOT
BRANCH   1   8
ATOM      7  C   UNL     1       6.183   3.916  14.176  0.00  0.00    +0.000 C 
ATOM      8  C   UNL     1       6.892   4.663  15.291  0.00  0.00    +0.000 C 
ENDBRANCH   1   8
BRANCH   3   9
ATOM      9  C   UNL     1       3.580   4.161  18.244  0.00  0.00    +0.000 C 
ATOM     10  C   UNL     1       3.592   3.124  17.105  0.00  0.00    +0.000 C 
BRANCH   9  11
ATOM     11  C   UNL     1       3.485   3.423  19.620  0.00  0.00    +0.000 C 
ATOM     12  O   UNL     1       4.297   2.534  19.892  0.00  0.00    +0.000 OA
ATOM     13  N   UNL     1       2.478   3.766  20.519  0.00  0.00    +0.000 N 
ATOM     14  C   UNL     1       1.449   4.772  20.312  0.00  0.00    +0.000 C 
ATOM     15  C   UNL     1       2.348   2.989  21.742  0.00  0.00    +0.000 C 
ENDBRANCH   9  11
ENDBRANCH   3   9
TORSDOF 3
ENDMDL
MODEL 8
REMARK VINA RESULT:      -5.7      2.187      3.157
REMARK  Name = 
REMARK  7 active torsions:
REMARK  status: ('A' for Active; 'I' for Inactive)
REMARK    1  A    between atoms: C_1  and  C_2
REMARK    2  A    between atoms: C_2  and  N_3
REMARK    3  A    between atoms: N_5  and  C_6
REMARK    4  A    between atoms: C_6  and  C_7
REMARK    5  A    between atoms: C_6  and  C_8
REMARK    6  A    between atoms: N_10  and  C_11
REMARK    7  A    between atoms: N_10  and  C_12
REMARK                            x       y       z     vdW  Elec       q    Type
REMARK                         _______ _______ _______ _____ _____    ______ ____
ROOT
ATOM      1  N   UNL     1       6.106   5.115  16.243  0.00  0.00    +0.000 N 
ATOM      2  C   UNL     1       5.769   3.888  16.886  0.00  0.00    +0.000 C 
ATOM      3  N   UNL     1       5.334   4.260  18.232  0.00  0.00    +0.000 NA
ATOM      4  C   UNL     1       5.905   5.600  18.498  0.00  0.00    +0.000 C 
ATOM      5  C   UNL     1       6.291   6.145  17.141  0.00  0.00    +0.000 C 
ATOM      6  O   UNL     1       6.687   7.276  16.905  0.00  0.00    +0.000 OA
ENDROOT
BRANCH   1   8
ATOM      7  C   UNL     1       5.933   3.947  14.070  0.00  0.00    +0.000 C 
ATOM      8  C   UNL     1       6.344   5.202  14.819  0.00  0.00    +0.000 C 
ENDBRANCH   1   8
BRANCH   3   9
ATOM      9  C   UNL     1       3.859   4.218  18.397  0.00  0.00    +0.000 C 
ATOM     10  C   UNL     1       3.091   3.659  17.184  0.00  0.00    +0.000 C 
BRANCH   9  11
ATOM     11  C   UNL     1       3.469   3.411  19.678  0.00  0.00    +0.000 C 
ATOM     12  O   UNL     1       3.948   2.288  19.861  0.00  0.00    +0.000 OA
ATOM     13  N   UNL     1       2.574   3.959  20.594  0.00  0.00    +0.000 N 
ATOM     14  C   UNL     1       1.922   5.255  20.487  0.00  0.00    +0.000 C 
ATOM     15  C   UNL     1       2.146   3.141  21.719  0.00  0.00    +0.000 C 
ENDBRANCH   9  11
ENDBRANCH   3   9
TORSDOF 3
ENDMDL
MODEL 9
REMARK VINA RESULT:      -5.6      2.112      3.637
REMARK  Name = 
REMARK  7 active torsions:
REMARK  status: ('A' for Active; 'I' for Inactive)
REMARK    1  A    between atoms: C_1  and  C_2
REMARK    2  A    between atoms: C_2  and  N_3
REMARK    3  A    between atoms: N_5  and  C_6
REMARK    4  A    between atoms: C_6  and  C_7
REMARK    5  A    between atoms: C_6  and  C_8
REMARK    6  A    between atoms: N_10  and  C_11
REMARK    7  A    between atoms: N_10  and  C_12
REMARK                            x       y       z     vdW  Elec       q    Type
REMARK                         _______ _______ _______ _____ _____    ______ ____
ROOT
ATOM      1  N   UNL     1       6.417   4.917  15.951  0.00  0.00    +0.000 N 
ATOM      2  C   UNL     1       5.561   3.925  16.516  0.00  0.00    +0.000 C 
ATOM      3  N   UNL     1       5.037   4.520  17.746  0.00  0.00    +0.000 NA
ATOM      4  C   UNL     1       5.976   5.602  18.118  0.00  0.00    +0.000 C 
ATOM      5  C   UNL     1       6.775   5.885  16.865  0.00  0.00    +0.000 C 
ATOM      6  O   UNL     1       7.575   6.794  16.712  0.00  0.00    +0.000 OA
ENDROOT
BRANCH   1   8
ATOM      7  C   UNL     1       6.149   3.845  13.738  0.00  0.00    +0.000 C 
ATOM      8  C   UNL     1       6.934   4.814  14.605  0.00  0.00    +0.000 C 
ENDBRANCH   1   8
BRANCH   3   9
ATOM      9  C   UNL     1       3.636   4.992  17.610  0.00  0.00    +0.000 C 
ATOM     10  C   UNL     1       2.642   3.923  17.116  0.00  0.00    +0.000 C 
BRANCH   9  11
ATOM     11  C   UNL     1       3.123   5.597  18.958  0.00  0.00    +0.000 C 
ATOM     12  O   UNL     1       3.126   4.903  19.979  0.00  0.00    +0.000 OA
ATOM     13  N   UNL     1       2.655   6.909  18.991  0.00  0.00    +0.000 N 
ATOM     14  C   UNL     1       2.575   7.821  17.861  0.00  0.00    +0.000 C 
ATOM     15  C   UNL     1       2.083   7.409  20.232  0.00  0.00    +0.000 C 
ENDBRANCH   9  11
ENDBRANCH   3   9
TORSDOF 3
ENDMDL
