MODEL 1
REMARK VINA RESULT:      -5.5      0.000      0.000
REMARK  Name = 
REMARK  9 active torsions:
REMARK  status: ('A' for Active; 'I' for Inactive)
REMARK    1  A    between atoms: C_1  and  C_2
REMARK    2  A    between atoms: C_2  and  C_3
REMARK    3  A    between atoms: C_2  and  S_4
REMARK    4  A    between atoms: C_2  and  C_5
REMARK    5  A    between atoms: C_5  and  N_6
REMARK    6  A    between atoms: C_5  and  C_7
REMARK    7  A    between atoms: N_9  and  CA_10
REMARK    8  A    between atoms: CA_10  and  C_11
REMARK    9  A    between atoms: C_11  and  OXT_13
REMARK                            x       y       z     vdW  Elec       q    Type
REMARK                         _______ _______ _______ _____ _____    ______ ____
ROOT
ATOM      1  C   UNK A   1       4.289   3.134  19.954  0.00  0.00    +0.000 C 
ENDROOT
BRANCH   1   2
ATOM      2  C   UNK A   1       5.051   4.176  19.156  0.00  0.00    +0.000 C 
ATOM      3  O   UNK A   1       5.441   5.195  19.712  0.00  0.00    +0.000 OA
ATOM      4  N   GLY A   2       5.274   4.006  17.825  0.00  0.00    +0.000 N 
ATOM      5  H   GLY A   2       4.920   3.154  17.359  0.00  0.00    +0.000 HD
BRANCH   4   6
ATOM      6  CA  GLY A   2       5.991   5.002  17.048  0.00  0.00    +0.000 C 
BRANCH   6   7
ATOM      7  C   GLY A   2       7.397   4.562  16.762  0.00  0.00    +0.000 C 
ATOM      8  O   GLY A   2       7.841   4.647  15.628  0.00  0.00    +0.000 OA
BRANCH   7   9
ATOM      9  OXT GLY A   2       8.183   4.073  17.745  0.00  0.00    +0.000 OA
ATOM     10  HXT GLY A   2       8.124   4.405  18.652  0.00  0.00    +0.000 HD
ENDBRANCH   7   9
ENDBRANCH   6   7
ENDBRANCH   4   6
ENDBRANCH   1   2
BRANCH   1  12
ATOM     11  C   UNK A   1       2.322   2.154  18.652  0.00  0.00    +0.000 C 
ATOM     12  C   UNK A   1       2.729   3.183  19.726  0.00  0.00    +0.000 C 
ATOM     13  C   UNK A   1       2.220   4.585  19.320  0.00  0.00    +0.000 C 
BRANCH  12  14
ATOM     14  S   UNK A   1       1.899   2.703  21.291  0.00  0.00    +0.000 S 
ATOM     15  H   UNK A   1       2.736   3.485  22.113  0.00  0.00    +0.000 HD
ENDBRANCH  12  14
ENDBRANCH   1  12
BRANCH   1  16
ATOM     16  N   UNK A   1       4.878   1.819  19.672  0.00  0.00    +0.000 NA
ATOM     17  H   UNK A   1       5.088   1.289  20.548  0.00  0.00    +0.000 HD
ATOM     18  H   UNK A   1       5.736   1.898  19.082  0.00  0.00    +0.000 HD
ENDBRANCH   1  16
TORSDOF 7
ENDMDL
MODEL 2
REMARK VINA RESULT:      -5.5      1.332      1.518
REMARK  Name = 
REMARK  9 active torsions:
REMARK  status: ('A' for Active; 'I' for Inactive)
REMARK    1  A    between atoms: C_1  and  C_2
REMARK    2  A    between atoms: C_2  and  C_3
REMARK    3  A    between atoms: C_2  and  S_4
REMARK    4  A    between atoms: C_2  and  C_5
REMARK    5  A    between atoms: C_5  and  N_6
REMARK    6  A    between atoms: C_5  and  C_7
REMARK    7  A    between atoms: N_9  and  CA_10
REMARK    8  A    between atoms: CA_10  and  C_11
REMARK    9  A    between atoms: C_11  and  OXT_13
REMARK                            x       y       z     vdW  Elec       q    Type
REMARK                         _______ _______ _______ _____ _____    ______ ____
ROOT
ATOM      1  C   UNK A   1       4.282   3.553  19.521  0.00  0.00    +0.000 C 
ENDROOT
BRANCH   1   2
ATOM      2  C   UNK A   1       5.371   4.473  18.999  0.00  0.00    +0.000 C 
ATOM      3  O   UNK A   1       5.290   5.678  19.202  0.00  0.00    +0.000 OA
ATOM      4  N   GLY A   2       6.415   3.978  18.282  0.00  0.00    +0.000 N 
ATOM      5  H   GLY A   2       6.463   2.964  18.096  0.00  0.00    +0.000 HD
BRANCH   4   6
ATOM      6  CA  GLY A   2       7.456   4.851  17.768  0.00  0.00    +0.000 C 
BRANCH   6   7
ATOM      7  C   GLY A   2       7.099   5.384  16.410  0.00  0.00    +0.000 C 
ATOM      8  O   GLY A   2       7.531   4.835  15.410  0.00  0.00    +0.000 OA
BRANCH   7   9
ATOM      9  OXT GLY A   2       6.299   6.464  16.279  0.00  0.00    +0.000 OA
ATOM     10  HXT GLY A   2       6.508   7.303  16.713  0.00  0.00    +0.000 HD
ENDBRANCH   7   9
ENDBRANCH   6   7
ENDBRANCH   4   6
ENDBRANCH   1   2
BRANCH   1  12
ATOM     11  C   UNK A   1       3.281   3.579  17.170  0.00  0.00    +0.000 C 
ATOM     12  C   UNK A   1       2.951   3.613  18.677  0.00  0.00    +0.000 C 
ATOM     13  C   UNK A   1       2.089   4.856  18.991  0.00  0.00    +0.000 C 
BRANCH  12  14
ATOM     14  S   UNK A   1       1.958   2.117  19.056  0.00  0.00    +0.000 S 
ATOM     15  H   UNK A   1       0.757   2.823  19.269  0.00  0.00    +0.000 HD
ENDBRANCH  12  14
ENDBRANCH   1  12
BRANCH   1  16
ATOM     16  N   UNK A   1       4.841   2.200  19.634  0.00  0.00    +0.000 NA
ATOM     17  H   UNK A   1       5.812   2.211  20.020  0.00  0.00    +0.000 HD
ATOM     18  H   UNK A   1       4.819   1.694  18.722  0.00  0.00    +0.000 HD
ENDBRANCH   1  16
TORSDOF 7
ENDMDL
MODEL 3
REMARK VINA RESULT:      -5.4      1.940      2.309
REMARK  Name = 
REMARK  9 active torsions:
REMARK  status: ('A' for Active; 'I' for Inactive)
REMARK    1  A    between atoms: C_1  and  C_2
REMARK    2  A    between atoms: C_2  and  C_3
REMARK    3  A    between atoms: C_2  and  S_4
REMARK    4  A    between atoms: C_2  and  C_5
REMARK    5  A    between atoms: C_5  and  N_6
REMARK    6  A    between atoms: C_5  and  C_7
REMARK    7  A    between atoms: N_9  and  CA_10
REMARK    8  A    between atoms: CA_10  and  C_11
REMARK    9  A    between atoms: C_11  and  OXT_13
REMARK                            x       y       z     vdW  Elec       q    Type
REMARK                         _______ _______ _______ _____ _____    ______ ____
ROOT
ATOM      1  C   UNK A   1       3.831   2.560  19.401  0.00  0.00    +0.000 C 
ENDROOT
BRANCH   1   2
ATOM      2  C   UNK A   1       4.669   3.509  18.562  0.00  0.00    +0.000 C 
ATOM      3  O   UNK A   1       4.257   3.870  17.467  0.00  0.00    +0.000 OA
ATOM      4  N   GLY A   2       5.885   3.934  19.000  0.00  0.00    +0.000 N 
ATOM      5  H   GLY A   2       6.235   3.606  19.914  0.00  0.00    +0.000 HD
BRANCH   4   6
ATOM      6  CA  GLY A   2       6.700   4.832  18.200  0.00  0.00    +0.000 C 
BRANCH   6   7
ATOM      7  C   GLY A   2       7.533   5.731  19.068  0.00  0.00    +0.000 C 
ATOM      8  O   GLY A   2       7.963   6.781  18.618  0.00  0.00    +0.000 OA
BRANCH   7   9
ATOM      9  OXT GLY A   2       7.811   5.394  20.346  0.00  0.00    +0.000 OA
ATOM     10  HXT GLY A   2       8.381   4.642  20.558  0.00  0.00    +0.000 HD
ENDBRANCH   7   9
ENDBRANCH   6   7
ENDBRANCH   4   6
ENDBRANCH   1   2
BRANCH   1  12
ATOM     11  C   UNK A   1       2.822   4.786  20.145  0.00  0.00    +0.000 C 
ATOM     12  C   UNK A   1       2.606   3.259  20.105  0.00  0.00    +0.000 C 
ATOM     13  C   UNK A   1       2.349   2.735  21.536  0.00  0.00    +0.000 C 
BRANCH  12  14
ATOM     14  S   UNK A   1       1.103   2.942  19.101  0.00  0.00    +0.000 S 
ATOM     15  H   UNK A   1       1.575   3.627  17.962  0.00  0.00    +0.000 HD
ENDBRANCH  12  14
ENDBRANCH   1  12
BRANCH   1  16
ATOM     16  N   UNK A   1       3.449   1.421  18.558  0.00  0.00    +0.000 NA
ATOM     17  H   UNK A   1       2.805   0.766  19.056  0.00  0.00    +0.000 HD
ATOM     18  H   UNK A   1       4.283   0.907  18.199  0.00  0.00    +0.000 HD
ENDBRANCH   1  16
TORSDOF 7
ENDMDL
MODEL 4
REMARK VINA RESULT:      -5.4      2.139      2.348
REMARK  Name = 
REMARK  9 active torsions:
REMARK  status: ('A' for Active; 'I' for Inactive)
REMARK    1  A    between atoms: C_1  and  C_2
REMARK    2  A    between atoms: C_2  and  C_3
REMARK    3  A    between atoms: C_2  and  S_4
REMARK    4  A    between atoms: C_2  and  C_5
REMARK    5  A    between atoms: C_5  and  N_6
REMARK    6  A    between atoms: C_5  and  C_7
REMARK    7  A    between atoms: N_9  and  CA_10
REMARK    8  A    between atoms: CA_10  and  C_11
REMARK    9  A    between atoms: C_11  and  OXT_13
REMARK                            x       y       z     vdW  Elec       q    Type
REMARK                         _______ _______ _______ _____ _____    ______ ____
ROOT
ATOM      1  C   UNK A   1       3.588   3.111  18.877  0.00  0.00    +0.000 C 
ENDROOT
BRANCH   1   2
ATOM      2  C   UNK A   1       4.740   3.811  18.180  0.00  0.00    +0.000 C 
ATOM      3  O   UNK A   1       4.627   4.135  17.004  0.00  0.00    +0.000 OA
ATOM      4  N   GLY A   2       5.907   4.052  18.836  0.00  0.00    +0.000 N 
ATOM      5  H   GLY A   2       6.003   3.755  19.820  0.00  0.00    +0.000 HD
BRANCH   4   6
ATOM      6  CA  GLY A   2       7.021   4.710  18.175  0.00  0.00    +0.000 C 
BRANCH   6   7
ATOM      7  C   GLY A   2       7.667   5.723  19.074  0.00  0.00    +0.000 C 
ATOM      8  O   GLY A   2       8.018   6.801  18.622  0.00  0.00    +0.000 OA
BRANCH   7   9
ATOM      9  OXT GLY A   2       7.864   5.460  20.385  0.00  0.00    +0.000 OA
ATOM     10  HXT GLY A   2       7.574   4.626  20.781  0.00  0.00    +0.000 HD
ENDBRANCH   7   9
ENDBRANCH   6   7
ENDBRANCH   4   6
ENDBRANCH   1   2
BRANCH   1  12
ATOM     11  C   UNK A   1       1.409   3.441  20.168  0.00  0.00    +0.000 C 
ATOM     12  C   UNK A   1       2.319   4.027  19.069  0.00  0.00    +0.000 C 
ATOM     13  C   UNK A   1       1.506   4.216  17.769  0.00  0.00    +0.000 C 
BRANCH  12  14
ATOM     14  S   UNK A   1       2.878   5.678  19.640  0.00  0.00    +0.000 S 
ATOM     15  H   UNK A   1       3.489   6.026  18.418  0.00  0.00    +0.000 HD
ENDBRANCH  12  14
ENDBRANCH   1  12
BRANCH   1  16
ATOM     16  N   UNK A   1       3.305   1.864  18.154  0.00  0.00    +0.000 NA
ATOM     17  H   UNK A   1       2.413   1.423  18.473  0.00  0.00    +0.000 HD
ATOM     18  H   UNK A   1       4.094   1.185  18.231  0.00  0.00    +0.000 HD
ENDBRANCH   1  16
TORSDOF 7
ENDMDL
MODEL 5
REMARK VINA RESULT:      -5.4      1.431      1.711
REMARK  Name = 
REMARK  9 active torsions:
REMARK  status: ('A' for Active; 'I' for Inactive)
REMARK    1  A    between atoms: C_1  and  C_2
REMARK    2  A    between atoms: C_2  and  C_3
REMARK    3  A    between atoms: C_2  and  S_4
REMARK    4  A    between atoms: C_2  and  C_5
REMARK    5  A    between atoms: C_5  and  N_6
REMARK    6  A    between atoms: C_5  and  C_7
REMARK    7  A    between atoms: N_9  and  CA_10
REMARK    8  A    between atoms: CA_10  and  C_11
REMARK    9  A    between atoms: C_11  and  OXT_13
REMARK                            x       y       z     vdW  Elec       q    Type
REMARK                         _______ _______ _______ _____ _____    ______ ____
ROOT
ATOM      1  C   UNK A   1       4.189   3.833  19.270  0.00  0.00    +0.000 C 
ENDROOT
BRANCH   1   2
ATOM      2  C   UNK A   1       4.646   4.394  17.935  0.00  0.00    +0.000 C 
ATOM      3  O   UNK A   1       4.372   5.552  17.642  0.00  0.00    +0.000 OA
ATOM      4  N   GLY A   2       5.325   3.617  17.050  0.00  0.00    +0.000 N 
ATOM      5  H   GLY A   2       5.531   2.635  17.295  0.00  0.00    +0.000 HD
BRANCH   4   6
ATOM      6  CA  GLY A   2       5.755   4.140  15.764  0.00  0.00    +0.000 C 
BRANCH   6   7
ATOM      7  C   GLY A   2       7.160   4.665  15.833  0.00  0.00    +0.000 C 
ATOM      8  O   GLY A   2       7.870   4.378  16.783  0.00  0.00    +0.000 OA
BRANCH   7   9
ATOM      9  OXT GLY A   2       7.653   5.453  14.852  0.00  0.00    +0.000 OA
ATOM     10  HXT GLY A   2       7.312   6.346  14.702  0.00  0.00    +0.000 HD
ENDBRANCH   7   9
ENDBRANCH   6   7
ENDBRANCH   4   6
ENDBRANCH   1   2
BRANCH   1  12
ATOM     11  C   UNK A   1       2.244   2.511  20.266  0.00  0.00    +0.000 C 
ATOM     12  C   UNK A   1       2.622   3.736  19.408  0.00  0.00    +0.000 C 
ATOM     13  C   UNK A   1       1.896   3.657  18.046  0.00  0.00    +0.000 C 
BRANCH  12  14
ATOM     14  S   UNK A   1       2.024   5.230  20.290  0.00  0.00    +0.000 S 
ATOM     15  H   UNK A   1       1.733   5.952  19.115  0.00  0.00    +0.000 HD
ENDBRANCH  12  14
ENDBRANCH   1  12
BRANCH   1  16
ATOM     16  N   UNK A   1       4.875   2.553  19.487  0.00  0.00    +0.000 NA
ATOM     17  H   UNK A   1       5.343   2.515  20.420  0.00  0.00    +0.000 HD
ATOM     18  H   UNK A   1       5.562   2.348  18.728  0.00  0.00    +0.000 HD
ENDBRANCH   1  16
TORSDOF 7
ENDMDL
MODEL 6
REMARK VINA RESULT:      -5.4      1.292      1.620
REMARK  Name = 
REMARK  9 active torsions:
REMARK  status: ('A' for Active; 'I' for Inactive)
REMARK    1  A    between atoms: C_1  and  C_2
REMARK    2  A    between atoms: C_2  and  C_3
REMARK    3  A    between atoms: C_2  and  S_4
REMARK    4  A    between atoms: C_2  and  C_5
REMARK    5  A    between atoms: C_5  and  N_6
REMARK    6  A    between atoms: C_5  and  C_7
REMARK    7  A    between atoms: N_9  and  CA_10
REMARK    8  A    between atoms: CA_10  and  C_11
REMARK    9  A    between atoms: C_11  and  OXT_13
REMARK                            x       y       z     vdW  Elec       q    Type
REMARK                         _______ _______ _______ _____ _____    ______ ____
ROOT
ATOM      1  C   UNK A   1       4.232   3.610  19.688  0.00  0.00    +0.000 C 
ENDROOT
BRANCH   1   2
ATOM      2  C   UNK A   1       4.623   4.241  18.363  0.00  0.00    +0.000 C 
ATOM      3  O   UNK A   1       4.310   5.402  18.132  0.00  0.00    +0.000 OA
ATOM      4  N   GLY A   2       5.287   3.521  17.420  0.00  0.00    +0.000 N 
ATOM      5  H   GLY A   2       5.527   2.535  17.613  0.00  0.00    +0.000 HD
BRANCH   4   6
ATOM      6  CA  GLY A   2       5.656   4.110  16.144  0.00  0.00    +0.000 C 
BRANCH   6   7
ATOM      7  C   GLY A   2       7.074   4.601  16.160  0.00  0.00    +0.000 C 
ATOM      8  O   GLY A   2       7.441   5.425  15.338  0.00  0.00    +0.000 OA
BRANCH   7   9
ATOM      9  OXT GLY A   2       7.954   4.145  17.078  0.00  0.00    +0.000 OA
ATOM     10  HXT GLY A   2       8.026   4.549  17.954  0.00  0.00    +0.000 HD
ENDBRANCH   7   9
ENDBRANCH   6   7
ENDBRANCH   4   6
ENDBRANCH   1   2
BRANCH   1  12
ATOM     11  C   UNK A   1       2.078   4.942  20.024  0.00  0.00    +0.000 C 
ATOM     12  C   UNK A   1       2.673   3.523  19.906  0.00  0.00    +0.000 C 
ATOM     13  C   UNK A   1       2.280   2.692  21.149  0.00  0.00    +0.000 C 
BRANCH  12  14
ATOM     14  S   UNK A   1       1.924   2.734  18.429  0.00  0.00    +0.000 S 
ATOM     15  H   UNK A   1       0.972   1.994  19.159  0.00  0.00    +0.000 HD
ENDBRANCH  12  14
ENDBRANCH   1  12
BRANCH   1  16
ATOM     16  N   UNK A   1       4.909   2.311  19.794  0.00  0.00    +0.000 NA
ATOM     17  H   UNK A   1       4.330   1.536  19.400  0.00  0.00    +0.000 HD
ATOM     18  H   UNK A   1       5.182   2.097  20.779  0.00  0.00    +0.000 HD
ENDBRANCH   1  16
TORSDOF 7
ENDMDL
MODEL 7
REMARK VINA RESULT:      -5.4      1.523      1.703
REMARK  Name = 
REMARK  9 active torsions:
REMARK  status: ('A' for Active; 'I' for Inactive)
REMARK    1  A    between atoms: C_1  and  C_2
REMARK    2  A    between atoms: C_2  and  C_3
REMARK    3  A    between atoms: C_2  and  S_4
REMARK    4  A    between atoms: C_2  and  C_5
REMARK    5  A    between atoms: C_5  and  N_6
REMARK    6  A    between atoms: C_5  and  C_7
REMARK    7  A    between atoms: N_9  and  CA_10
REMARK    8  A    between atoms: CA_10  and  C_11
REMARK    9  A    between atoms: C_11  and  OXT_13
REMARK                            x       y       z     vdW  Elec       q    Type
REMARK                         _______ _______ _______ _____ _____    ______ ____
ROOT
ATOM      1  C   UNK A   1       4.308   3.382  19.464  0.00  0.00    +0.000 C 
ENDROOT
BRANCH   1   2
ATOM      2  C   UNK A   1       5.324   4.461  19.137  0.00  0.00    +0.000 C 
ATOM      3  O   UNK A   1       5.086   5.625  19.435  0.00  0.00    +0.000 OA
ATOM      4  N   GLY A   2       6.480   4.154  18.489  0.00  0.00    +0.000 N 
ATOM      5  H   GLY A   2       6.662   3.174  18.220  0.00  0.00    +0.000 HD
BRANCH   4   6
ATOM      6  CA  GLY A   2       7.454   5.180  18.160  0.00  0.00    +0.000 C 
BRANCH   6   7
ATOM      7  C   GLY A   2       7.285   5.659  16.747  0.00  0.00    +0.000 C 
ATOM      8  O   GLY A   2       7.001   6.827  16.531  0.00  0.00    +0.000 OA
BRANCH   7   9
ATOM      9  OXT GLY A   2       7.446   4.814  15.706  0.00  0.00    +0.000 OA
ATOM     10  HXT GLY A   2       7.476   5.135  14.794  0.00  0.00    +0.000 HD
ENDBRANCH   7   9
ENDBRANCH   6   7
ENDBRANCH   4   6
ENDBRANCH   1   2
BRANCH   1  12
ATOM     11  C   UNK A   1       2.916   1.679  18.165  0.00  0.00    +0.000 C 
ATOM     12  C   UNK A   1       3.221   3.181  18.339  0.00  0.00    +0.000 C 
ATOM     13  C   UNK A   1       3.637   3.786  16.979  0.00  0.00    +0.000 C 
BRANCH  12  14
ATOM     14  S   UNK A   1       1.670   3.999  18.880  0.00  0.00    +0.000 S 
ATOM     15  H   UNK A   1       0.837   3.252  18.021  0.00  0.00    +0.000 HD
ENDBRANCH  12  14
ENDBRANCH   1  12
BRANCH   1  16
ATOM     16  N   UNK A   1       5.036   2.152  19.799  0.00  0.00    +0.000 NA
ATOM     17  H   UNK A   1       4.593   1.308  19.372  0.00  0.00    +0.000 HD
ATOM     18  H   UNK A   1       5.134   2.029  20.831  0.00  0.00    +0.000 HD
ENDBRANCH   1  16
TORSDOF 7
ENDMDL
MODEL 8
REMARK VINA RESULT:      -5.4      1.518      1.543
REMARK  Name = 
REMARK  9 active torsions:
REMARK  status: ('A' for Active; 'I' for Inactive)
REMARK    1  A    between atoms: C_1  and  C_2
REMARK    2  A    between atoms: C_2  and  C_3
REMARK    3  A    between atoms: C_2  and  S_4
REMARK    4  A    between atoms: C_2  and  C_5
REMARK    5  A    between atoms: C_5  and  N_6
REMARK    6  A    between atoms: C_5  and  C_7
REMARK    7  A    between atoms: N_9  and  CA_10
REMARK    8  A    between atoms: CA_10  and  C_11
REMARK    9  A    between atoms: C_11  and  OXT_13
REMARK                            x       y       z     vdW  Elec       q    Type
REMARK                         _______ _______ _______ _____ _____    ______ ____
ROOT
ATOM      1  C   UNK A   1       3.276   2.628  19.069  0.00  0.00    +0.000 C 
ENDROOT
BRANCH   1   2
ATOM      2  C   UNK A   1       3.851   3.426  17.913  0.00  0.00    +0.000 C 
ATOM      3  O   UNK A   1       3.161   3.636  16.923  0.00  0.00    +0.000 OA
ATOM      4  N   GLY A   2       5.132   3.882  17.952  0.00  0.00    +0.000 N 
ATOM      5  H   GLY A   2       5.714   3.680  18.781  0.00  0.00    +0.000 HD
BRANCH   4   6
ATOM      6  CA  GLY A   2       5.696   4.636  16.846  0.00  0.00    +0.000 C 
BRANCH   6   7
ATOM      7  C   GLY A   2       7.189   4.484  16.788  0.00  0.00    +0.000 C 
ATOM      8  O   GLY A   2       7.787   4.751  15.758  0.00  0.00    +0.000 OA
BRANCH   7   9
ATOM      9  OXT GLY A   2       7.883   4.057  17.865  0.00  0.00    +0.000 OA
ATOM     10  HXT GLY A   2       8.271   3.171  17.898  0.00  0.00    +0.000 HD
ENDBRANCH   7   9
ENDBRANCH   6   7
ENDBRANCH   4   6
ENDBRANCH   1   2
BRANCH   1  12
ATOM     11  C   UNK A   1       0.738   2.889  19.192  0.00  0.00    +0.000 C 
ATOM     12  C   UNK A   1       2.080   3.350  19.799  0.00  0.00    +0.000 C 
ATOM     13  C   UNK A   1       2.173   4.891  19.738  0.00  0.00    +0.000 C 
BRANCH  12  14
ATOM     14  S   UNK A   1       2.087   2.845  21.563  0.00  0.00    +0.000 S 
ATOM     15  H   UNK A   1       3.309   2.146  21.481  0.00  0.00    +0.000 HD
ENDBRANCH  12  14
ENDBRANCH   1  12
BRANCH   1  16
ATOM     16  N   UNK A   1       2.936   1.288  18.576  0.00  0.00    +0.000 NA
ATOM     17  H   UNK A   1       2.725   1.291  17.552  0.00  0.00    +0.000 HD
ATOM     18  H   UNK A   1       2.142   0.868  19.109  0.00  0.00    +0.000 HD
ENDBRANCH   1  16
TORSDOF 7
ENDMDL
MODEL 9
REMARK VINA RESULT:      -5.4      1.584      1.876
REMARK  Name = 
REMARK  9 active torsions:
REMARK  status: ('A' for Active; 'I' for Inactive)
REMARK    1  A    between atoms: C_1  and  C_2
REMARK    2  A    between atoms: C_2  and  C_3
REMARK    3  A    between atoms: C_2  and  S_4
REMARK    4  A    between atoms: C_2  and  C_5
REMARK    5  A    between atoms: C_5  and  N_6
REMARK    6  A    between atoms: C_5  and  C_7
REMARK    7  A    between atoms: N_9  and  CA_10
REMARK    8  A    between atoms: CA_10  and  C_11
REMARK    9  A    between atoms: C_11  and  OXT_13
REMARK                            x       y       z     vdW  Elec       q    Type
REMARK                         _______ _______ _______ _____ _____    ______ ____
ROOT
ATOM      1  C   UNK A   1       4.373   3.602  19.570  0.00  0.00    +0.000 C 
ENDROOT
BRANCH   1   2
ATOM      2  C   UNK A   1       5.538   4.439  19.073  0.00  0.00    +0.000 C 
ATOM      3  O   UNK A   1       5.787   5.508  19.615  0.00  0.00    +0.000 OA
ATOM      4  N   GLY A   2       6.285   4.030  18.012  0.00  0.00    +0.000 N 
ATOM      5  H   GLY A   2       6.053   3.138  17.546  0.00  0.00    +0.000 HD
BRANCH   4   6
ATOM      6  CA  GLY A   2       7.394   4.830  17.520  0.00  0.00    +0.000 C 
BRANCH   6   7
ATOM      7  C   GLY A   2       7.012   5.585  16.280  0.00  0.00    +0.000 C 
ATOM      8  O   GLY A   2       6.209   6.502  16.350  0.00  0.00    +0.000 OA
BRANCH   7   9
ATOM      9  OXT GLY A   2       7.549   5.266  15.082  0.00  0.00    +0.000 OA
ATOM     10  HXT GLY A   2       7.750   4.349  14.847  0.00  0.00    +0.000 HD
ENDBRANCH   7   9
ENDBRANCH   6   7
ENDBRANCH   4   6
ENDBRANCH   1   2
BRANCH   1  12
ATOM     11  C   UNK A   1       3.249   4.934  17.703  0.00  0.00    +0.000 C 
ATOM     12  C   UNK A   1       3.051   3.805  18.736  0.00  0.00    +0.000 C 
ATOM     13  C   UNK A   1       1.820   4.119  19.616  0.00  0.00    +0.000 C 
BRANCH  12  14
ATOM     14  S   UNK A   1       2.711   2.261  17.805  0.00  0.00    +0.000 S 
ATOM     15  H   UNK A   1       2.341   2.920  16.614  0.00  0.00    +0.000 HD
ENDBRANCH  12  14
ENDBRANCH   1  12
BRANCH   1  16
ATOM     16  N   UNK A   1       4.812   2.202  19.638  0.00  0.00    +0.000 NA
ATOM     17  H   UNK A   1       4.248   1.586  19.010  0.00  0.00    +0.000 HD
ATOM     18  H   UNK A   1       4.793   1.837  20.616  0.00  0.00    +0.000 HD
ENDBRANCH   1  16
TORSDOF 7
ENDMDL
