MODEL 1
REMARK VINA RESULT:      -8.3      0.000      0.000
REMARK  Name = 
REMARK  8 active torsions:
REMARK  status: ('A' for Active; 'I' for Inactive)
REMARK    1  A    between atoms: C_1  and  N_2
REMARK    2  A    between atoms: N_2  and  C_3
REMARK    3  A    between atoms: N_6  and  C_7
REMARK    4  A    between atoms: N_9  and  C_10
REMARK    5  A    between atoms: C_10  and  C_11
REMARK    6  A    between atoms: C_11  and  C_12
REMARK    7  A    between atoms: C_15  and  C_16
REMARK    8  A    between atoms: C_19  and  C_20
REMARK                            x       y       z     vdW  Elec       q    Type
REMARK                         _______ _______ _______ _____ _____    ______ ____
ROOT
ATOM      1  C   UNL     1       2.848   4.734  18.951  0.00  0.00    +0.000 A 
ATOM      2  N   UNL     1       4.102   4.792  18.475  0.00  0.00    +0.000 NA
ATOM      3  C   UNL     1       5.019   3.891  18.856  0.00  0.00    +0.000 A 
ATOM      4  N   UNL     1       6.291   3.940  18.284  0.00  0.00    +0.000 N 
ATOM      5  N   UNL     1       4.767   2.942  19.758  0.00  0.00    +0.000 NA
ATOM      6  C   UNL     1       3.499   2.885  20.214  0.00  0.00    +0.000 A 
ATOM      7  C   UNL     1       2.487   3.750  19.837  0.00  0.00    +0.000 A 
ATOM      8  H   UNL     1       6.915   3.312  18.772  0.00  0.00    +0.000 HD
ENDROOT
BRANCH   4   9
ATOM      9  C   UNL     1       6.597   4.435  17.067  0.00  0.00    +0.000 A 
ATOM     10  C   UNL     1       6.400   3.799  15.867  0.00  0.00    +0.000 A 
ATOM     11  N   UNL     1       6.890   4.634  14.918  0.00  0.00    +0.000 N 
ATOM     12  N   UNL     1       7.359   5.796  15.406  0.00  0.00    +0.000 NA
ATOM     13  C   UNL     1       7.199   5.673  16.735  0.00  0.00    +0.000 A 
ATOM     14  C   UNL     1       7.579   6.779  17.643  0.00  0.00    +0.000 C 
BRANCH  11  15
ATOM     15  C   UNL     1       6.983   4.343  13.505  0.00  0.00    +0.000 C 
BRANCH  15  16
ATOM     16  C   UNL     1       5.670   3.871  12.920  0.00  0.00    +0.000 C 
BRANCH  16  17
ATOM     17  C   UNL     1       5.826   2.652  12.026  0.00  0.00    +0.000 C 
ATOM     18  N   UNL     1       5.956   1.641  11.285  0.00  0.00    +0.000 NA
ENDBRANCH  16  17
ENDBRANCH  15  16
ENDBRANCH  11  15
ENDBRANCH   4   9
BRANCH   7  19
ATOM     19  C   UNL     1       1.127   3.553  20.393  0.00  0.00    +0.000 C 
ATOM     20  F   UNL     1       0.442   4.690  20.701  0.00  0.00    +0.000 F 
ATOM     21  F   UNL     1       0.320   2.887  19.513  0.00  0.00    +0.000 F 
ATOM     22  F   UNL     1       1.124   2.796  21.525  0.00  0.00    +0.000 F 
ENDBRANCH   7  19
BRANCH   1  24
ATOM     23  C   UNL     1       2.463   7.100  18.691  0.00  0.00    +0.000 C 
ATOM     24  N   UNL     1       1.961   5.738  18.551  0.00  0.00    +0.000 N 
ATOM     25  H   UNL     1       1.585   5.561  17.622  0.00  0.00    +0.000 HD
ENDBRANCH   1  24
TORSDOF 6
ENDMDL
MODEL 2
REMARK VINA RESULT:      -8.1      2.049      4.423
REMARK  Name = 
REMARK  8 active torsions:
REMARK  status: ('A' for Active; 'I' for Inactive)
REMARK    1  A    between atoms: C_1  and  N_2
REMARK    2  A    between atoms: N_2  and  C_3
REMARK    3  A    between atoms: N_6  and  C_7
REMARK    4  A    between atoms: N_9  and  C_10
REMARK    5  A    between atoms: C_10  and  C_11
REMARK    6  A    between atoms: C_11  and  C_12
REMARK    7  A    between atoms: C_15  and  C_16
REMARK    8  A    between atoms: C_19  and  C_20
REMARK                            x       y       z     vdW  Elec       q    Type
REMARK                         _______ _______ _______ _____ _____    ______ ____
ROOT
ATOM      1  C   UNL     1       3.151   4.892  19.991  0.00  0.00    +0.000 A 
ATOM      2  N   UNL     1       4.410   5.013  19.542  0.00  0.00    +0.000 NA
ATOM      3  C   UNL     1       5.134   3.925  19.241  0.00  0.00    +0.000 A 
ATOM      4  N   UNL     1       6.413   4.093  18.707  0.00  0.00    +0.000 N 
ATOM      5  N   UNL     1       4.683   2.684  19.423  0.00  0.00    +0.000 NA
ATOM      6  C   UNL     1       3.410   2.579  19.857  0.00  0.00    +0.000 A 
ATOM      7  C   UNL     1       2.586   3.651  20.149  0.00  0.00    +0.000 A 
ATOM      8  H   UNL     1       6.895   3.205  18.677  0.00  0.00    +0.000 HD
ENDROOT
BRANCH   4   9
ATOM      9  C   UNL     1       6.847   5.156  18.000  0.00  0.00    +0.000 A 
ATOM     10  C   UNL     1       7.277   6.349  18.524  0.00  0.00    +0.000 A 
ATOM     11  N   UNL     1       7.572   7.138  17.463  0.00  0.00    +0.000 N 
ATOM     12  N   UNL     1       7.405   6.534  16.273  0.00  0.00    +0.000 NA
ATOM     13  C   UNL     1       6.940   5.315  16.596  0.00  0.00    +0.000 A 
ATOM     14  C   UNL     1       6.651   4.317  15.541  0.00  0.00    +0.000 C 
BRANCH  11  15
ATOM     15  C   UNL     1       7.977   8.524  17.528  0.00  0.00    +0.000 C 
BRANCH  15  16
ATOM     16  C   UNL     1       8.697   8.860  18.816  0.00  0.00    +0.000 C 
BRANCH  16  17
ATOM     17  C   UNL     1       9.173  10.303  18.867  0.00  0.00    +0.000 C 
ATOM     18  N   UNL     1       9.567  11.500  18.910  0.00  0.00    +0.000 NA
ENDBRANCH  16  17
ENDBRANCH  15  16
ENDBRANCH  11  15
ENDBRANCH   4   9
BRANCH   7  19
ATOM     19  C   UNL     1       1.194   3.392  20.588  0.00  0.00    +0.000 C 
ATOM     20  F   UNL     1       1.054   2.885  21.844  0.00  0.00    +0.000 F 
ATOM     21  F   UNL     1       0.448   4.537  20.587  0.00  0.00    +0.000 F 
ATOM     22  F   UNL     1       0.532   2.533  19.762  0.00  0.00    +0.000 F 
ENDBRANCH   7  19
BRANCH   1  24
ATOM     23  C   UNL     1       2.415   7.077  19.286  0.00  0.00    +0.000 C 
ATOM     24  N   UNL     1       2.476   6.067  20.336  0.00  0.00    +0.000 N 
ATOM     25  H   UNL     1       1.560   5.871  20.735  0.00  0.00    +0.000 HD
ENDBRANCH   1  24
TORSDOF 6
ENDMDL
MODEL 3
REMARK VINA RESULT:      -8.0      2.433      4.431
REMARK  Name = 
REMARK  8 active torsions:
REMARK  status: ('A' for Active; 'I' for Inactive)
REMARK    1  A    between atoms: C_1  and  N_2
REMARK    2  A    between atoms: N_2  and  C_3
REMARK    3  A    between atoms: N_6  and  C_7
REMARK    4  A    between atoms: N_9  and  C_10
REMARK    5  A    between atoms: C_10  and  C_11
REMARK    6  A    between atoms: C_11  and  C_12
REMARK    7  A    between atoms: C_15  and  C_16
REMARK    8  A    between atoms: C_19  and  C_20
REMARK                            x       y       z     vdW  Elec       q    Type
REMARK                         _______ _______ _______ _____ _____    ______ ____
ROOT
ATOM      1  C   UNL     1       3.029   4.683  20.069  0.00  0.00    +0.000 A 
ATOM      2  N   UNL     1       4.275   4.826  19.589  0.00  0.00    +0.000 NA
ATOM      3  C   UNL     1       4.845   3.849  18.869  0.00  0.00    +0.000 A 
ATOM      4  N   UNL     1       6.111   4.063  18.325  0.00  0.00    +0.000 N 
ATOM      5  N   UNL     1       4.249   2.677  18.642  0.00  0.00    +0.000 NA
ATOM      6  C   UNL     1       2.992   2.556  19.115  0.00  0.00    +0.000 A 
ATOM      7  C   UNL     1       2.320   3.533  19.829  0.00  0.00    +0.000 A 
ATOM      8  H   UNL     1       6.477   3.200  17.947  0.00  0.00    +0.000 HD
ENDROOT
BRANCH   4   9
ATOM      9  C   UNL     1       6.646   5.258  18.001  0.00  0.00    +0.000 A 
ATOM     10  C   UNL     1       7.536   5.974  18.763  0.00  0.00    +0.000 A 
ATOM     11  N   UNL     1       7.770   7.122  18.083  0.00  0.00    +0.000 N 
ATOM     12  N   UNL     1       7.127   7.196  16.903  0.00  0.00    +0.000 NA
ATOM     13  C   UNL     1       6.417   6.056  16.855  0.00  0.00    +0.000 A 
ATOM     14  C   UNL     1       5.579   5.743  15.674  0.00  0.00    +0.000 C 
BRANCH  11  15
ATOM     15  C   UNL     1       8.575   8.229  18.547  0.00  0.00    +0.000 C 
BRANCH  15  16
ATOM     16  C   UNL     1       8.228   9.531  17.857  0.00  0.00    +0.000 C 
BRANCH  16  17
ATOM     17  C   UNL     1       9.116  10.685  18.293  0.00  0.00    +0.000 C 
ATOM     18  N   UNL     1       9.852  11.642  18.654  0.00  0.00    +0.000 NA
ENDBRANCH  16  17
ENDBRANCH  15  16
ENDBRANCH  11  15
ENDBRANCH   4   9
BRANCH   7  19
ATOM     19  C   UNL     1       0.925   3.278  20.262  0.00  0.00    +0.000 C 
ATOM     20  F   UNL     1       0.119   4.374  20.334  0.00  0.00    +0.000 F 
ATOM     21  F   UNL     1       0.284   2.428  19.405  0.00  0.00    +0.000 F 
ATOM     22  F   UNL     1       0.853   2.679  21.483  0.00  0.00    +0.000 F 
ENDBRANCH   7  19
BRANCH   1  24
ATOM     23  C   UNL     1       2.162   6.932  20.130  0.00  0.00    +0.000 C 
ATOM     24  N   UNL     1       2.521   5.720  20.857  0.00  0.00    +0.000 N 
ATOM     25  H   UNL     1       1.769   5.398  21.463  0.00  0.00    +0.000 HD
ENDBRANCH   1  24
TORSDOF 6
ENDMDL
MODEL 4
REMARK VINA RESULT:      -7.6      0.871      1.188
REMARK  Name = 
REMARK  8 active torsions:
REMARK  status: ('A' for Active; 'I' for Inactive)
REMARK    1  A    between atoms: C_1  and  N_2
REMARK    2  A    between atoms: N_2  and  C_3
REMARK    3  A    between atoms: N_6  and  C_7
REMARK    4  A    between atoms: N_9  and  C_10
REMARK    5  A    between atoms: C_10  and  C_11
REMARK    6  A    between atoms: C_11  and  C_12
REMARK    7  A    between atoms: C_15  and  C_16
REMARK    8  A    between atoms: C_19  and  C_20
REMARK                            x       y       z     vdW  Elec       q    Type
REMARK                         _______ _______ _______ _____ _____    ______ ____
ROOT
ATOM      1  C   UNL     1       2.926   4.393  19.316  0.00  0.00    +0.000 A 
ATOM      2  N   UNL     1       4.163   4.592  18.836  0.00  0.00    +0.000 NA
ATOM      3  C   UNL     1       5.155   3.738  19.132  0.00  0.00    +0.000 A 
ATOM      4  N   UNL     1       6.410   3.937  18.555  0.00  0.00    +0.000 N 
ATOM      5  N   UNL     1       4.992   2.698  19.951  0.00  0.00    +0.000 NA
ATOM      6  C   UNL     1       3.740   2.502  20.410  0.00  0.00    +0.000 A 
ATOM      7  C   UNL     1       2.657   3.312  20.117  0.00  0.00    +0.000 A 
ATOM      8  H   UNL     1       7.089   3.322  18.982  0.00  0.00    +0.000 HD
ENDROOT
BRANCH   4   9
ATOM      9  C   UNL     1       6.658   4.557  17.383  0.00  0.00    +0.000 A 
ATOM     10  C   UNL     1       6.358   4.069  16.136  0.00  0.00    +0.000 A 
ATOM     11  N   UNL     1       6.819   4.989  15.254  0.00  0.00    +0.000 N 
ATOM     12  N   UNL     1       7.368   6.071  15.836  0.00  0.00    +0.000 NA
ATOM     13  C   UNL     1       7.288   5.803  17.150  0.00  0.00    +0.000 A 
ATOM     14  C   UNL     1       7.772   6.784  18.148  0.00  0.00    +0.000 C 
BRANCH  11  15
ATOM     15  C   UNL     1       6.809   4.858  13.815  0.00  0.00    +0.000 C 
BRANCH  15  16
ATOM     16  C   UNL     1       6.471   3.455  13.361  0.00  0.00    +0.000 C 
BRANCH  16  17
ATOM     17  C   UNL     1       5.326   3.418  12.361  0.00  0.00    +0.000 C 
ATOM     18  N   UNL     1       4.377   3.387  11.532  0.00  0.00    +0.000 NA
ENDBRANCH  16  17
ENDBRANCH  15  16
ENDBRANCH  11  15
ENDBRANCH   4   9
BRANCH   7  19
ATOM     19  C   UNL     1       1.325   2.960  20.665  0.00  0.00    +0.000 C 
ATOM     20  F   UNL     1       1.329   2.134  21.749  0.00  0.00    +0.000 F 
ATOM     21  F   UNL     1       0.643   4.071  21.075  0.00  0.00    +0.000 F 
ATOM     22  F   UNL     1       0.516   2.363  19.744  0.00  0.00    +0.000 F 
ENDBRANCH   7  19
BRANCH   1  24
ATOM     23  C   UNL     1       1.526   5.379  17.618  0.00  0.00    +0.000 C 
ATOM     24  N   UNL     1       1.956   5.353  19.011  0.00  0.00    +0.000 N 
ATOM     25  H   UNL     1       1.170   5.312  19.656  0.00  0.00    +0.000 HD
ENDBRANCH   1  24
TORSDOF 6
ENDMDL
MODEL 5
REMARK VINA RESULT:      -7.5      1.450      2.305
REMARK  Name = 
REMARK  8 active torsions:
REMARK  status: ('A' for Active; 'I' for Inactive)
REMARK    1  A    between atoms: C_1  and  N_2
REMARK    2  A    between atoms: N_2  and  C_3
REMARK    3  A    between atoms: N_6  and  C_7
REMARK    4  A    between atoms: N_9  and  C_10
REMARK    5  A    between atoms: C_10  and  C_11
REMARK    6  A    between atoms: C_11  and  C_12
REMARK    7  A    between atoms: C_15  and  C_16
REMARK    8  A    between atoms: C_19  and  C_20
REMARK                            x       y       z     vdW  Elec       q    Type
REMARK                         _______ _______ _______ _____ _____    ______ ____
ROOT
ATOM      1  C   UNL     1       2.692   3.484  18.192  0.00  0.00    +0.000 A 
ATOM      2  N   UNL     1       3.423   4.271  17.388  0.00  0.00    +0.000 NA
ATOM      3  C   UNL     1       3.599   5.568  17.679  0.00  0.00    +0.000 A 
ATOM      4  N   UNL     1       4.426   6.337  16.859  0.00  0.00    +0.000 N 
ATOM      5  N   UNL     1       3.023   6.158  18.727  0.00  0.00    +0.000 NA
ATOM      6  C   UNL     1       2.306   5.350  19.535  0.00  0.00    +0.000 A 
ATOM      7  C   UNL     1       2.113   3.996  19.326  0.00  0.00    +0.000 A 
ATOM      8  H   UNL     1       4.342   7.315  17.102  0.00  0.00    +0.000 HD
ENDROOT
BRANCH   4   9
ATOM      9  C   UNL     1       5.451   5.882  16.110  0.00  0.00    +0.000 A 
ATOM     10  C   UNL     1       5.342   5.268  14.888  0.00  0.00    +0.000 A 
ATOM     11  N   UNL     1       6.605   4.937  14.523  0.00  0.00    +0.000 N 
ATOM     12  N   UNL     1       7.544   5.327  15.402  0.00  0.00    +0.000 NA
ATOM     13  C   UNL     1       6.838   5.895  16.394  0.00  0.00    +0.000 A 
ATOM     14  C   UNL     1       7.527   6.487  17.565  0.00  0.00    +0.000 C 
BRANCH  11  15
ATOM     15  C   UNL     1       6.973   4.186  13.344  0.00  0.00    +0.000 C 
BRANCH  15  16
ATOM     16  C   UNL     1       5.773   3.630  12.610  0.00  0.00    +0.000 C 
BRANCH  16  17
ATOM     17  C   UNL     1       6.099   2.382  11.806  0.00  0.00    +0.000 C 
ATOM     18  N   UNL     1       6.370   1.346  11.140  0.00  0.00    +0.000 NA
ENDBRANCH  16  17
ENDBRANCH  15  16
ENDBRANCH  11  15
ENDBRANCH   4   9
BRANCH   7  19
ATOM     19  C   UNL     1       1.328   3.219  20.315  0.00  0.00    +0.000 C 
ATOM     20  F   UNL     1       1.955   2.131  20.845  0.00  0.00    +0.000 F 
ATOM     21  F   UNL     1       0.985   3.985  21.394  0.00  0.00    +0.000 F 
ATOM     22  F   UNL     1       0.148   2.762  19.810  0.00  0.00    +0.000 F 
ENDBRANCH   7  19
BRANCH   1  24
ATOM     23  C   UNL     1       3.606   1.254  18.119  0.00  0.00    +0.000 C 
ATOM     24  N   UNL     1       2.506   2.156  17.796  0.00  0.00    +0.000 N 
ATOM     25  H   UNL     1       1.607   1.793  18.106  0.00  0.00    +0.000 HD
ENDBRANCH   1  24
TORSDOF 6
ENDMDL
MODEL 6
REMARK VINA RESULT:      -7.3      1.538      2.232
REMARK  Name = 
REMARK  8 active torsions:
REMARK  status: ('A' for Active; 'I' for Inactive)
REMARK    1  A    between atoms: C_1  and  N_2
REMARK    2  A    between atoms: N_2  and  C_3
REMARK    3  A    between atoms: N_6  and  C_7
REMARK    4  A    between atoms: N_9  and  C_10
REMARK    5  A    between atoms: C_10  and  C_11
REMARK    6  A    between atoms: C_11  and  C_12
REMARK    7  A    between atoms: C_15  and  C_16
REMARK    8  A    between atoms: C_19  and  C_20
REMARK                            x       y       z     vdW  Elec       q    Type
REMARK                         _______ _______ _______ _____ _____    ______ ____
ROOT
ATOM      1  C   UNL     1       2.796   3.473  18.357  0.00  0.00    +0.000 A 
ATOM      2  N   UNL     1       3.526   4.228  17.521  0.00  0.00    +0.000 NA
ATOM      3  C   UNL     1       3.776   5.515  17.807  0.00  0.00    +0.000 A 
ATOM      4  N   UNL     1       4.600   6.248  16.952  0.00  0.00    +0.000 N 
ATOM      5  N   UNL     1       3.277   6.126  18.882  0.00  0.00    +0.000 NA
ATOM      6  C   UNL     1       2.561   5.349  19.721  0.00  0.00    +0.000 A 
ATOM      7  C   UNL     1       2.295   4.006  19.518  0.00  0.00    +0.000 A 
ATOM      8  H   UNL     1       4.573   7.227  17.201  0.00  0.00    +0.000 HD
ENDROOT
BRANCH   4   9
ATOM      9  C   UNL     1       5.566   5.747  16.156  0.00  0.00    +0.000 A 
ATOM     10  C   UNL     1       5.464   5.535  14.804  0.00  0.00    +0.000 A 
ATOM     11  N   UNL     1       6.642   4.984  14.422  0.00  0.00    +0.000 N 
ATOM     12  N   UNL     1       7.531   4.856  15.423  0.00  0.00    +0.000 NA
ATOM     13  C   UNL     1       6.867   5.308  16.500  0.00  0.00    +0.000 A 
ATOM     14  C   UNL     1       7.529   5.357  17.825  0.00  0.00    +0.000 C 
BRANCH  11  15
ATOM     15  C   UNL     1       6.959   4.503  13.097  0.00  0.00    +0.000 C 
BRANCH  15  16
ATOM     16  C   UNL     1       6.317   3.167  12.793  0.00  0.00    +0.000 C 
BRANCH  16  17
ATOM     17  C   UNL     1       5.082   3.290  11.916  0.00  0.00    +0.000 C 
ATOM     18  N   UNL     1       4.058   3.393  11.188  0.00  0.00    +0.000 NA
ENDBRANCH  16  17
ENDBRANCH  15  16
ENDBRANCH  11  15
ENDBRANCH   4   9
BRANCH   7  19
ATOM     19  C   UNL     1       1.521   3.262  20.540  0.00  0.00    +0.000 C 
ATOM     20  F   UNL     1       1.200   3.961  21.664  0.00  0.00    +0.000 F 
ATOM     21  F   UNL     1       0.323   2.831  20.043  0.00  0.00    +0.000 F 
ATOM     22  F   UNL     1       2.158   2.136  20.968  0.00  0.00    +0.000 F 
ENDBRANCH   7  19
BRANCH   1  24
ATOM     23  C   UNL     1       3.610   1.208  18.211  0.00  0.00    +0.000 C 
ATOM     24  N   UNL     1       2.530   2.157  17.967  0.00  0.00    +0.000 N 
ATOM     25  H   UNL     1       1.639   1.828  18.333  0.00  0.00    +0.000 HD
ENDBRANCH   1  24
TORSDOF 6
ENDMDL
MODEL 7
REMARK VINA RESULT:      -7.1      1.514      2.394
REMARK  Name = 
REMARK  8 active torsions:
REMARK  status: ('A' for Active; 'I' for Inactive)
REMARK    1  A    between atoms: C_1  and  N_2
REMARK    2  A    between atoms: N_2  and  C_3
REMARK    3  A    between atoms: N_6  and  C_7
REMARK    4  A    between atoms: N_9  and  C_10
REMARK    5  A    between atoms: C_10  and  C_11
REMARK    6  A    between atoms: C_11  and  C_12
REMARK    7  A    between atoms: C_15  and  C_16
REMARK    8  A    between atoms: C_19  and  C_20
REMARK                            x       y       z     vdW  Elec       q    Type
REMARK                         _______ _______ _______ _____ _____    ______ ____
ROOT
ATOM      1  C   UNL     1       3.413   3.516  19.033  0.00  0.00    +0.000 A 
ATOM      2  N   UNL     1       3.906   4.350  18.104  0.00  0.00    +0.000 NA
ATOM      3  C   UNL     1       3.874   5.677  18.293  0.00  0.00    +0.000 A 
ATOM      4  N   UNL     1       4.463   6.508  17.339  0.00  0.00    +0.000 N 
ATOM      5  N   UNL     1       3.307   6.241  19.360  0.00  0.00    +0.000 NA
ATOM      6  C   UNL     1       2.832   5.390  20.292  0.00  0.00    +0.000 A 
ATOM      7  C   UNL     1       2.867   4.011  20.191  0.00  0.00    +0.000 A 
ATOM      8  H   UNL     1       4.229   7.473  17.528  0.00  0.00    +0.000 HD
ENDROOT
BRANCH   4   9
ATOM      9  C   UNL     1       5.473   6.177  16.510  0.00  0.00    +0.000 A 
ATOM     10  C   UNL     1       5.339   5.645  15.252  0.00  0.00    +0.000 A 
ATOM     11  N   UNL     1       6.600   5.427  14.803  0.00  0.00    +0.000 N 
ATOM     12  N   UNL     1       7.558   5.817  15.663  0.00  0.00    +0.000 NA
ATOM     13  C   UNL     1       6.870   6.264  16.727  0.00  0.00    +0.000 A 
ATOM     14  C   UNL     1       7.580   6.816  17.903  0.00  0.00    +0.000 C 
BRANCH  11  15
ATOM     15  C   UNL     1       6.953   4.788  13.555  0.00  0.00    +0.000 C 
BRANCH  15  16
ATOM     16  C   UNL     1       6.311   3.427  13.397  0.00  0.00    +0.000 C 
BRANCH  16  17
ATOM     17  C   UNL     1       5.242   3.401  12.316  0.00  0.00    +0.000 C 
ATOM     18  N   UNL     1       4.356   3.379  11.420  0.00  0.00    +0.000 NA
ENDBRANCH  16  17
ENDBRANCH  15  16
ENDBRANCH  11  15
ENDBRANCH   4   9
BRANCH   7  19
ATOM     19  C   UNL     1       2.337   3.193  21.308  0.00  0.00    +0.000 C 
ATOM     20  F   UNL     1       3.147   2.186  21.741  0.00  0.00    +0.000 F 
ATOM     21  F   UNL     1       2.102   3.955  22.418  0.00  0.00    +0.000 F 
ATOM     22  F   UNL     1       1.141   2.610  21.014  0.00  0.00    +0.000 F 
ENDBRANCH   7  19
BRANCH   1  24
ATOM     23  C   UNL     1       2.322   1.673  17.925  0.00  0.00    +0.000 C 
ATOM     24  N   UNL     1       3.431   2.148  18.744  0.00  0.00    +0.000 N 
ATOM     25  H   UNL     1       4.334   1.853  18.378  0.00  0.00    +0.000 HD
ENDBRANCH   1  24
TORSDOF 6
ENDMDL
MODEL 8
REMARK VINA RESULT:      -7.0      1.526      2.452
REMARK  Name = 
REMARK  8 active torsions:
REMARK  status: ('A' for Active; 'I' for Inactive)
REMARK    1  A    between atoms: C_1  and  N_2
REMARK    2  A    between atoms: N_2  and  C_3
REMARK    3  A    between atoms: N_6  and  C_7
REMARK    4  A    between atoms: N_9  and  C_10
REMARK    5  A    between atoms: C_10  and  C_11
REMARK    6  A    between atoms: C_11  and  C_12
REMARK    7  A    between atoms: C_15  and  C_16
REMARK    8  A    between atoms: C_19  and  C_20
REMARK                            x       y       z     vdW  Elec       q    Type
REMARK                         _______ _______ _______ _____ _____    ______ ____
ROOT
ATOM      1  C   UNL     1       2.863   4.528  18.661  0.00  0.00    +0.000 A 
ATOM      2  N   UNL     1       3.570   4.945  17.600  0.00  0.00    +0.000 NA
ATOM      3  C   UNL     1       3.796   6.252  17.401  0.00  0.00    +0.000 A 
ATOM      4  N   UNL     1       4.597   6.642  16.328  0.00  0.00    +0.000 N 
ATOM      5  N   UNL     1       3.291   7.200  18.192  0.00  0.00    +0.000 NA
ATOM      6  C   UNL     1       2.598   6.765  19.263  0.00  0.00    +0.000 A 
ATOM      7  C   UNL     1       2.359   5.434  19.560  0.00  0.00    +0.000 A 
ATOM      8  H   UNL     1       4.552   7.645  16.208  0.00  0.00    +0.000 HD
ENDROOT
BRANCH   4   9
ATOM      9  C   UNL     1       5.568   5.906  15.751  0.00  0.00    +0.000 A 
ATOM     10  C   UNL     1       5.525   5.366  14.489  0.00  0.00    +0.000 A 
ATOM     11  N   UNL     1       6.681   4.673  14.341  0.00  0.00    +0.000 N 
ATOM     12  N   UNL     1       7.502   4.752  15.403  0.00  0.00    +0.000 NA
ATOM     13  C   UNL     1       6.814   5.497  16.285  0.00  0.00    +0.000 A 
ATOM     14  C   UNL     1       7.403   5.841  17.600  0.00  0.00    +0.000 C 
BRANCH  11  15
ATOM     15  C   UNL     1       7.035   3.858  13.201  0.00  0.00    +0.000 C 
BRANCH  15  16
ATOM     16  C   UNL     1       5.828   3.420  12.401  0.00  0.00    +0.000 C 
BRANCH  16  17
ATOM     17  C   UNL     1       6.062   2.124  11.641  0.00  0.00    +0.000 C 
ATOM     18  N   UNL     1       6.256   1.050  11.011  0.00  0.00    +0.000 NA
ENDBRANCH  16  17
ENDBRANCH  15  16
ENDBRANCH  11  15
ENDBRANCH   4   9
BRANCH   7  19
ATOM     19  C   UNL     1       1.607   5.095  20.792  0.00  0.00    +0.000 C 
ATOM     20  F   UNL     1       2.315   4.441  21.756  0.00  0.00    +0.000 F 
ATOM     21  F   UNL     1       1.128   6.216  21.410  0.00  0.00    +0.000 F 
ATOM     22  F   UNL     1       0.510   4.325  20.546  0.00  0.00    +0.000 F 
ENDBRANCH   7  19
BRANCH   1  24
ATOM     23  C   UNL     1       2.506   2.440  17.508  0.00  0.00    +0.000 C 
ATOM     24  N   UNL     1       2.621   3.155  18.774  0.00  0.00    +0.000 N 
ATOM     25  H   UNL     1       3.278   2.708  19.410  0.00  0.00    +0.000 HD
ENDBRANCH   1  24
TORSDOF 6
ENDMDL
MODEL 9
REMARK VINA RESULT:      -6.9      2.446      4.605
REMARK  Name = 
REMARK  8 active torsions:
REMARK  status: ('A' for Active; 'I' for Inactive)
REMARK    1  A    between atoms: C_1  and  N_2
REMARK    2  A    between atoms: N_2  and  C_3
REMARK    3  A    between atoms: N_6  and  C_7
REMARK    4  A    between atoms: N_9  and  C_10
REMARK    5  A    between atoms: C_10  and  C_11
REMARK    6  A    between atoms: C_11  and  C_12
REMARK    7  A    between atoms: C_15  and  C_16
REMARK    8  A    between atoms: C_19  and  C_20
REMARK                            x       y       z     vdW  Elec       q    Type
REMARK                         _______ _______ _______ _____ _____    ______ ____
ROOT
ATOM      1  C   UNL     1       2.876   4.638  19.030  0.00  0.00    +0.000 A 
ATOM      2  N   UNL     1       4.200   4.858  19.000  0.00  0.00    +0.000 NA
ATOM      3  C   UNL     1       5.056   3.842  18.816  0.00  0.00    +0.000 A 
ATOM      4  N   UNL     1       6.420   4.119  18.717  0.00  0.00    +0.000 N 
ATOM      5  N   UNL     1       4.660   2.573  18.715  0.00  0.00    +0.000 NA
ATOM      6  C   UNL     1       3.327   2.370  18.729  0.00  0.00    +0.000 A 
ATOM      7  C   UNL     1       2.379   3.369  18.872  0.00  0.00    +0.000 A 
ATOM      8  H   UNL     1       6.951   3.260  18.738  0.00  0.00    +0.000 HD
ENDROOT
BRANCH   4   9
ATOM      9  C   UNL     1       6.968   5.277  18.296  0.00  0.00    +0.000 A 
ATOM     10  C   UNL     1       7.690   6.153  19.069  0.00  0.00    +0.000 A 
ATOM     11  N   UNL     1       8.005   7.192  18.259  0.00  0.00    +0.000 N 
ATOM     12  N   UNL     1       7.576   7.045  16.993  0.00  0.00    +0.000 NA
ATOM     13  C   UNL     1       6.919   5.873  17.013  0.00  0.00    +0.000 A 
ATOM     14  C   UNL     1       6.308   5.332  15.776  0.00  0.00    +0.000 C 
BRANCH  11  15
ATOM     15  C   UNL     1       8.684   8.402  18.664  0.00  0.00    +0.000 C 
BRANCH  15  16
ATOM     16  C   UNL     1       8.322   9.590  17.799  0.00  0.00    +0.000 C 
BRANCH  16  17
ATOM     17  C   UNL     1       9.131  10.833  18.135  0.00  0.00    +0.000 C 
ATOM     18  N   UNL     1       9.801  11.863  18.414  0.00  0.00    +0.000 NA
ENDBRANCH  16  17
ENDBRANCH  15  16
ENDBRANCH  11  15
ENDBRANCH   4   9
BRANCH   7  19
ATOM     19  C   UNL     1       0.941   3.008  18.836  0.00  0.00    +0.000 C 
ATOM     20  F   UNL     1       0.665   1.699  18.581  0.00  0.00    +0.000 F 
ATOM     21  F   UNL     1       0.332   3.268  20.031  0.00  0.00    +0.000 F 
ATOM     22  F   UNL     1       0.241   3.725  17.913  0.00  0.00    +0.000 F 
ENDBRANCH   7  19
BRANCH   1  24
ATOM     23  C   UNL     1       1.879   6.075  20.689  0.00  0.00    +0.000 C 
ATOM     24  N   UNL     1       2.048   5.736  19.281  0.00  0.00    +0.000 N 
ATOM     25  H   UNL     1       2.312   6.543  18.720  0.00  0.00    +0.000 HD
ENDBRANCH   1  24
TORSDOF 6
ENDMDL
