MODEL 1
REMARK VINA RESULT:      -6.5      0.000      0.000
REMARK  Name = 
REMARK  15 active torsions:
REMARK  status: ('A' for Active; 'I' for Inactive)
REMARK    1  A    between atoms: C_1  and  C_2
REMARK    2  A    between atoms: C_2  and  N_3
REMARK    3  A    between atoms: N_3  and  C_4
REMARK    4  A    between atoms: N_3  and  C_6
REMARK    5  A    between atoms: C_4  and  C_5
REMARK    6  A    between atoms: C_6  and  C_7
REMARK    7  A    between atoms: C_7  and  N_8
REMARK    8  A    between atoms: N_8  and  C_9
REMARK    9  A    between atoms: N_8  and  S_13
REMARK   10  A    between atoms: C_9  and  C_10
REMARK   11  A    between atoms: C_10  and  C_11
REMARK   12  A    between atoms: C_10  and  C_12
REMARK   13  A    between atoms: S_13  and  C_16
REMARK   14  A    between atoms: C_21  and  O_22
REMARK   15  A    between atoms: O_22  and  C_23
REMARK                            x       y       z     vdW  Elec       q    Type
REMARK                         _______ _______ _______ _____ _____    ______ ____
ROOT
ATOM      1  N   UNL     1       3.232   4.637  19.267  0.00  0.00    +0.000 NA
ENDROOT
BRANCH   1   2
ATOM      2  S   UNL     1       4.299   3.416  18.637  0.00  0.00    +0.000 S 
ATOM      3  O   UNL     1       5.200   2.978  19.687  0.00  0.00    +0.000 OA
ATOM      4  O   UNL     1       3.433   2.451  17.983  0.00  0.00    +0.000 OA
BRANCH   2   5
ATOM      5  C   UNL     1       5.310   4.181  17.385  0.00  0.00    +0.000 A 
ATOM      6  C   UNL     1       4.858   4.031  16.054  0.00  0.00    +0.000 A 
ATOM      7  C   UNL     1       5.662   4.413  14.980  0.00  0.00    +0.000 A 
ATOM      8  C   UNL     1       6.915   4.958  15.217  0.00  0.00    +0.000 A 
ATOM      9  C   UNL     1       7.361   5.121  16.531  0.00  0.00    +0.000 A 
ATOM     10  C   UNL     1       6.569   4.735  17.627  0.00  0.00    +0.000 A 
BRANCH  10  11
ATOM     11  O   UNL     1       7.233   4.830  18.819  0.00  0.00    +0.000 OA
ATOM     12  C   UNL     1       7.968   6.024  19.032  0.00  0.00    +0.000 C 
ENDBRANCH  10  11
ENDBRANCH   2   5
ENDBRANCH   1   2
BRANCH   1  13
ATOM     13  C   UNL     1       3.675   6.028  18.859  0.00  0.00    +0.000 C 
BRANCH  13  14
ATOM     14  C   UNL     1       2.530   6.902  18.289  0.00  0.00    +0.000 C 
BRANCH  14  15
ATOM     15  N   UNL     1       2.219   8.092  19.119  0.00  0.00    +0.000 NA
BRANCH  15  17
ATOM     16  C   UNL     1       1.990  10.376  18.055  0.00  0.00    +0.000 C 
ATOM     17  C   UNL     1       1.345   9.040  18.410  0.00  0.00    +0.000 C 
ENDBRANCH  15  17
BRANCH  15  18
ATOM     18  C   UNL     1       1.730   7.709  20.457  0.00  0.00    +0.000 C 
ATOM     19  C   UNL     1       0.714   8.648  21.101  0.00  0.00    +0.000 C 
ENDBRANCH  15  18
ENDBRANCH  14  15
ENDBRANCH  13  14
ENDBRANCH   1  13
BRANCH   1  20
ATOM     20  C   UNL     1       1.772   4.419  18.885  0.00  0.00    +0.000 C 
BRANCH  20  21
ATOM     21  C   UNL     1       0.889   3.679  19.902  0.00  0.00    +0.000 C 
ATOM     22  C   UNL     1       0.483   2.281  19.440  0.00  0.00    +0.000 C 
ATOM     23  C   UNL     1       1.619   3.544  21.244  0.00  0.00    +0.000 C 
ENDBRANCH  20  21
ENDBRANCH   1  20
TORSDOF 10
ENDMDL
MODEL 2
REMARK VINA RESULT:      -6.5      0.887      1.050
REMARK  Name = 
REMARK  15 active torsions:
REMARK  status: ('A' for Active; 'I' for Inactive)
REMARK    1  A    between atoms: C_1  and  C_2
REMARK    2  A    between atoms: C_2  and  N_3
REMARK    3  A    between atoms: N_3  and  C_4
REMARK    4  A    between atoms: N_3  and  C_6
REMARK    5  A    between atoms: C_4  and  C_5
REMARK    6  A    between atoms: C_6  and  C_7
REMARK    7  A    between atoms: C_7  and  N_8
REMARK    8  A    between atoms: N_8  and  C_9
REMARK    9  A    between atoms: N_8  and  S_13
REMARK   10  A    between atoms: C_9  and  C_10
REMARK   11  A    between atoms: C_10  and  C_11
REMARK   12  A    between atoms: C_10  and  C_12
REMARK   13  A    between atoms: S_13  and  C_16
REMARK   14  A    between atoms: C_21  and  O_22
REMARK   15  A    between atoms: O_22  and  C_23
REMARK                            x       y       z     vdW  Elec       q    Type
REMARK                         _______ _______ _______ _____ _____    ______ ____
ROOT
ATOM      1  N   UNL     1       3.315   4.356  18.906  0.00  0.00    +0.000 NA
ENDROOT
BRANCH   1   2
ATOM      2  S   UNL     1       3.610   3.394  17.487  0.00  0.00    +0.000 S 
ATOM      3  O   UNL     1       4.012   2.058  17.887  0.00  0.00    +0.000 OA
ATOM      4  O   UNL     1       2.435   3.572  16.652  0.00  0.00    +0.000 OA
BRANCH   2   5
ATOM      5  C   UNL     1       5.000   4.111  16.633  0.00  0.00    +0.000 A 
ATOM      6  C   UNL     1       4.895   4.167  15.225  0.00  0.00    +0.000 A 
ATOM      7  C   UNL     1       5.992   4.522  14.440  0.00  0.00    +0.000 A 
ATOM      8  C   UNL     1       7.199   4.836  15.046  0.00  0.00    +0.000 A 
ATOM      9  C   UNL     1       7.305   4.794  16.437  0.00  0.00    +0.000 A 
ATOM     10  C   UNL     1       6.214   4.432  17.246  0.00  0.00    +0.000 A 
BRANCH  10  11
ATOM     11  O   UNL     1       6.552   4.301  18.565  0.00  0.00    +0.000 OA
ATOM     12  C   UNL     1       6.697   5.508  19.296  0.00  0.00    +0.000 C 
ENDBRANCH  10  11
ENDBRANCH   2   5
ENDBRANCH   1   2
BRANCH   1  13
ATOM     13  C   UNL     1       2.250   5.404  18.658  0.00  0.00    +0.000 C 
BRANCH  13  14
ATOM     14  C   UNL     1       2.819   6.772  18.205  0.00  0.00    +0.000 C 
BRANCH  14  15
ATOM     15  N   UNL     1       2.359   7.912  19.036  0.00  0.00    +0.000 NA
BRANCH  15  17
ATOM     16  C   UNL     1       2.024  10.180  17.964  0.00  0.00    +0.000 C 
ATOM     17  C   UNL     1       1.455   8.803  18.290  0.00  0.00    +0.000 C 
ENDBRANCH  15  17
BRANCH  15  18
ATOM     18  C   UNL     1       1.822   7.459  20.332  0.00  0.00    +0.000 C 
ATOM     19  C   UNL     1       1.058   8.497  21.149  0.00  0.00    +0.000 C 
ENDBRANCH  15  18
ENDBRANCH  14  15
ENDBRANCH  13  14
ENDBRANCH   1  13
BRANCH   1  20
ATOM     20  C   UNL     1       2.957   3.525  20.134  0.00  0.00    +0.000 C 
BRANCH  20  21
ATOM     21  C   UNL     1       1.461   3.358  20.448  0.00  0.00    +0.000 C 
ATOM     22  C   UNL     1       0.732   2.466  19.445  0.00  0.00    +0.000 C 
ATOM     23  C   UNL     1       1.274   2.754  21.846  0.00  0.00    +0.000 C 
ENDBRANCH  20  21
ENDBRANCH   1  20
TORSDOF 10
ENDMDL
MODEL 3
REMARK VINA RESULT:      -6.4      1.082      2.443
REMARK  Name = 
REMARK  15 active torsions:
REMARK  status: ('A' for Active; 'I' for Inactive)
REMARK    1  A    between atoms: C_1  and  C_2
REMARK    2  A    between atoms: C_2  and  N_3
REMARK    3  A    between atoms: N_3  and  C_4
REMARK    4  A    between atoms: N_3  and  C_6
REMARK    5  A    between atoms: C_4  and  C_5
REMARK    6  A    between atoms: C_6  and  C_7
REMARK    7  A    between atoms: C_7  and  N_8
REMARK    8  A    between atoms: N_8  and  C_9
REMARK    9  A    between atoms: N_8  and  S_13
REMARK   10  A    between atoms: C_9  and  C_10
REMARK   11  A    between atoms: C_10  and  C_11
REMARK   12  A    between atoms: C_10  and  C_12
REMARK   13  A    between atoms: S_13  and  C_16
REMARK   14  A    between atoms: C_21  and  O_22
REMARK   15  A    between atoms: O_22  and  C_23
REMARK                            x       y       z     vdW  Elec       q    Type
REMARK                         _______ _______ _______ _____ _____    ______ ____
ROOT
ATOM      1  N   UNL     1       3.237   4.685  19.381  0.00  0.00    +0.000 NA
ENDROOT
BRANCH   1   2
ATOM      2  S   UNL     1       4.545   3.716  18.766  0.00  0.00    +0.000 S 
ATOM      3  O   UNL     1       5.059   2.874  19.830  0.00  0.00    +0.000 OA
ATOM      4  O   UNL     1       4.033   3.109  17.550  0.00  0.00    +0.000 OA
BRANCH   2   5
ATOM      5  C   UNL     1       5.864   4.824  18.310  0.00  0.00    +0.000 A 
ATOM      6  C   UNL     1       6.780   5.145  19.338  0.00  0.00    +0.000 A 
ATOM      7  C   UNL     1       7.732   6.149  19.158  0.00  0.00    +0.000 A 
ATOM      8  C   UNL     1       7.792   6.833  17.953  0.00  0.00    +0.000 A 
ATOM      9  C   UNL     1       6.898   6.511  16.930  0.00  0.00    +0.000 A 
ATOM     10  C   UNL     1       5.926   5.509  17.094  0.00  0.00    +0.000 A 
BRANCH  10  11
ATOM     11  O   UNL     1       5.051   5.443  16.045  0.00  0.00    +0.000 OA
ATOM     12  C   UNL     1       5.569   4.929  14.829  0.00  0.00    +0.000 C 
ENDBRANCH  10  11
ENDBRANCH   2   5
ENDBRANCH   1   2
BRANCH   1  13
ATOM     13  C   UNL     1       3.549   6.165  19.290  0.00  0.00    +0.000 C 
BRANCH  13  14
ATOM     14  C   UNL     1       2.665   6.924  18.269  0.00  0.00    +0.000 C 
BRANCH  14  15
ATOM     15  N   UNL     1       1.750   7.913  18.892  0.00  0.00    +0.000 NA
BRANCH  15  17
ATOM     16  C   UNL     1       0.695   8.135  21.182  0.00  0.00    +0.000 C 
ATOM     17  C   UNL     1       1.965   8.017  20.345  0.00  0.00    +0.000 C 
ENDBRANCH  15  17
BRANCH  15  18
ATOM     18  C   UNL     1       1.785   9.207  18.185  0.00  0.00    +0.000 C 
ATOM     19  C   UNL     1       0.467   9.974  18.112  0.00  0.00    +0.000 C 
ENDBRANCH  15  18
ENDBRANCH  14  15
ENDBRANCH  13  14
ENDBRANCH   1  13
BRANCH   1  20
ATOM     20  C   UNL     1       1.900   4.390  18.709  0.00  0.00    +0.000 C 
BRANCH  20  21
ATOM     21  C   UNL     1       0.906   3.516  19.491  0.00  0.00    +0.000 C 
ATOM     22  C   UNL     1       0.772   2.104  18.924  0.00  0.00    +0.000 C 
ATOM     23  C   UNL     1       1.337   3.400  20.959  0.00  0.00    +0.000 C 
ENDBRANCH  20  21
ENDBRANCH   1  20
TORSDOF 10
ENDMDL
MODEL 4
REMARK VINA RESULT:      -6.3      1.173      2.128
REMARK  Name = 
REMARK  15 active torsions:
REMARK  status: ('A' for Active; 'I' for Inactive)
REMARK    1  A    between atoms: C_1  and  C_2
REMARK    2  A    between atoms: C_2  and  N_3
REMARK    3  A    between atoms: N_3  and  C_4
REMARK    4  A    between atoms: N_3  and  C_6
REMARK    5  A    between atoms: C_4  and  C_5
REMARK    6  A    between atoms: C_6  and  C_7
REMARK    7  A    between atoms: C_7  and  N_8
REMARK    8  A    between atoms: N_8  and  C_9
REMARK    9  A    between atoms: N_8  and  S_13
REMARK   10  A    between atoms: C_9  and  C_10
REMARK   11  A    between atoms: C_10  and  C_11
REMARK   12  A    between atoms: C_10  and  C_12
REMARK   13  A    between atoms: S_13  and  C_16
REMARK   14  A    between atoms: C_21  and  O_22
REMARK   15  A    between atoms: O_22  and  C_23
REMARK                            x       y       z     vdW  Elec       q    Type
REMARK                         _______ _______ _______ _____ _____    ______ ____
ROOT
ATOM      1  N   UNL     1       3.108   4.744  19.531  0.00  0.00    +0.000 NA
ENDROOT
BRANCH   1   2
ATOM      2  S   UNL     1       4.226   3.815  18.575  0.00  0.00    +0.000 S 
ATOM      3  O   UNL     1       4.665   2.661  19.338  0.00  0.00    +0.000 OA
ATOM      4  O   UNL     1       3.569   3.624  17.294  0.00  0.00    +0.000 OA
BRANCH   2   5
ATOM      5  C   UNL     1       5.669   4.825  18.304  0.00  0.00    +0.000 A 
ATOM      6  C   UNL     1       6.530   4.977  19.414  0.00  0.00    +0.000 A 
ATOM      7  C   UNL     1       7.579   5.897  19.385  0.00  0.00    +0.000 A 
ATOM      8  C   UNL     1       7.789   6.664  18.248  0.00  0.00    +0.000 A 
ATOM      9  C   UNL     1       6.948   6.509  17.144  0.00  0.00    +0.000 A 
ATOM     10  C   UNL     1       5.882   5.594  17.157  0.00  0.00    +0.000 A 
BRANCH  10  11
ATOM     11  O   UNL     1       5.084   5.694  16.050  0.00  0.00    +0.000 OA
ATOM     12  C   UNL     1       5.562   5.058  14.876  0.00  0.00    +0.000 C 
ENDBRANCH  10  11
ENDBRANCH   2   5
ENDBRANCH   1   2
BRANCH   1  13
ATOM     13  C   UNL     1       3.425   6.225  19.476  0.00  0.00    +0.000 C 
BRANCH  13  14
ATOM     14  C   UNL     1       2.231   7.098  19.015  0.00  0.00    +0.000 C 
BRANCH  14  15
ATOM     15  N   UNL     1       1.898   8.196  19.957  0.00  0.00    +0.000 NA
BRANCH  15  17
ATOM     16  C   UNL     1       1.642   9.486  17.794  0.00  0.00    +0.000 C 
ATOM     17  C   UNL     1       1.274   9.338  19.267  0.00  0.00    +0.000 C 
ENDBRANCH  15  17
BRANCH  15  18
ATOM     18  C   UNL     1       1.133   7.704  21.118  0.00  0.00    +0.000 C 
ATOM     19  C   UNL     1      -0.009   8.592  21.602  0.00  0.00    +0.000 C 
ENDBRANCH  15  18
ENDBRANCH  14  15
ENDBRANCH  13  14
ENDBRANCH   1  13
BRANCH   1  20
ATOM     20  C   UNL     1       1.650   4.506  19.155  0.00  0.00    +0.000 C 
BRANCH  20  21
ATOM     21  C   UNL     1       0.918   3.369  19.886  0.00  0.00    +0.000 C 
ATOM     22  C   UNL     1       0.901   2.061  19.098  0.00  0.00    +0.000 C 
ATOM     23  C   UNL     1       1.577   3.098  21.245  0.00  0.00    +0.000 C 
ENDBRANCH  20  21
ENDBRANCH   1  20
TORSDOF 10
ENDMDL
MODEL 5
REMARK VINA RESULT:      -6.2      2.036      5.269
REMARK  Name = 
REMARK  15 active torsions:
REMARK  status: ('A' for Active; 'I' for Inactive)
REMARK    1  A    between atoms: C_1  and  C_2
REMARK    2  A    between atoms: C_2  and  N_3
REMARK    3  A    between atoms: N_3  and  C_4
REMARK    4  A    between atoms: N_3  and  C_6
REMARK    5  A    between atoms: C_4  and  C_5
REMARK    6  A    between atoms: C_6  and  C_7
REMARK    7  A    between atoms: C_7  and  N_8
REMARK    8  A    between atoms: N_8  and  C_9
REMARK    9  A    between atoms: N_8  and  S_13
REMARK   10  A    between atoms: C_9  and  C_10
REMARK   11  A    between atoms: C_10  and  C_11
REMARK   12  A    between atoms: C_10  and  C_12
REMARK   13  A    between atoms: S_13  and  C_16
REMARK   14  A    between atoms: C_21  and  O_22
REMARK   15  A    between atoms: O_22  and  C_23
REMARK                            x       y       z     vdW  Elec       q    Type
REMARK                         _______ _______ _______ _____ _____    ______ ____
ROOT
ATOM      1  N   UNL     1       4.497   4.316  17.502  0.00  0.00    +0.000 NA
ENDROOT
BRANCH   1   2
ATOM      2  S   UNL     1       3.409   2.959  17.476  0.00  0.00    +0.000 S 
ATOM      3  O   UNL     1       2.308   3.244  16.574  0.00  0.00    +0.000 OA
ATOM      4  O   UNL     1       4.249   1.798  17.243  0.00  0.00    +0.000 OA
BRANCH   2   5
ATOM      5  C   UNL     1       2.705   2.806  19.106  0.00  0.00    +0.000 A 
ATOM      6  C   UNL     1       1.339   3.149  19.220  0.00  0.00    +0.000 A 
ATOM      7  C   UNL     1       0.732   3.258  20.472  0.00  0.00    +0.000 A 
ATOM      8  C   UNL     1       1.472   3.017  21.619  0.00  0.00    +0.000 A 
ATOM      9  C   UNL     1       2.819   2.665  21.512  0.00  0.00    +0.000 A 
ATOM     10  C   UNL     1       3.451   2.557  20.261  0.00  0.00    +0.000 A 
BRANCH  10  11
ATOM     11  O   UNL     1       4.800   2.355  20.364  0.00  0.00    +0.000 OA
ATOM     12  C   UNL     1       5.206   1.118  20.925  0.00  0.00    +0.000 C 
ENDBRANCH  10  11
ENDBRANCH   2   5
ENDBRANCH   1   2
BRANCH   1  13
ATOM     13  C   UNL     1       5.726   4.061  16.653  0.00  0.00    +0.000 C 
BRANCH  13  14
ATOM     14  C   UNL     1       6.389   5.354  16.116  0.00  0.00    +0.000 C 
BRANCH  14  15
ATOM     15  N   UNL     1       7.378   5.948  17.049  0.00  0.00    +0.000 NA
BRANCH  15  17
ATOM     16  C   UNL     1       8.048   8.328  17.590  0.00  0.00    +0.000 C 
ATOM     17  C   UNL     1       6.949   7.272  17.530  0.00  0.00    +0.000 C 
ENDBRANCH  15  17
BRANCH  15  18
ATOM     18  C   UNL     1       7.744   5.008  18.125  0.00  0.00    +0.000 C 
ATOM     19  C   UNL     1       7.756   5.572  19.543  0.00  0.00    +0.000 C 
ENDBRANCH  15  18
ENDBRANCH  14  15
ENDBRANCH  13  14
ENDBRANCH   1  13
BRANCH   1  20
ATOM     20  C   UNL     1       3.837   5.627  17.086  0.00  0.00    +0.000 C 
BRANCH  20  21
ATOM     21  C   UNL     1       3.478   6.612  18.210  0.00  0.00    +0.000 C 
ATOM     22  C   UNL     1       1.990   6.950  18.260  0.00  0.00    +0.000 C 
ATOM     23  C   UNL     1       3.881   6.037  19.574  0.00  0.00    +0.000 C 
ENDBRANCH  20  21
ENDBRANCH   1  20
TORSDOF 10
ENDMDL
MODEL 6
REMARK VINA RESULT:      -6.2      1.890      5.669
REMARK  Name = 
REMARK  15 active torsions:
REMARK  status: ('A' for Active; 'I' for Inactive)
REMARK    1  A    between atoms: C_1  and  C_2
REMARK    2  A    between atoms: C_2  and  N_3
REMARK    3  A    between atoms: N_3  and  C_4
REMARK    4  A    between atoms: N_3  and  C_6
REMARK    5  A    between atoms: C_4  and  C_5
REMARK    6  A    between atoms: C_6  and  C_7
REMARK    7  A    between atoms: C_7  and  N_8
REMARK    8  A    between atoms: N_8  and  C_9
REMARK    9  A    between atoms: N_8  and  S_13
REMARK   10  A    between atoms: C_9  and  C_10
REMARK   11  A    between atoms: C_10  and  C_11
REMARK   12  A    between atoms: C_10  and  C_12
REMARK   13  A    between atoms: S_13  and  C_16
REMARK   14  A    between atoms: C_21  and  O_22
REMARK   15  A    between atoms: O_22  and  C_23
REMARK                            x       y       z     vdW  Elec       q    Type
REMARK                         _______ _______ _______ _____ _____    ______ ____
ROOT
ATOM      1  N   UNL     1       3.668   5.613  17.908  0.00  0.00    +0.000 NA
ENDROOT
BRANCH   1   2
ATOM      2  S   UNL     1       3.405   3.908  17.686  0.00  0.00    +0.000 S 
ATOM      3  O   UNL     1       2.425   3.707  16.635  0.00  0.00    +0.000 OA
ATOM      4  O   UNL     1       4.730   3.329  17.556  0.00  0.00    +0.000 OA
BRANCH   2   5
ATOM      5  C   UNL     1       2.679   3.278  19.187  0.00  0.00    +0.000 A 
ATOM      6  C   UNL     1       1.295   3.515  19.348  0.00  0.00    +0.000 A 
ATOM      7  C   UNL     1       0.660   3.247  20.560  0.00  0.00    +0.000 A 
ATOM      8  C   UNL     1       1.391   2.729  21.620  0.00  0.00    +0.000 A 
ATOM      9  C   UNL     1       2.756   2.481  21.463  0.00  0.00    +0.000 A 
ATOM     10  C   UNL     1       3.416   2.752  20.252  0.00  0.00    +0.000 A 
BRANCH  10  11
ATOM     11  O   UNL     1       4.771   2.588  20.339  0.00  0.00    +0.000 OA
ATOM     12  C   UNL     1       5.221   1.318  20.779  0.00  0.00    +0.000 C 
ENDBRANCH  10  11
ENDBRANCH   2   5
ENDBRANCH   1   2
BRANCH   1  13
ATOM     13  C   UNL     1       4.391   6.224  16.725  0.00  0.00    +0.000 C 
BRANCH  13  14
ATOM     14  C   UNL     1       5.878   6.554  17.009  0.00  0.00    +0.000 C 
BRANCH  14  15
ATOM     15  N   UNL     1       6.828   5.822  16.136  0.00  0.00    +0.000 NA
BRANCH  15  17
ATOM     16  C   UNL     1       7.709   4.973  18.352  0.00  0.00    +0.000 C 
ATOM     17  C   UNL     1       7.509   4.734  16.859  0.00  0.00    +0.000 C 
ENDBRANCH  15  17
BRANCH  15  18
ATOM     18  C   UNL     1       6.192   5.399  14.874  0.00  0.00    +0.000 C 
ATOM     19  C   UNL     1       6.417   3.949  14.455  0.00  0.00    +0.000 C 
ENDBRANCH  15  18
ENDBRANCH  14  15
ENDBRANCH  13  14
ENDBRANCH   1  13
BRANCH   1  20
ATOM     20  C   UNL     1       2.387   6.389  18.196  0.00  0.00    +0.000 C 
BRANCH  20  21
ATOM     21  C   UNL     1       2.545   7.844  18.666  0.00  0.00    +0.000 C 
ATOM     22  C   UNL     1       1.931   8.857  17.702  0.00  0.00    +0.000 C 
ATOM     23  C   UNL     1       1.889   8.036  20.039  0.00  0.00    +0.000 C 
ENDBRANCH  20  21
ENDBRANCH   1  20
TORSDOF 10
ENDMDL
MODEL 7
REMARK VINA RESULT:      -6.2      1.880      2.796
REMARK  Name = 
REMARK  15 active torsions:
REMARK  status: ('A' for Active; 'I' for Inactive)
REMARK    1  A    between atoms: C_1  and  C_2
REMARK    2  A    between atoms: C_2  and  N_3
REMARK    3  A    between atoms: N_3  and  C_4
REMARK    4  A    between atoms: N_3  and  C_6
REMARK    5  A    between atoms: C_4  and  C_5
REMARK    6  A    between atoms: C_6  and  C_7
REMARK    7  A    between atoms: C_7  and  N_8
REMARK    8  A    between atoms: N_8  and  C_9
REMARK    9  A    between atoms: N_8  and  S_13
REMARK   10  A    between atoms: C_9  and  C_10
REMARK   11  A    between atoms: C_10  and  C_11
REMARK   12  A    between atoms: C_10  and  C_12
REMARK   13  A    between atoms: S_13  and  C_16
REMARK   14  A    between atoms: C_21  and  O_22
REMARK   15  A    between atoms: O_22  and  C_23
REMARK                            x       y       z     vdW  Elec       q    Type
REMARK                         _______ _______ _______ _____ _____    ______ ____
ROOT
ATOM      1  N   UNL     1       2.889   5.756  19.468  0.00  0.00    +0.000 NA
ENDROOT
BRANCH   1   2
ATOM      2  S   UNL     1       3.542   5.459  17.883  0.00  0.00    +0.000 S 
ATOM      3  O   UNL     1       2.929   4.267  17.328  0.00  0.00    +0.000 OA
ATOM      4  O   UNL     1       3.426   6.723  17.178  0.00  0.00    +0.000 OA
BRANCH   2   5
ATOM      5  C   UNL     1       5.276   5.098  18.077  0.00  0.00    +0.000 A 
ATOM      6  C   UNL     1       5.877   5.582  19.260  0.00  0.00    +0.000 A 
ATOM      7  C   UNL     1       7.261   5.534  19.431  0.00  0.00    +0.000 A 
ATOM      8  C   UNL     1       8.059   4.993  18.433  0.00  0.00    +0.000 A 
ATOM      9  C   UNL     1       7.469   4.502  17.267  0.00  0.00    +0.000 A 
ATOM     10  C   UNL     1       6.077   4.548  17.073  0.00  0.00    +0.000 A 
BRANCH  10  11
ATOM     11  O   UNL     1       5.705   4.162  15.814  0.00  0.00    +0.000 OA
ATOM     12  C   UNL     1       5.835   5.140  14.796  0.00  0.00    +0.000 C 
ENDBRANCH  10  11
ENDBRANCH   2   5
ENDBRANCH   1   2
BRANCH   1  13
ATOM     13  C   UNL     1       2.236   7.120  19.556  0.00  0.00    +0.000 C 
BRANCH  13  14
ATOM     14  C   UNL     1       1.563   7.400  20.923  0.00  0.00    +0.000 C 
BRANCH  14  15
ATOM     15  N   UNL     1       1.035   8.780  21.056  0.00  0.00    +0.000 NA
BRANCH  15  17
ATOM     16  C   UNL     1      -0.179  10.497  19.647  0.00  0.00    +0.000 C 
ATOM     17  C   UNL     1       0.928   9.453  19.750  0.00  0.00    +0.000 C 
ENDBRANCH  15  17
BRANCH  15  18
ATOM     18  C   UNL     1      -0.206   8.813  21.852  0.00  0.00    +0.000 C 
ATOM     19  C   UNL     1      -0.124   9.514  23.205  0.00  0.00    +0.000 C 
ENDBRANCH  15  18
ENDBRANCH  14  15
ENDBRANCH  13  14
ENDBRANCH   1  13
BRANCH   1  20
ATOM     20  C   UNL     1       1.915   4.678  19.931  0.00  0.00    +0.000 C 
BRANCH  20  21
ATOM     21  C   UNL     1       2.425   3.685  20.988  0.00  0.00    +0.000 C 
ATOM     22  C   UNL     1       1.311   2.850  21.616  0.00  0.00    +0.000 C 
ATOM     23  C   UNL     1       3.448   2.724  20.368  0.00  0.00    +0.000 C 
ENDBRANCH  20  21
ENDBRANCH   1  20
TORSDOF 10
ENDMDL
MODEL 8
REMARK VINA RESULT:      -6.2      1.254      1.511
REMARK  Name = 
REMARK  15 active torsions:
REMARK  status: ('A' for Active; 'I' for Inactive)
REMARK    1  A    between atoms: C_1  and  C_2
REMARK    2  A    between atoms: C_2  and  N_3
REMARK    3  A    between atoms: N_3  and  C_4
REMARK    4  A    between atoms: N_3  and  C_6
REMARK    5  A    between atoms: C_4  and  C_5
REMARK    6  A    between atoms: C_6  and  C_7
REMARK    7  A    between atoms: C_7  and  N_8
REMARK    8  A    between atoms: N_8  and  C_9
REMARK    9  A    between atoms: N_8  and  S_13
REMARK   10  A    between atoms: C_9  and  C_10
REMARK   11  A    between atoms: C_10  and  C_11
REMARK   12  A    between atoms: C_10  and  C_12
REMARK   13  A    between atoms: S_13  and  C_16
REMARK   14  A    between atoms: C_21  and  O_22
REMARK   15  A    between atoms: O_22  and  C_23
REMARK                            x       y       z     vdW  Elec       q    Type
REMARK                         _______ _______ _______ _____ _____    ______ ____
ROOT
ATOM      1  N   UNL     1       3.126   5.239  19.125  0.00  0.00    +0.000 NA
ENDROOT
BRANCH   1   2
ATOM      2  S   UNL     1       4.761   4.668  18.960  0.00  0.00    +0.000 S 
ATOM      3  O   UNL     1       5.648   5.529  19.720  0.00  0.00    +0.000 OA
ATOM      4  O   UNL     1       4.702   3.248  19.261  0.00  0.00    +0.000 OA
BRANCH   2   5
ATOM      5  C   UNL     1       5.220   4.845  17.248  0.00  0.00    +0.000 A 
ATOM      6  C   UNL     1       5.134   3.673  16.464  0.00  0.00    +0.000 A 
ATOM      7  C   UNL     1       5.651   3.639  15.168  0.00  0.00    +0.000 A 
ATOM      8  C   UNL     1       6.247   4.774  14.636  0.00  0.00    +0.000 A 
ATOM      9  C   UNL     1       6.324   5.938  15.402  0.00  0.00    +0.000 A 
ATOM     10  C   UNL     1       5.816   5.990  16.712  0.00  0.00    +0.000 A 
BRANCH  10  11
ATOM     11  O   UNL     1       6.118   7.160  17.352  0.00  0.00    +0.000 OA
ATOM     12  C   UNL     1       7.497   7.471  17.469  0.00  0.00    +0.000 C 
ENDBRANCH  10  11
ENDBRANCH   2   5
ENDBRANCH   1   2
BRANCH   1  13
ATOM     13  C   UNL     1       3.036   6.738  18.921  0.00  0.00    +0.000 C 
BRANCH  13  14
ATOM     14  C   UNL     1       2.023   7.434  19.865  0.00  0.00    +0.000 C 
BRANCH  14  15
ATOM     15  N   UNL     1       1.813   8.870  19.558  0.00  0.00    +0.000 NA
BRANCH  15  17
ATOM     16  C   UNL     1       0.118   9.703  17.874  0.00  0.00    +0.000 C 
ATOM     17  C   UNL     1       1.487   9.085  18.138  0.00  0.00    +0.000 C 
ENDBRANCH  15  17
BRANCH  15  18
ATOM     18  C   UNL     1       0.859   9.492  20.495  0.00  0.00    +0.000 C 
ATOM     19  C   UNL     1       0.191   8.558  21.500  0.00  0.00    +0.000 C 
ENDBRANCH  15  18
ENDBRANCH  14  15
ENDBRANCH  13  14
ENDBRANCH   1  13
BRANCH   1  20
ATOM     20  C   UNL     1       2.142   4.526  18.204  0.00  0.00    +0.000 C 
BRANCH  20  21
ATOM     21  C   UNL     1       1.120   3.589  18.868  0.00  0.00    +0.000 C 
ATOM     22  C   UNL     1       1.429   2.110  18.647  0.00  0.00    +0.000 C 
ATOM     23  C   UNL     1       1.066   3.843  20.380  0.00  0.00    +0.000 C 
ENDBRANCH  20  21
ENDBRANCH   1  20
TORSDOF 10
ENDMDL
MODEL 9
REMARK VINA RESULT:      -6.1      1.025      1.893
REMARK  Name = 
REMARK  15 active torsions:
REMARK  status: ('A' for Active; 'I' for Inactive)
REMARK    1  A    between atoms: C_1  and  C_2
REMARK    2  A    between atoms: C_2  and  N_3
REMARK    3  A    between atoms: N_3  and  C_4
REMARK    4  A    between atoms: N_3  and  C_6
REMARK    5  A    between atoms: C_4  and  C_5
REMARK    6  A    between atoms: C_6  and  C_7
REMARK    7  A    between atoms: C_7  and  N_8
REMARK    8  A    between atoms: N_8  and  C_9
REMARK    9  A    between atoms: N_8  and  S_13
REMARK   10  A    between atoms: C_9  and  C_10
REMARK   11  A    between atoms: C_10  and  C_11
REMARK   12  A    between atoms: C_10  and  C_12
REMARK   13  A    between atoms: S_13  and  C_16
REMARK   14  A    between atoms: C_21  and  O_22
REMARK   15  A    between atoms: O_22  and  C_23
REMARK                            x       y       z     vdW  Elec       q    Type
REMARK                         _______ _______ _______ _____ _____    ______ ____
ROOT
ATOM      1  N   UNL     1       3.786   5.126  19.201  0.00  0.00    +0.000 NA
ENDROOT
BRANCH   1   2
ATOM      2  S   UNL     1       5.368   4.432  18.995  0.00  0.00    +0.000 S 
ATOM      3  O   UNL     1       6.329   5.187  19.779  0.00  0.00    +0.000 OA
ATOM      4  O   UNL     1       5.199   3.011  19.239  0.00  0.00    +0.000 OA
BRANCH   2   5
ATOM      5  C   UNL     1       5.827   4.643  17.286  0.00  0.00    +0.000 A 
ATOM      6  C   UNL     1       5.161   3.806  16.363  0.00  0.00    +0.000 A 
ATOM      7  C   UNL     1       5.573   3.739  15.032  0.00  0.00    +0.000 A 
ATOM      8  C   UNL     1       6.641   4.513  14.603  0.00  0.00    +0.000 A 
ATOM      9  C   UNL     1       7.295   5.351  15.508  0.00  0.00    +0.000 A 
ATOM     10  C   UNL     1       6.900   5.427  16.855  0.00  0.00    +0.000 A 
BRANCH  10  11
ATOM     11  O   UNL     1       7.751   6.182  17.615  0.00  0.00    +0.000 OA
ATOM     12  C   UNL     1       7.591   7.588  17.523  0.00  0.00    +0.000 C 
ENDBRANCH  10  11
ENDBRANCH   2   5
ENDBRANCH   1   2
BRANCH   1  13
ATOM     13  C   UNL     1       3.718   6.534  18.645  0.00  0.00    +0.000 C 
BRANCH  13  14
ATOM     14  C   UNL     1       2.340   6.894  18.035  0.00  0.00    +0.000 C 
BRANCH  14  15
ATOM     15  N   UNL     1       1.698   8.071  18.670  0.00  0.00    +0.000 NA
BRANCH  15  17
ATOM     16  C   UNL     1       0.820   8.025  21.043  0.00  0.00    +0.000 C 
ATOM     17  C   UNL     1       2.015   8.161  20.105  0.00  0.00    +0.000 C 
ENDBRANCH  15  17
BRANCH  15  18
ATOM     18  C   UNL     1       1.968   9.310  17.916  0.00  0.00    +0.000 C 
ATOM     19  C   UNL     1       1.440  10.604  18.528  0.00  0.00    +0.000 C 
ENDBRANCH  15  18
ENDBRANCH  14  15
ENDBRANCH  13  14
ENDBRANCH   1  13
BRANCH   1  20
ATOM     20  C   UNL     1       2.671   4.273  18.606  0.00  0.00    +0.000 C 
BRANCH  20  21
ATOM     21  C   UNL     1       1.831   3.441  19.589  0.00  0.00    +0.000 C 
ATOM     22  C   UNL     1       1.012   4.297  20.553  0.00  0.00    +0.000 C 
ATOM     23  C   UNL     1       0.864   2.528  18.825  0.00  0.00    +0.000 C 
ENDBRANCH  20  21
ENDBRANCH   1  20
TORSDOF 10
ENDMDL
