MODEL 1
REMARK VINA RESULT:      -6.6      0.000      0.000
REMARK  Name = 
REMARK  7 active torsions:
REMARK  status: ('A' for Active; 'I' for Inactive)
REMARK    1  A    between atoms: C_1  and  O_2
REMARK    2  A    between atoms: O_2  and  C_3
REMARK    3  A    between atoms: C_8  and  N_9
REMARK    4  A    between atoms: N_9  and  C_10
REMARK    5  A    between atoms: N_9  and  C_11
REMARK    6  A    between atoms: C_11  and  C_12
REMARK    7  A    between atoms: N_18  and  C_19
REMARK                            x       y       z     vdW  Elec       q    Type
REMARK                         _______ _______ _______ _____ _____    ______ ____
ROOT
ATOM      1  C   UNL     1       2.326   6.897  19.726  0.00  0.00    +0.000 A 
ATOM      2  N   UNL     1       1.723   7.427  20.756  0.00  0.00    +0.000 NA
ATOM      3  C   UNL     1       1.214   8.656  20.484  0.00  0.00    +0.000 A 
ATOM      4  C   UNL     1       1.292   9.358  19.306  0.00  0.00    +0.000 A 
ATOM      5  C   UNL     1       0.685  10.592  19.554  0.00  0.00    +0.000 A 
ATOM      6  N   UNL     1       0.205  10.670  20.802  0.00  0.00    +0.000 NA
ATOM      7  N   UNL     1       0.531   9.469  21.344  0.00  0.00    +0.000 N 
ATOM      8  C   UNL     1       0.129   9.146  22.692  0.00  0.00    +0.000 C 
ATOM      9  C   UNL     1       1.945   8.757  18.182  0.00  0.00    +0.000 A 
ATOM     10  O   UNL     1       2.138   9.315  17.113  0.00  0.00    +0.000 OA
ATOM     11  N   UNL     1       2.376   7.480  18.464  0.00  0.00    +0.000 N 
ATOM     12  H   UNL     1       2.971   7.013  17.787  0.00  0.00    +0.000 HD
ENDROOT
BRANCH   1  13
ATOM     13  C   UNL     1       3.047   5.556  19.820  0.00  0.00    +0.000 C 
BRANCH  13  14
ATOM     14  N   UNL     1       3.794   5.259  18.564  0.00  0.00    +0.000 N 
ATOM     15  C   UNL     1       3.408   4.004  17.917  0.00  0.00    +0.000 C 
BRANCH  14  21
ATOM     16  C   UNL     1       5.645   6.508  17.483  0.00  0.00    +0.000 A 
ATOM     17  C   UNL     1       6.982   6.936  17.472  0.00  0.00    +0.000 A 
ATOM     18  C   UNL     1       7.877   6.469  18.426  0.00  0.00    +0.000 A 
ATOM     19  C   UNL     1       7.424   5.621  19.425  0.00  0.00    +0.000 A 
ATOM     20  C   UNL     1       6.072   5.255  19.485  0.00  0.00    +0.000 A 
ATOM     21  C   UNL     1       5.137   5.684  18.524  0.00  0.00    +0.000 A 
BRANCH  16  23
ATOM     22  C   UNL     1       5.157   6.410  15.168  0.00  0.00    +0.000 C 
ATOM     23  O   UNL     1       4.799   6.888  16.467  0.00  0.00    +0.000 OA
ENDBRANCH  16  23
ENDBRANCH  14  21
ENDBRANCH  13  14
ENDBRANCH   1  13
TORSDOF 4
ENDMDL
MODEL 2
REMARK VINA RESULT:      -6.5      3.539      6.614
REMARK  Name = 
REMARK  7 active torsions:
REMARK  status: ('A' for Active; 'I' for Inactive)
REMARK    1  A    between atoms: C_1  and  O_2
REMARK    2  A    between atoms: O_2  and  C_3
REMARK    3  A    between atoms: C_8  and  N_9
REMARK    4  A    between atoms: N_9  and  C_10
REMARK    5  A    between atoms: N_9  and  C_11
REMARK    6  A    between atoms: C_11  and  C_12
REMARK    7  A    between atoms: N_18  and  C_19
REMARK                            x       y       z     vdW  Elec       q    Type
REMARK                         _______ _______ _______ _____ _____    ______ ____
ROOT
ATOM      1  C   UNL     1       4.663   3.493  18.154  0.00  0.00    +0.000 A 
ATOM      2  N   UNL     1       4.905   3.664  16.882  0.00  0.00    +0.000 NA
ATOM      3  C   UNL     1       5.977   4.467  16.661  0.00  0.00    +0.000 A 
ATOM      4  C   UNL     1       6.764   5.097  17.594  0.00  0.00    +0.000 A 
ATOM      5  C   UNL     1       7.680   5.863  16.868  0.00  0.00    +0.000 A 
ATOM      6  N   UNL     1       7.525   5.707  15.546  0.00  0.00    +0.000 NA
ATOM      7  N   UNL     1       6.486   4.840  15.448  0.00  0.00    +0.000 N 
ATOM      8  C   UNL     1       6.043   4.378  14.155  0.00  0.00    +0.000 C 
ATOM      9  C   UNL     1       6.494   4.888  18.985  0.00  0.00    +0.000 A 
ATOM     10  O   UNL     1       7.079   5.452  19.896  0.00  0.00    +0.000 OA
ATOM     11  N   UNL     1       5.456   4.004  19.176  0.00  0.00    +0.000 N 
ATOM     12  H   UNL     1       5.090   3.890  20.116  0.00  0.00    +0.000 HD
ENDROOT
BRANCH   1  13
ATOM     13  C   UNL     1       3.457   2.696  18.642  0.00  0.00    +0.000 C 
BRANCH  13  14
ATOM     14  N   UNL     1       2.193   3.460  18.441  0.00  0.00    +0.000 N 
ATOM     15  C   UNL     1       1.539   3.214  17.154  0.00  0.00    +0.000 C 
BRANCH  14  21
ATOM     16  C   UNL     1       1.654   4.971  20.334  0.00  0.00    +0.000 A 
ATOM     17  C   UNL     1       1.631   6.257  20.896  0.00  0.00    +0.000 A 
ATOM     18  C   UNL     1       1.983   7.363  20.135  0.00  0.00    +0.000 A 
ATOM     19  C   UNL     1       2.414   7.181  18.829  0.00  0.00    +0.000 A 
ATOM     20  C   UNL     1       2.514   5.891  18.290  0.00  0.00    +0.000 A 
ATOM     21  C   UNL     1       2.143   4.744  19.018  0.00  0.00    +0.000 A 
BRANCH  16  23
ATOM     22  C   UNL     1       2.164   3.289  21.920  0.00  0.00    +0.000 C 
ATOM     23  O   UNL     1       1.195   3.899  21.063  0.00  0.00    +0.000 OA
ENDBRANCH  16  23
ENDBRANCH  14  21
ENDBRANCH  13  14
ENDBRANCH   1  13
TORSDOF 4
ENDMDL
MODEL 3
REMARK VINA RESULT:      -6.4      2.312      6.809
REMARK  Name = 
REMARK  7 active torsions:
REMARK  status: ('A' for Active; 'I' for Inactive)
REMARK    1  A    between atoms: C_1  and  O_2
REMARK    2  A    between atoms: O_2  and  C_3
REMARK    3  A    between atoms: C_8  and  N_9
REMARK    4  A    between atoms: N_9  and  C_10
REMARK    5  A    between atoms: N_9  and  C_11
REMARK    6  A    between atoms: C_11  and  C_12
REMARK    7  A    between atoms: N_18  and  C_19
REMARK                            x       y       z     vdW  Elec       q    Type
REMARK                         _______ _______ _______ _____ _____    ______ ____
ROOT
ATOM      1  C   UNL     1       3.829   5.161  18.110  0.00  0.00    +0.000 A 
ATOM      2  N   UNL     1       4.215   4.900  16.890  0.00  0.00    +0.000 NA
ATOM      3  C   UNL     1       5.560   4.738  16.795  0.00  0.00    +0.000 A 
ATOM      4  C   UNL     1       6.494   4.842  17.797  0.00  0.00    +0.000 A 
ATOM      5  C   UNL     1       7.736   4.666  17.182  0.00  0.00    +0.000 A 
ATOM      6  N   UNL     1       7.614   4.421  15.870  0.00  0.00    +0.000 NA
ATOM      7  N   UNL     1       6.273   4.459  15.663  0.00  0.00    +0.000 N 
ATOM      8  C   UNL     1       5.731   4.185  14.354  0.00  0.00    +0.000 C 
ATOM      9  C   UNL     1       6.053   5.115  19.131  0.00  0.00    +0.000 A 
ATOM     10  O   UNL     1       6.796   5.301  20.082  0.00  0.00    +0.000 OA
ATOM     11  N   UNL     1       4.680   5.191  19.210  0.00  0.00    +0.000 N 
ATOM     12  H   UNL     1       4.266   5.516  20.078  0.00  0.00    +0.000 HD
ENDROOT
BRANCH   1  13
ATOM     13  C   UNL     1       2.372   5.464  18.444  0.00  0.00    +0.000 C 
BRANCH  13  14
ATOM     14  N   UNL     1       2.269   6.391  19.607  0.00  0.00    +0.000 N 
ATOM     15  C   UNL     1       1.726   5.778  20.820  0.00  0.00    +0.000 C 
BRANCH  14  21
ATOM     16  C   UNL     1       1.308   8.593  20.228  0.00  0.00    +0.000 A 
ATOM     17  C   UNL     1       1.036   9.935  19.915  0.00  0.00    +0.000 A 
ATOM     18  C   UNL     1       1.307  10.429  18.647  0.00  0.00    +0.000 A 
ATOM     19  C   UNL     1       1.904   9.602  17.707  0.00  0.00    +0.000 A 
ATOM     20  C   UNL     1       2.249   8.285  18.042  0.00  0.00    +0.000 A 
ATOM     21  C   UNL     1       1.969   7.735  19.307  0.00  0.00    +0.000 A 
BRANCH  16  23
ATOM     22  C   UNL     1      -0.287   8.620  21.977  0.00  0.00    +0.000 C 
ATOM     23  O   UNL     1       0.931   8.087  21.450  0.00  0.00    +0.000 OA
ENDBRANCH  16  23
ENDBRANCH  14  21
ENDBRANCH  13  14
ENDBRANCH   1  13
TORSDOF 4
ENDMDL
MODEL 4
REMARK VINA RESULT:      -6.3      3.654      7.017
REMARK  Name = 
REMARK  7 active torsions:
REMARK  status: ('A' for Active; 'I' for Inactive)
REMARK    1  A    between atoms: C_1  and  O_2
REMARK    2  A    between atoms: O_2  and  C_3
REMARK    3  A    between atoms: C_8  and  N_9
REMARK    4  A    between atoms: N_9  and  C_10
REMARK    5  A    between atoms: N_9  and  C_11
REMARK    6  A    between atoms: C_11  and  C_12
REMARK    7  A    between atoms: N_18  and  C_19
REMARK                            x       y       z     vdW  Elec       q    Type
REMARK                         _______ _______ _______ _____ _____    ______ ____
ROOT
ATOM      1  C   UNL     1       5.009   3.499  16.604  0.00  0.00    +0.000 A 
ATOM      2  N   UNL     1       4.957   3.336  15.309  0.00  0.00    +0.000 NA
ATOM      3  C   UNL     1       5.985   3.949  14.667  0.00  0.00    +0.000 A 
ATOM      4  C   UNL     1       6.995   4.698  15.219  0.00  0.00    +0.000 A 
ATOM      5  C   UNL     1       7.753   5.171  14.145  0.00  0.00    +0.000 A 
ATOM      6  N   UNL     1       7.289   4.722  12.970  0.00  0.00    +0.000 NA
ATOM      7  N   UNL     1       6.216   3.968  13.320  0.00  0.00    +0.000 N 
ATOM      8  C   UNL     1       5.465   3.260  12.312  0.00  0.00    +0.000 C 
ATOM      9  C   UNL     1       7.046   4.856  16.642  0.00  0.00    +0.000 A 
ATOM     10  O   UNL     1       7.851   5.558  17.233  0.00  0.00    +0.000 OA
ATOM     11  N   UNL     1       6.040   4.154  17.268  0.00  0.00    +0.000 N 
ATOM     12  H   UNL     1       5.897   4.305  18.262  0.00  0.00    +0.000 HD
ENDROOT
BRANCH   1  13
ATOM     13  C   UNL     1       3.914   2.970  17.524  0.00  0.00    +0.000 C 
BRANCH  13  14
ATOM     14  N   UNL     1       4.138   3.406  18.932  0.00  0.00    +0.000 N 
ATOM     15  C   UNL     1       4.654   2.356  19.812  0.00  0.00    +0.000 C 
BRANCH  14  21
ATOM     16  C   UNL     1       3.387   5.757  19.190  0.00  0.00    +0.000 A 
ATOM     17  C   UNL     1       2.467   6.693  19.688  0.00  0.00    +0.000 A 
ATOM     18  C   UNL     1       1.443   6.290  20.535  0.00  0.00    +0.000 A 
ATOM     19  C   UNL     1       1.302   4.944  20.839  0.00  0.00    +0.000 A 
ATOM     20  C   UNL     1       2.171   3.997  20.280  0.00  0.00    +0.000 A 
ATOM     21  C   UNL     1       3.238   4.365  19.438  0.00  0.00    +0.000 A 
BRANCH  16  23
ATOM     22  C   UNL     1       4.141   7.084  17.380  0.00  0.00    +0.000 C 
ATOM     23  O   UNL     1       4.461   6.185  18.446  0.00  0.00    +0.000 OA
ENDBRANCH  16  23
ENDBRANCH  14  21
ENDBRANCH  13  14
ENDBRANCH   1  13
TORSDOF 4
ENDMDL
MODEL 5
REMARK VINA RESULT:      -6.2      1.460      2.151
REMARK  Name = 
REMARK  7 active torsions:
REMARK  status: ('A' for Active; 'I' for Inactive)
REMARK    1  A    between atoms: C_1  and  O_2
REMARK    2  A    between atoms: O_2  and  C_3
REMARK    3  A    between atoms: C_8  and  N_9
REMARK    4  A    between atoms: N_9  and  C_10
REMARK    5  A    between atoms: N_9  and  C_11
REMARK    6  A    between atoms: C_11  and  C_12
REMARK    7  A    between atoms: N_18  and  C_19
REMARK                            x       y       z     vdW  Elec       q    Type
REMARK                         _______ _______ _______ _____ _____    ______ ____
ROOT
ATOM      1  C   UNL     1       2.014   7.384  19.791  0.00  0.00    +0.000 A 
ATOM      2  N   UNL     1       1.432   7.835  20.869  0.00  0.00    +0.000 NA
ATOM      3  C   UNL     1       0.969   9.102  20.717  0.00  0.00    +0.000 A 
ATOM      4  C   UNL     1       1.073   9.910  19.611  0.00  0.00    +0.000 A 
ATOM      5  C   UNL     1       0.512  11.137  19.979  0.00  0.00    +0.000 A 
ATOM      6  N   UNL     1       0.035  11.113  21.231  0.00  0.00    +0.000 NA
ATOM      7  N   UNL     1       0.316   9.854  21.654  0.00  0.00    +0.000 N 
ATOM      8  C   UNL     1      -0.096   9.419  22.966  0.00  0.00    +0.000 C 
ATOM      9  C   UNL     1       1.701   9.396  18.432  0.00  0.00    +0.000 A 
ATOM     10  O   UNL     1       1.915  10.046  17.421  0.00  0.00    +0.000 OA
ATOM     11  N   UNL     1       2.085   8.083  18.590  0.00  0.00    +0.000 N 
ATOM     12  H   UNL     1       2.662   7.661  17.869  0.00  0.00    +0.000 HD
ENDROOT
BRANCH   1  13
ATOM     13  C   UNL     1       2.685   6.014  19.753  0.00  0.00    +0.000 C 
BRANCH  13  14
ATOM     14  N   UNL     1       2.835   5.529  18.352  0.00  0.00    +0.000 N 
ATOM     15  C   UNL     1       1.822   4.555  17.939  0.00  0.00    +0.000 C 
BRANCH  14  21
ATOM     16  C   UNL     1       5.122   4.578  18.495  0.00  0.00    +0.000 A 
ATOM     17  C   UNL     1       6.427   4.462  17.988  0.00  0.00    +0.000 A 
ATOM     18  C   UNL     1       6.840   5.252  16.924  0.00  0.00    +0.000 A 
ATOM     19  C   UNL     1       5.934   6.117  16.326  0.00  0.00    +0.000 A 
ATOM     20  C   UNL     1       4.609   6.176  16.779  0.00  0.00    +0.000 A 
ATOM     21  C   UNL     1       4.155   5.412  17.871  0.00  0.00    +0.000 A 
BRANCH  16  23
ATOM     22  C   UNL     1       4.451   2.495  19.397  0.00  0.00    +0.000 C 
ATOM     23  O   UNL     1       4.762   3.873  19.619  0.00  0.00    +0.000 OA
ENDBRANCH  16  23
ENDBRANCH  14  21
ENDBRANCH  13  14
ENDBRANCH   1  13
TORSDOF 4
ENDMDL
MODEL 6
REMARK VINA RESULT:      -6.1      5.548      7.561
REMARK  Name = 
REMARK  7 active torsions:
REMARK  status: ('A' for Active; 'I' for Inactive)
REMARK    1  A    between atoms: C_1  and  O_2
REMARK    2  A    between atoms: O_2  and  C_3
REMARK    3  A    between atoms: C_8  and  N_9
REMARK    4  A    between atoms: N_9  and  C_10
REMARK    5  A    between atoms: N_9  and  C_11
REMARK    6  A    between atoms: C_11  and  C_12
REMARK    7  A    between atoms: N_18  and  C_19
REMARK                            x       y       z     vdW  Elec       q    Type
REMARK                         _______ _______ _______ _____ _____    ______ ____
ROOT
ATOM      1  C   UNL     1      -1.621  10.770  17.923  0.00  0.00    +0.000 A 
ATOM      2  N   UNL     1      -2.457  11.313  18.767  0.00  0.00    +0.000 NA
ATOM      3  C   UNL     1      -3.653  11.608  18.196  0.00  0.00    +0.000 A 
ATOM      4  C   UNL     1      -4.031  11.421  16.888  0.00  0.00    +0.000 A 
ATOM      5  C   UNL     1      -5.319  11.951  16.782  0.00  0.00    +0.000 A 
ATOM      6  N   UNL     1      -5.767  12.414  17.957  0.00  0.00    +0.000 NA
ATOM      7  N   UNL     1      -4.734  12.180  18.806  0.00  0.00    +0.000 N 
ATOM      8  C   UNL     1      -4.856  12.502  20.207  0.00  0.00    +0.000 C 
ATOM      9  C   UNL     1      -3.107  10.812  15.979  0.00  0.00    +0.000 A 
ATOM     10  O   UNL     1      -3.307  10.666  14.783  0.00  0.00    +0.000 OA
ATOM     11  N   UNL     1      -1.937  10.449  16.607  0.00  0.00    +0.000 N 
ATOM     12  H   UNL     1      -1.161  10.136  16.032  0.00  0.00    +0.000 HD
ENDROOT
BRANCH   1  13
ATOM     13  C   UNL     1      -0.187  10.431  18.319  0.00  0.00    +0.000 C 
BRANCH  13  14
ATOM     14  N   UNL     1       0.258  11.255  19.478  0.00  0.00    +0.000 N 
ATOM     15  C   UNL     1       1.382  12.147  19.186  0.00  0.00    +0.000 C 
BRANCH  14  21
ATOM     16  C   UNL     1      -0.584  11.236  21.812  0.00  0.00    +0.000 A 
ATOM     17  C   UNL     1      -0.689  10.607  23.063  0.00  0.00    +0.000 A 
ATOM     18  C   UNL     1       0.025   9.447  23.328  0.00  0.00    +0.000 A 
ATOM     19  C   UNL     1       0.799   8.880  22.327  0.00  0.00    +0.000 A 
ATOM     20  C   UNL     1       0.843   9.461  21.052  0.00  0.00    +0.000 A 
ATOM     21  C   UNL     1       0.155  10.652  20.747  0.00  0.00    +0.000 A 
BRANCH  16  23
ATOM     22  C   UNL     1      -0.784  13.503  22.464  0.00  0.00    +0.000 C 
ATOM     23  O   UNL     1      -1.206  12.444  21.601  0.00  0.00    +0.000 OA
ENDBRANCH  16  23
ENDBRANCH  14  21
ENDBRANCH  13  14
ENDBRANCH   1  13
TORSDOF 4
ENDMDL
MODEL 7
REMARK VINA RESULT:      -6.1      3.648      7.418
REMARK  Name = 
REMARK  7 active torsions:
REMARK  status: ('A' for Active; 'I' for Inactive)
REMARK    1  A    between atoms: C_1  and  O_2
REMARK    2  A    between atoms: O_2  and  C_3
REMARK    3  A    between atoms: C_8  and  N_9
REMARK    4  A    between atoms: N_9  and  C_10
REMARK    5  A    between atoms: N_9  and  C_11
REMARK    6  A    between atoms: C_11  and  C_12
REMARK    7  A    between atoms: N_18  and  C_19
REMARK                            x       y       z     vdW  Elec       q    Type
REMARK                         _______ _______ _______ _____ _____    ______ ____
ROOT
ATOM      1  C   UNL     1       4.925   4.056  16.134  0.00  0.00    +0.000 A 
ATOM      2  N   UNL     1       4.967   3.592  14.914  0.00  0.00    +0.000 NA
ATOM      3  C   UNL     1       6.006   4.098  14.202  0.00  0.00    +0.000 A 
ATOM      4  C   UNL     1       6.943   5.014  14.614  0.00  0.00    +0.000 A 
ATOM      5  C   UNL     1       7.748   5.267  13.500  0.00  0.00    +0.000 A 
ATOM      6  N   UNL     1       7.383   4.529  12.442  0.00  0.00    +0.000 NA
ATOM      7  N   UNL     1       6.324   3.815  12.903  0.00  0.00    +0.000 N 
ATOM      8  C   UNL     1       5.674   2.848  12.053  0.00  0.00    +0.000 C 
ATOM      9  C   UNL     1       6.892   5.502  15.959  0.00  0.00    +0.000 A 
ATOM     10  O   UNL     1       7.624   6.369  16.410  0.00  0.00    +0.000 OA
ATOM     11  N   UNL     1       5.880   4.908  16.679  0.00  0.00    +0.000 N 
ATOM     12  H   UNL     1       5.664   5.278  17.600  0.00  0.00    +0.000 HD
ENDROOT
BRANCH   1  13
ATOM     13  C   UNL     1       3.796   3.692  17.093  0.00  0.00    +0.000 C 
BRANCH  13  14
ATOM     14  N   UNL     1       4.166   4.010  18.502  0.00  0.00    +0.000 N 
ATOM     15  C   UNL     1       4.787   2.900  19.227  0.00  0.00    +0.000 C 
BRANCH  14  21
ATOM     16  C   UNL     1       2.340   4.459  20.121  0.00  0.00    +0.000 A 
ATOM     17  C   UNL     1       1.513   5.366  20.803  0.00  0.00    +0.000 A 
ATOM     18  C   UNL     1       1.548   6.719  20.493  0.00  0.00    +0.000 A 
ATOM     19  C   UNL     1       2.450   7.176  19.543  0.00  0.00    +0.000 A 
ATOM     20  C   UNL     1       3.332   6.284  18.918  0.00  0.00    +0.000 A 
ATOM     21  C   UNL     1       3.312   4.901  19.184  0.00  0.00    +0.000 A 
BRANCH  16  23
ATOM     22  C   UNL     1       1.466   2.767  21.527  0.00  0.00    +0.000 C 
ATOM     23  O   UNL     1       2.213   3.110  20.357  0.00  0.00    +0.000 OA
ENDBRANCH  16  23
ENDBRANCH  14  21
ENDBRANCH  13  14
ENDBRANCH   1  13
TORSDOF 4
ENDMDL
MODEL 8
REMARK VINA RESULT:      -6.0      3.927      7.218
REMARK  Name = 
REMARK  7 active torsions:
REMARK  status: ('A' for Active; 'I' for Inactive)
REMARK    1  A    between atoms: C_1  and  O_2
REMARK    2  A    between atoms: O_2  and  C_3
REMARK    3  A    between atoms: C_8  and  N_9
REMARK    4  A    between atoms: N_9  and  C_10
REMARK    5  A    between atoms: N_9  and  C_11
REMARK    6  A    between atoms: C_11  and  C_12
REMARK    7  A    between atoms: N_18  and  C_19
REMARK                            x       y       z     vdW  Elec       q    Type
REMARK                         _______ _______ _______ _____ _____    ______ ____
ROOT
ATOM      1  C   UNL     1       5.103   3.474  16.832  0.00  0.00    +0.000 A 
ATOM      2  N   UNL     1       5.098   3.363  15.530  0.00  0.00    +0.000 NA
ATOM      3  C   UNL     1       6.096   4.073  14.945  0.00  0.00    +0.000 A 
ATOM      4  C   UNL     1       7.034   4.868  15.557  0.00  0.00    +0.000 A 
ATOM      5  C   UNL     1       7.785   5.439  14.526  0.00  0.00    +0.000 A 
ATOM      6  N   UNL     1       7.386   5.008  13.321  0.00  0.00    +0.000 NA
ATOM      7  N   UNL     1       6.361   4.166  13.608  0.00  0.00    +0.000 N 
ATOM      8  C   UNL     1       5.691   3.449  12.550  0.00  0.00    +0.000 C 
ATOM      9  C   UNL     1       7.035   4.969  16.986  0.00  0.00    +0.000 A 
ATOM     10  O   UNL     1       7.771   5.700  17.628  0.00  0.00    +0.000 OA
ATOM     11  N   UNL     1       6.065   4.172  17.553  0.00  0.00    +0.000 N 
ATOM     12  H   UNL     1       5.885   4.270  18.547  0.00  0.00    +0.000 HD
ENDROOT
BRANCH   1  13
ATOM     13  C   UNL     1       4.024   2.830  17.697  0.00  0.00    +0.000 C 
BRANCH  13  14
ATOM     14  N   UNL     1       4.172   3.229  19.125  0.00  0.00    +0.000 N 
ATOM     15  C   UNL     1       4.600   2.146  20.012  0.00  0.00    +0.000 C 
BRANCH  14  21
ATOM     16  C   UNL     1       1.966   3.878  20.057  0.00  0.00    +0.000 A 
ATOM     17  C   UNL     1       1.090   4.864  20.541  0.00  0.00    +0.000 A 
ATOM     18  C   UNL     1       1.438   6.206  20.474  0.00  0.00    +0.000 A 
ATOM     19  C   UNL     1       2.684   6.562  19.978  0.00  0.00    +0.000 A 
ATOM     20  C   UNL     1       3.591   5.575  19.570  0.00  0.00    +0.000 A 
ATOM     21  C   UNL     1       3.270   4.205  19.596  0.00  0.00    +0.000 A 
BRANCH  16  23
ATOM     22  C   UNL     1       0.701   2.219  18.937  0.00  0.00    +0.000 C 
ATOM     23  O   UNL     1       1.562   2.564  20.025  0.00  0.00    +0.000 OA
ENDBRANCH  16  23
ENDBRANCH  14  21
ENDBRANCH  13  14
ENDBRANCH   1  13
TORSDOF 4
ENDMDL
MODEL 9
REMARK VINA RESULT:      -5.9      1.663      2.650
REMARK  Name = 
REMARK  7 active torsions:
REMARK  status: ('A' for Active; 'I' for Inactive)
REMARK    1  A    between atoms: C_1  and  O_2
REMARK    2  A    between atoms: O_2  and  C_3
REMARK    3  A    between atoms: C_8  and  N_9
REMARK    4  A    between atoms: N_9  and  C_10
REMARK    5  A    between atoms: N_9  and  C_11
REMARK    6  A    between atoms: C_11  and  C_12
REMARK    7  A    between atoms: N_18  and  C_19
REMARK                            x       y       z     vdW  Elec       q    Type
REMARK                         _______ _______ _______ _____ _____    ______ ____
ROOT
ATOM      1  C   UNL     1       1.986   7.309  20.127  0.00  0.00    +0.000 A 
ATOM      2  N   UNL     1       1.315   7.873  21.095  0.00  0.00    +0.000 NA
ATOM      3  C   UNL     1       0.822   9.089  20.745  0.00  0.00    +0.000 A 
ATOM      4  C   UNL     1       0.977   9.748  19.550  0.00  0.00    +0.000 A 
ATOM      5  C   UNL     1       0.353  10.988  19.712  0.00  0.00    +0.000 A 
ATOM      6  N   UNL     1      -0.210  11.109  20.923  0.00  0.00    +0.000 NA
ATOM      7  N   UNL     1       0.082   9.930  21.528  0.00  0.00    +0.000 N 
ATOM      8  C   UNL     1      -0.408   9.654  22.857  0.00  0.00    +0.000 C 
ATOM      9  C   UNL     1       1.704   9.110  18.494  0.00  0.00    +0.000 A 
ATOM     10  O   UNL     1       1.966   9.631  17.421  0.00  0.00    +0.000 OA
ATOM     11  N   UNL     1       2.118   7.847  18.851  0.00  0.00    +0.000 N 
ATOM     12  H   UNL     1       2.758   7.359  18.232  0.00  0.00    +0.000 HD
ENDROOT
BRANCH   1  13
ATOM     13  C   UNL     1       2.702   5.976  20.317  0.00  0.00    +0.000 C 
BRANCH  13  14
ATOM     14  N   UNL     1       1.950   4.865  19.666  0.00  0.00    +0.000 N 
ATOM     15  C   UNL     1       0.799   4.386  20.433  0.00  0.00    +0.000 C 
BRANCH  14  21
ATOM     16  C   UNL     1       3.480   4.356  17.780  0.00  0.00    +0.000 A 
ATOM     17  C   UNL     1       4.250   3.435  17.052  0.00  0.00    +0.000 A 
ATOM     18  C   UNL     1       4.194   2.080  17.350  0.00  0.00    +0.000 A 
ATOM     19  C   UNL     1       3.414   1.650  18.414  0.00  0.00    +0.000 A 
ATOM     20  C   UNL     1       2.707   2.576  19.192  0.00  0.00    +0.000 A 
ATOM     21  C   UNL     1       2.715   3.955  18.909  0.00  0.00    +0.000 A 
BRANCH  16  23
ATOM     22  C   UNL     1       4.730   6.229  17.050  0.00  0.00    +0.000 C 
ATOM     23  O   UNL     1       3.458   5.677  17.401  0.00  0.00    +0.000 OA
ENDBRANCH  16  23
ENDBRANCH  14  21
ENDBRANCH  13  14
ENDBRANCH   1  13
TORSDOF 4
ENDMDL
