MODEL 1
REMARK VINA RESULT:      -6.8      0.000      0.000
REMARK  Name = 
REMARK  10 active torsions:
REMARK  status: ('A' for Active; 'I' for Inactive)
REMARK    1  A    between atoms: C_1  and  C_2
REMARK    2  A    between atoms: C_2  and  O_3
REMARK    3  A    between atoms: O_3  and  C_4
REMARK    4  A    between atoms: C_4  and  C_6
REMARK    5  A    between atoms: C_6  and  S_7
REMARK    6  A    between atoms: S_7  and  C_8
REMARK    7  A    between atoms: C_9  and  C_10
REMARK    8  A    between atoms: C_15  and  C_16
REMARK    9  A    between atoms: C_19  and  O_20
REMARK   10  A    between atoms: O_20  and  C_21
REMARK                            x       y       z     vdW  Elec       q    Type
REMARK                         _______ _______ _______ _____ _____    ______ ____
ROOT
ATOM      1  C   UNL     1       4.649   5.473  18.862  0.00  0.00    +0.000 C 
ATOM      2  C   UNL     1       3.781   4.476  19.145  0.00  0.00    +0.000 C 
ATOM      3  C   UNL     1       2.359   4.495  18.754  0.00  0.00    +0.000 C 
ATOM      4  O   UNL     1       1.618   3.543  18.978  0.00  0.00    +0.000 OA
ATOM      5  N   UNL     1       1.862   5.574  18.094  0.00  0.00    +0.000 N 
ATOM      6  C   UNL     1       2.447   6.881  17.977  0.00  0.00    +0.000 C 
ATOM      7  S   UNL     1       4.235   6.880  17.932  0.00  0.00    +0.000 S 
ATOM      8  H   UNL     1       0.866   5.507  17.923  0.00  0.00    +0.000 HD
ENDROOT
BRANCH   6   9
ATOM      9  C   UNL     1       1.887   7.889  18.959  0.00  0.00    +0.000 A 
ATOM     10  C   UNL     1       1.789   7.628  20.332  0.00  0.00    +0.000 A 
ATOM     11  C   UNL     1       1.217   8.567  21.194  0.00  0.00    +0.000 A 
ATOM     12  C   UNL     1       0.768   9.797  20.714  0.00  0.00    +0.000 A 
ATOM     13  C   UNL     1       0.880  10.084  19.356  0.00  0.00    +0.000 A 
ATOM     14  C   UNL     1       1.439   9.138  18.488  0.00  0.00    +0.000 A 
BRANCH  12  15
ATOM     15  O   UNL     1       0.201  10.613  21.652  0.00  0.00    +0.000 OA
ATOM     16  C   UNL     1      -0.370   9.960  22.778  0.00  0.00    +0.000 C 
ENDBRANCH  12  15
ENDBRANCH   6   9
BRANCH   2  17
ATOM     17  C   UNL     1       4.333   3.176  19.707  0.00  0.00    +0.000 C 
ATOM     18  N   UNL     1       4.791   2.097  20.173  0.00  0.00    +0.000 NA
ENDBRANCH   2  17
BRANCH   1  19
ATOM     19  S   UNL     1       6.364   5.312  19.264  0.00  0.00    +0.000 S 
BRANCH  19  20
ATOM     20  C   UNL     1       7.193   6.101  17.857  0.00  0.00    +0.000 C 
BRANCH  20  21
ATOM     21  C   UNL     1       7.556   5.151  16.737  0.00  0.00    +0.000 C 
ATOM     22  O   UNL     1       8.136   4.081  16.859  0.00  0.00    +0.000 OA
BRANCH  21  23
ATOM     23  O   UNL     1       7.259   5.749  15.544  0.00  0.00    +0.000 OA
BRANCH  23  25
ATOM     24  C   UNL     1       5.442   4.474  14.682  0.00  0.00    +0.000 C 
ATOM     25  C   UNL     1       6.893   4.864  14.475  0.00  0.00    +0.000 C 
ENDBRANCH  23  25
ENDBRANCH  21  23
ENDBRANCH  20  21
ENDBRANCH  19  20
ENDBRANCH   1  19
TORSDOF 8
ENDMDL
MODEL 2
REMARK VINA RESULT:      -6.8      0.805      1.375
REMARK  Name = 
REMARK  10 active torsions:
REMARK  status: ('A' for Active; 'I' for Inactive)
REMARK    1  A    between atoms: C_1  and  C_2
REMARK    2  A    between atoms: C_2  and  O_3
REMARK    3  A    between atoms: O_3  and  C_4
REMARK    4  A    between atoms: C_4  and  C_6
REMARK    5  A    between atoms: C_6  and  S_7
REMARK    6  A    between atoms: S_7  and  C_8
REMARK    7  A    between atoms: C_9  and  C_10
REMARK    8  A    between atoms: C_15  and  C_16
REMARK    9  A    between atoms: C_19  and  O_20
REMARK   10  A    between atoms: O_20  and  C_21
REMARK                            x       y       z     vdW  Elec       q    Type
REMARK                         _______ _______ _______ _____ _____    ______ ____
ROOT
ATOM      1  C   UNL     1       4.671   5.447  18.743  0.00  0.00    +0.000 C 
ATOM      2  C   UNL     1       3.823   4.453  19.085  0.00  0.00    +0.000 C 
ATOM      3  C   UNL     1       2.383   4.461  18.764  0.00  0.00    +0.000 C 
ATOM      4  O   UNL     1       1.657   3.511  19.039  0.00  0.00    +0.000 OA
ATOM      5  N   UNL     1       1.849   5.528  18.113  0.00  0.00    +0.000 N 
ATOM      6  C   UNL     1       2.423   6.834  17.946  0.00  0.00    +0.000 C 
ATOM      7  S   UNL     1       4.207   6.839  17.813  0.00  0.00    +0.000 S 
ATOM      8  H   UNL     1       0.847   5.455  17.992  0.00  0.00    +0.000 HD
ENDROOT
BRANCH   6   9
ATOM      9  C   UNL     1       1.908   7.857  18.938  0.00  0.00    +0.000 A 
ATOM     10  C   UNL     1       1.505   9.143  18.555  0.00  0.00    +0.000 A 
ATOM     11  C   UNL     1       1.087  10.070  19.511  0.00  0.00    +0.000 A 
ATOM     12  C   UNL     1       1.027   9.726  20.862  0.00  0.00    +0.000 A 
ATOM     13  C   UNL     1       1.400   8.445  21.259  0.00  0.00    +0.000 A 
ATOM     14  C   UNL     1       1.833   7.518  20.303  0.00  0.00    +0.000 A 
BRANCH  12  15
ATOM     15  O   UNL     1       0.632  10.732  21.699  0.00  0.00    +0.000 OA
ATOM     16  C   UNL     1       0.320  11.971  21.074  0.00  0.00    +0.000 C 
ENDBRANCH  12  15
ENDBRANCH   6   9
BRANCH   2  17
ATOM     17  C   UNL     1       4.406   3.163  19.639  0.00  0.00    +0.000 C 
ATOM     18  N   UNL     1       4.891   2.093  20.099  0.00  0.00    +0.000 NA
ENDBRANCH   2  17
BRANCH   1  19
ATOM     19  S   UNL     1       6.405   5.298  19.063  0.00  0.00    +0.000 S 
BRANCH  19  20
ATOM     20  C   UNL     1       7.070   4.732  17.474  0.00  0.00    +0.000 C 
BRANCH  20  21
ATOM     21  C   UNL     1       7.437   5.847  16.521  0.00  0.00    +0.000 C 
ATOM     22  O   UNL     1       7.715   6.998  16.830  0.00  0.00    +0.000 OA
BRANCH  21  23
ATOM     23  O   UNL     1       7.266   5.401  15.240  0.00  0.00    +0.000 OA
BRANCH  23  25
ATOM     24  C   UNL     1       6.164   3.872  13.783  0.00  0.00    +0.000 C 
ATOM     25  C   UNL     1       5.981   4.836  14.941  0.00  0.00    +0.000 C 
ENDBRANCH  23  25
ENDBRANCH  21  23
ENDBRANCH  20  21
ENDBRANCH  19  20
ENDBRANCH   1  19
TORSDOF 8
ENDMDL
MODEL 3
REMARK VINA RESULT:      -6.5      2.347      3.088
REMARK  Name = 
REMARK  10 active torsions:
REMARK  status: ('A' for Active; 'I' for Inactive)
REMARK    1  A    between atoms: C_1  and  C_2
REMARK    2  A    between atoms: C_2  and  O_3
REMARK    3  A    between atoms: O_3  and  C_4
REMARK    4  A    between atoms: C_4  and  C_6
REMARK    5  A    between atoms: C_6  and  S_7
REMARK    6  A    between atoms: S_7  and  C_8
REMARK    7  A    between atoms: C_9  and  C_10
REMARK    8  A    between atoms: C_15  and  C_16
REMARK    9  A    between atoms: C_19  and  O_20
REMARK   10  A    between atoms: O_20  and  C_21
REMARK                            x       y       z     vdW  Elec       q    Type
REMARK                         _______ _______ _______ _____ _____    ______ ____
ROOT
ATOM      1  C   UNL     1       4.562   4.488  17.246  0.00  0.00    +0.000 C 
ATOM      2  C   UNL     1       5.625   4.793  18.023  0.00  0.00    +0.000 C 
ATOM      3  C   UNL     1       5.513   5.198  19.437  0.00  0.00    +0.000 C 
ATOM      4  O   UNL     1       6.507   5.408  20.126  0.00  0.00    +0.000 OA
ATOM      5  N   UNL     1       4.285   5.302  20.007  0.00  0.00    +0.000 N 
ATOM      6  C   UNL     1       3.011   5.379  19.347  0.00  0.00    +0.000 C 
ATOM      7  S   UNL     1       2.923   4.453  17.819  0.00  0.00    +0.000 S 
ATOM      8  H   UNL     1       4.321   5.638  20.962  0.00  0.00    +0.000 HD
ENDROOT
BRANCH   6   9
ATOM      9  C   UNL     1       2.482   6.791  19.206  0.00  0.00    +0.000 A 
ATOM     10  C   UNL     1       1.873   7.477  20.266  0.00  0.00    +0.000 A 
ATOM     11  C   UNL     1       1.352   8.758  20.076  0.00  0.00    +0.000 A 
ATOM     12  C   UNL     1       1.459   9.397  18.841  0.00  0.00    +0.000 A 
ATOM     13  C   UNL     1       2.083   8.741  17.783  0.00  0.00    +0.000 A 
ATOM     14  C   UNL     1       2.593   7.450  17.967  0.00  0.00    +0.000 A 
BRANCH  12  15
ATOM     15  O   UNL     1       0.882  10.634  18.776  0.00  0.00    +0.000 OA
ATOM     16  C   UNL     1      -0.255  10.832  19.607  0.00  0.00    +0.000 C 
ENDBRANCH  12  15
ENDBRANCH   6   9
BRANCH   2  17
ATOM     17  C   UNL     1       7.018   4.505  17.487  0.00  0.00    +0.000 C 
ATOM     18  N   UNL     1       8.174   4.267  17.042  0.00  0.00    +0.000 NA
ENDBRANCH   2  17
BRANCH   1  19
ATOM     19  S   UNL     1       4.796   3.896  15.595  0.00  0.00    +0.000 S 
BRANCH  19  20
ATOM     20  C   UNL     1       5.664   5.266  14.785  0.00  0.00    +0.000 C 
BRANCH  20  21
ATOM     21  C   UNL     1       6.770   4.834  13.849  0.00  0.00    +0.000 C 
ATOM     22  O   UNL     1       7.661   5.547  13.407  0.00  0.00    +0.000 OA
BRANCH  21  23
ATOM     23  O   UNL     1       6.533   3.546  13.455  0.00  0.00    +0.000 OA
BRANCH  23  25
ATOM     24  C   UNL     1       4.899   3.204  11.756  0.00  0.00    +0.000 C 
ATOM     25  C   UNL     1       6.382   3.342  12.043  0.00  0.00    +0.000 C 
ENDBRANCH  23  25
ENDBRANCH  21  23
ENDBRANCH  20  21
ENDBRANCH  19  20
ENDBRANCH   1  19
TORSDOF 8
ENDMDL
MODEL 4
REMARK VINA RESULT:      -6.5      2.006      7.301
REMARK  Name = 
REMARK  10 active torsions:
REMARK  status: ('A' for Active; 'I' for Inactive)
REMARK    1  A    between atoms: C_1  and  C_2
REMARK    2  A    between atoms: C_2  and  O_3
REMARK    3  A    between atoms: O_3  and  C_4
REMARK    4  A    between atoms: C_4  and  C_6
REMARK    5  A    between atoms: C_6  and  S_7
REMARK    6  A    between atoms: S_7  and  C_8
REMARK    7  A    between atoms: C_9  and  C_10
REMARK    8  A    between atoms: C_15  and  C_16
REMARK    9  A    between atoms: C_19  and  O_20
REMARK   10  A    between atoms: O_20  and  C_21
REMARK                            x       y       z     vdW  Elec       q    Type
REMARK                         _______ _______ _______ _____ _____    ______ ____
ROOT
ATOM      1  C   UNL     1       3.534   5.453  19.333  0.00  0.00    +0.000 C 
ATOM      2  C   UNL     1       3.180   4.159  19.491  0.00  0.00    +0.000 C 
ATOM      3  C   UNL     1       4.116   3.030  19.332  0.00  0.00    +0.000 C 
ATOM      4  O   UNL     1       3.769   1.872  19.543  0.00  0.00    +0.000 OA
ATOM      5  N   UNL     1       5.406   3.276  18.984  0.00  0.00    +0.000 N 
ATOM      6  C   UNL     1       5.954   4.482  18.428  0.00  0.00    +0.000 C 
ATOM      7  S   UNL     1       5.156   5.978  18.999  0.00  0.00    +0.000 S 
ATOM      8  H   UNL     1       5.946   2.430  18.850  0.00  0.00    +0.000 HD
ENDROOT
BRANCH   6   9
ATOM      9  C   UNL     1       6.111   4.442  16.922  0.00  0.00    +0.000 A 
ATOM     10  C   UNL     1       5.117   3.936  16.074  0.00  0.00    +0.000 A 
ATOM     11  C   UNL     1       5.327   3.871  14.695  0.00  0.00    +0.000 A 
ATOM     12  C   UNL     1       6.512   4.340  14.129  0.00  0.00    +0.000 A 
ATOM     13  C   UNL     1       7.501   4.869  14.954  0.00  0.00    +0.000 A 
ATOM     14  C   UNL     1       7.299   4.922  16.338  0.00  0.00    +0.000 A 
BRANCH  12  15
ATOM     15  O   UNL     1       6.606   4.190  12.774  0.00  0.00    +0.000 OA
ATOM     16  C   UNL     1       5.706   3.257  12.190  0.00  0.00    +0.000 C 
ENDBRANCH  12  15
ENDBRANCH   6   9
BRANCH   2  17
ATOM     17  C   UNL     1       1.806   3.851  20.064  0.00  0.00    +0.000 C 
ATOM     18  N   UNL     1       0.667   3.595  20.541  0.00  0.00    +0.000 NA
ENDBRANCH   2  17
BRANCH   1  19
ATOM     19  S   UNL     1       2.375   6.749  19.660  0.00  0.00    +0.000 S 
BRANCH  19  20
ATOM     20  C   UNL     1       2.284   7.630  18.079  0.00  0.00    +0.000 C 
BRANCH  20  21
ATOM     21  C   UNL     1       1.884   9.084  18.199  0.00  0.00    +0.000 C 
ATOM     22  O   UNL     1       2.281  10.002  17.495  0.00  0.00    +0.000 OA
BRANCH  21  23
ATOM     23  O   UNL     1       1.115   9.234  19.320  0.00  0.00    +0.000 OA
BRANCH  23  25
ATOM     24  C   UNL     1      -0.515  10.380  20.626  0.00  0.00    +0.000 C 
ATOM     25  C   UNL     1       0.078  10.223  19.238  0.00  0.00    +0.000 C 
ENDBRANCH  23  25
ENDBRANCH  21  23
ENDBRANCH  20  21
ENDBRANCH  19  20
ENDBRANCH   1  19
TORSDOF 8
ENDMDL
MODEL 5
REMARK VINA RESULT:      -6.5      1.098      1.854
REMARK  Name = 
REMARK  10 active torsions:
REMARK  status: ('A' for Active; 'I' for Inactive)
REMARK    1  A    between atoms: C_1  and  C_2
REMARK    2  A    between atoms: C_2  and  O_3
REMARK    3  A    between atoms: O_3  and  C_4
REMARK    4  A    between atoms: C_4  and  C_6
REMARK    5  A    between atoms: C_6  and  S_7
REMARK    6  A    between atoms: S_7  and  C_8
REMARK    7  A    between atoms: C_9  and  C_10
REMARK    8  A    between atoms: C_15  and  C_16
REMARK    9  A    between atoms: C_19  and  O_20
REMARK   10  A    between atoms: O_20  and  C_21
REMARK                            x       y       z     vdW  Elec       q    Type
REMARK                         _______ _______ _______ _____ _____    ______ ____
ROOT
ATOM      1  C   UNL     1       4.545   5.138  19.017  0.00  0.00    +0.000 C 
ATOM      2  C   UNL     1       3.717   4.158  19.441  0.00  0.00    +0.000 C 
ATOM      3  C   UNL     1       2.259   4.165  19.215  0.00  0.00    +0.000 C 
ATOM      4  O   UNL     1       1.550   3.226  19.563  0.00  0.00    +0.000 OA
ATOM      5  N   UNL     1       1.688   5.215  18.570  0.00  0.00    +0.000 N 
ATOM      6  C   UNL     1       2.254   6.514  18.329  0.00  0.00    +0.000 C 
ATOM      7  S   UNL     1       4.025   6.505  18.080  0.00  0.00    +0.000 S 
ATOM      8  H   UNL     1       0.679   5.144  18.516  0.00  0.00    +0.000 HD
ENDROOT
BRANCH   6   9
ATOM      9  C   UNL     1       1.809   7.566  19.324  0.00  0.00    +0.000 A 
ATOM     10  C   UNL     1       1.637   7.289  20.687  0.00  0.00    +0.000 A 
ATOM     11  C   UNL     1       1.175   8.278  21.559  0.00  0.00    +0.000 A 
ATOM     12  C   UNL     1       0.909   9.568  21.100  0.00  0.00    +0.000 A 
ATOM     13  C   UNL     1       1.098   9.868  19.753  0.00  0.00    +0.000 A 
ATOM     14  C   UNL     1       1.547   8.875  18.875  0.00  0.00    +0.000 A 
BRANCH  12  15
ATOM     15  O   UNL     1       0.432  10.432  22.045  0.00  0.00    +0.000 OA
ATOM     16  C   UNL     1      -0.402   9.859  23.044  0.00  0.00    +0.000 C 
ENDBRANCH  12  15
ENDBRANCH   6   9
BRANCH   2  17
ATOM     17  C   UNL     1       4.331   2.881  19.993  0.00  0.00    +0.000 C 
ATOM     18  N   UNL     1       4.840   1.822  20.451  0.00  0.00    +0.000 NA
ENDBRANCH   2  17
BRANCH   1  19
ATOM     19  S   UNL     1       6.295   4.989  19.227  0.00  0.00    +0.000 S 
BRANCH  19  20
ATOM     20  C   UNL     1       6.887   4.674  17.543  0.00  0.00    +0.000 C 
BRANCH  20  21
ATOM     21  C   UNL     1       7.402   5.901  16.825  0.00  0.00    +0.000 C 
ATOM     22  O   UNL     1       7.537   6.026  15.616  0.00  0.00    +0.000 OA
BRANCH  21  23
ATOM     23  O   UNL     1       7.833   6.804  17.757  0.00  0.00    +0.000 OA
BRANCH  23  25
ATOM     24  C   UNL     1       8.577   9.017  18.231  0.00  0.00    +0.000 C 
ATOM     25  C   UNL     1       7.572   8.184  17.458  0.00  0.00    +0.000 C 
ENDBRANCH  23  25
ENDBRANCH  21  23
ENDBRANCH  20  21
ENDBRANCH  19  20
ENDBRANCH   1  19
TORSDOF 8
ENDMDL
MODEL 6
REMARK VINA RESULT:      -6.4      2.033      7.330
REMARK  Name = 
REMARK  10 active torsions:
REMARK  status: ('A' for Active; 'I' for Inactive)
REMARK    1  A    between atoms: C_1  and  C_2
REMARK    2  A    between atoms: C_2  and  O_3
REMARK    3  A    between atoms: O_3  and  C_4
REMARK    4  A    between atoms: C_4  and  C_6
REMARK    5  A    between atoms: C_6  and  S_7
REMARK    6  A    between atoms: S_7  and  C_8
REMARK    7  A    between atoms: C_9  and  C_10
REMARK    8  A    between atoms: C_15  and  C_16
REMARK    9  A    between atoms: C_19  and  O_20
REMARK   10  A    between atoms: O_20  and  C_21
REMARK                            x       y       z     vdW  Elec       q    Type
REMARK                         _______ _______ _______ _____ _____    ______ ____
ROOT
ATOM      1  C   UNL     1       3.614   5.424  19.314  0.00  0.00    +0.000 C 
ATOM      2  C   UNL     1       3.356   4.120  19.552  0.00  0.00    +0.000 C 
ATOM      3  C   UNL     1       4.367   3.053  19.434  0.00  0.00    +0.000 C 
ATOM      4  O   UNL     1       4.109   1.887  19.717  0.00  0.00    +0.000 OA
ATOM      5  N   UNL     1       5.629   3.368  19.040  0.00  0.00    +0.000 N 
ATOM      6  C   UNL     1       6.077   4.576  18.404  0.00  0.00    +0.000 C 
ATOM      7  S   UNL     1       5.186   6.042  18.910  0.00  0.00    +0.000 S 
ATOM      8  H   UNL     1       6.225   2.556  18.940  0.00  0.00    +0.000 HD
ENDROOT
BRANCH   6   9
ATOM      9  C   UNL     1       6.205   4.460  16.899  0.00  0.00    +0.000 A 
ATOM     10  C   UNL     1       7.373   4.819  16.213  0.00  0.00    +0.000 A 
ATOM     11  C   UNL     1       7.428   4.745  14.819  0.00  0.00    +0.000 A 
ATOM     12  C   UNL     1       6.338   4.280  14.085  0.00  0.00    +0.000 A 
ATOM     13  C   UNL     1       5.178   3.895  14.751  0.00  0.00    +0.000 A 
ATOM     14  C   UNL     1       5.115   3.982  16.147  0.00  0.00    +0.000 A 
BRANCH  12  15
ATOM     15  O   UNL     1       6.508   4.286  12.729  0.00  0.00    +0.000 OA
ATOM     16  C   UNL     1       6.204   3.068  12.060  0.00  0.00    +0.000 C 
ENDBRANCH  12  15
ENDBRANCH   6   9
BRANCH   2  17
ATOM     17  C   UNL     1       2.020   3.749  20.177  0.00  0.00    +0.000 C 
ATOM     18  N   UNL     1       0.912   3.441  20.694  0.00  0.00    +0.000 NA
ENDBRANCH   2  17
BRANCH   1  19
ATOM     19  S   UNL     1       2.371   6.652  19.597  0.00  0.00    +0.000 S 
BRANCH  19  20
ATOM     20  C   UNL     1       2.421   7.647  18.082  0.00  0.00    +0.000 C 
BRANCH  20  21
ATOM     21  C   UNL     1       1.833   9.032  18.229  0.00  0.00    +0.000 C 
ATOM     22  O   UNL     1       2.013   9.976  17.472  0.00  0.00    +0.000 OA
BRANCH  21  23
ATOM     23  O   UNL     1       1.180   9.105  19.428  0.00  0.00    +0.000 OA
BRANCH  23  25
ATOM     24  C   UNL     1       0.699  10.498  21.300  0.00  0.00    +0.000 C 
ATOM     25  C   UNL     1       0.674  10.400  19.786  0.00  0.00    +0.000 C 
ENDBRANCH  23  25
ENDBRANCH  21  23
ENDBRANCH  20  21
ENDBRANCH  19  20
ENDBRANCH   1  19
TORSDOF 8
ENDMDL
MODEL 7
REMARK VINA RESULT:      -6.4      1.233      2.164
REMARK  Name = 
REMARK  10 active torsions:
REMARK  status: ('A' for Active; 'I' for Inactive)
REMARK    1  A    between atoms: C_1  and  C_2
REMARK    2  A    between atoms: C_2  and  O_3
REMARK    3  A    between atoms: O_3  and  C_4
REMARK    4  A    between atoms: C_4  and  C_6
REMARK    5  A    between atoms: C_6  and  S_7
REMARK    6  A    between atoms: S_7  and  C_8
REMARK    7  A    between atoms: C_9  and  C_10
REMARK    8  A    between atoms: C_15  and  C_16
REMARK    9  A    between atoms: C_19  and  O_20
REMARK   10  A    between atoms: O_20  and  C_21
REMARK                            x       y       z     vdW  Elec       q    Type
REMARK                         _______ _______ _______ _____ _____    ______ ____
ROOT
ATOM      1  C   UNL     1       4.724   5.081  18.776  0.00  0.00    +0.000 C 
ATOM      2  C   UNL     1       3.851   4.118  19.144  0.00  0.00    +0.000 C 
ATOM      3  C   UNL     1       2.427   4.116  18.760  0.00  0.00    +0.000 C 
ATOM      4  O   UNL     1       1.680   3.191  19.065  0.00  0.00    +0.000 OA
ATOM      5  N   UNL     1       1.933   5.141  18.017  0.00  0.00    +0.000 N 
ATOM      6  C   UNL     1       2.527   6.429  17.790  0.00  0.00    +0.000 C 
ATOM      7  S   UNL     1       4.315   6.412  17.737  0.00  0.00    +0.000 S 
ATOM      8  H   UNL     1       0.936   5.067  17.857  0.00  0.00    +0.000 HD
ENDROOT
BRANCH   6   9
ATOM      9  C   UNL     1       1.980   7.519  18.690  0.00  0.00    +0.000 A 
ATOM     10  C   UNL     1       1.610   8.781  18.206  0.00  0.00    +0.000 A 
ATOM     11  C   UNL     1       1.160   9.772  19.080  0.00  0.00    +0.000 A 
ATOM     12  C   UNL     1       1.034   9.518  20.445  0.00  0.00    +0.000 A 
ATOM     13  C   UNL     1       1.373   8.261  20.941  0.00  0.00    +0.000 A 
ATOM     14  C   UNL     1       1.839   7.270  20.069  0.00  0.00    +0.000 A 
BRANCH  12  15
ATOM     15  O   UNL     1       0.614  10.579  21.197  0.00  0.00    +0.000 OA
ATOM     16  C   UNL     1      -0.008  11.638  20.480  0.00  0.00    +0.000 C 
ENDBRANCH  12  15
ENDBRANCH   6   9
BRANCH   2  17
ATOM     17  C   UNL     1       4.396   2.863  19.807  0.00  0.00    +0.000 C 
ATOM     18  N   UNL     1       4.850   1.823  20.357  0.00  0.00    +0.000 NA
ENDBRANCH   2  17
BRANCH   1  19
ATOM     19  S   UNL     1       6.440   4.941  19.181  0.00  0.00    +0.000 S 
BRANCH  19  20
ATOM     20  C   UNL     1       7.220   4.638  17.573  0.00  0.00    +0.000 C 
BRANCH  20  21
ATOM     21  C   UNL     1       7.560   5.893  16.800  0.00  0.00    +0.000 C 
ATOM     22  O   UNL     1       7.593   6.003  15.582  0.00  0.00    +0.000 OA
BRANCH  21  23
ATOM     23  O   UNL     1       7.969   6.853  17.684  0.00  0.00    +0.000 OA
BRANCH  23  25
ATOM     24  C   UNL     1       8.438   9.133  18.186  0.00  0.00    +0.000 C 
ATOM     25  C   UNL     1       7.558   8.195  17.383  0.00  0.00    +0.000 C 
ENDBRANCH  23  25
ENDBRANCH  21  23
ENDBRANCH  20  21
ENDBRANCH  19  20
ENDBRANCH   1  19
TORSDOF 8
ENDMDL
MODEL 8
REMARK VINA RESULT:      -6.3      1.545      2.302
REMARK  Name = 
REMARK  10 active torsions:
REMARK  status: ('A' for Active; 'I' for Inactive)
REMARK    1  A    between atoms: C_1  and  C_2
REMARK    2  A    between atoms: C_2  and  O_3
REMARK    3  A    between atoms: O_3  and  C_4
REMARK    4  A    between atoms: C_4  and  C_6
REMARK    5  A    between atoms: C_6  and  S_7
REMARK    6  A    between atoms: S_7  and  C_8
REMARK    7  A    between atoms: C_9  and  C_10
REMARK    8  A    between atoms: C_15  and  C_16
REMARK    9  A    between atoms: C_19  and  O_20
REMARK   10  A    between atoms: O_20  and  C_21
REMARK                            x       y       z     vdW  Elec       q    Type
REMARK                         _______ _______ _______ _____ _____    ______ ____
ROOT
ATOM      1  C   UNL     1       4.720   4.727  18.499  0.00  0.00    +0.000 C 
ATOM      2  C   UNL     1       3.931   3.858  19.167  0.00  0.00    +0.000 C 
ATOM      3  C   UNL     1       2.460   3.846  19.066  0.00  0.00    +0.000 C 
ATOM      4  O   UNL     1       1.782   3.001  19.643  0.00  0.00    +0.000 OA
ATOM      5  N   UNL     1       1.836   4.767  18.285  0.00  0.00    +0.000 N 
ATOM      6  C   UNL     1       2.380   5.988  17.758  0.00  0.00    +0.000 C 
ATOM      7  S   UNL     1       4.124   5.903  17.368  0.00  0.00    +0.000 S 
ATOM      8  H   UNL     1       0.827   4.703  18.330  0.00  0.00    +0.000 HD
ENDROOT
BRANCH   6   9
ATOM      9  C   UNL     1       2.022   7.215  18.571  0.00  0.00    +0.000 A 
ATOM     10  C   UNL     1       1.970   7.202  19.971  0.00  0.00    +0.000 A 
ATOM     11  C   UNL     1       1.584   8.343  20.678  0.00  0.00    +0.000 A 
ATOM     12  C   UNL     1       1.278   9.528  20.009  0.00  0.00    +0.000 A 
ATOM     13  C   UNL     1       1.349   9.567  18.619  0.00  0.00    +0.000 A 
ATOM     14  C   UNL     1       1.721   8.420  17.908  0.00  0.00    +0.000 A 
BRANCH  12  15
ATOM     15  O   UNL     1       0.885  10.562  20.811  0.00  0.00    +0.000 OA
ATOM     16  C   UNL     1       1.200  11.866  20.341  0.00  0.00    +0.000 C 
ENDBRANCH  12  15
ENDBRANCH   6   9
BRANCH   2  17
ATOM     17  C   UNL     1       4.589   2.697  19.895  0.00  0.00    +0.000 C 
ATOM     18  N   UNL     1       5.135   1.734  20.499  0.00  0.00    +0.000 NA
ENDBRANCH   2  17
BRANCH   1  19
ATOM     19  S   UNL     1       6.482   4.591  18.586  0.00  0.00    +0.000 S 
BRANCH  19  20
ATOM     20  C   UNL     1       7.032   6.318  18.539  0.00  0.00    +0.000 C 
BRANCH  20  21
ATOM     21  C   UNL     1       7.413   6.812  17.161  0.00  0.00    +0.000 C 
ATOM     22  O   UNL     1       7.602   6.116  16.172  0.00  0.00    +0.000 OA
BRANCH  21  23
ATOM     23  O   UNL     1       7.656   8.155  17.230  0.00  0.00    +0.000 OA
BRANCH  23  25
ATOM     24  C   UNL     1       8.749  10.057  18.161  0.00  0.00    +0.000 C 
ATOM     25  C   UNL     1       8.393   8.599  18.380  0.00  0.00    +0.000 C 
ENDBRANCH  23  25
ENDBRANCH  21  23
ENDBRANCH  20  21
ENDBRANCH  19  20
ENDBRANCH   1  19
TORSDOF 8
ENDMDL
MODEL 9
REMARK VINA RESULT:      -6.3      0.996      1.190
REMARK  Name = 
REMARK  10 active torsions:
REMARK  status: ('A' for Active; 'I' for Inactive)
REMARK    1  A    between atoms: C_1  and  C_2
REMARK    2  A    between atoms: C_2  and  O_3
REMARK    3  A    between atoms: O_3  and  C_4
REMARK    4  A    between atoms: C_4  and  C_6
REMARK    5  A    between atoms: C_6  and  S_7
REMARK    6  A    between atoms: S_7  and  C_8
REMARK    7  A    between atoms: C_9  and  C_10
REMARK    8  A    between atoms: C_15  and  C_16
REMARK    9  A    between atoms: C_19  and  O_20
REMARK   10  A    between atoms: O_20  and  C_21
REMARK                            x       y       z     vdW  Elec       q    Type
REMARK                         _______ _______ _______ _____ _____    ______ ____
ROOT
ATOM      1  C   UNL     1       4.674   4.519  18.743  0.00  0.00    +0.000 C 
ATOM      2  C   UNL     1       3.884   3.637  19.394  0.00  0.00    +0.000 C 
ATOM      3  C   UNL     1       2.413   3.620  19.281  0.00  0.00    +0.000 C 
ATOM      4  O   UNL     1       1.735   2.765  19.842  0.00  0.00    +0.000 OA
ATOM      5  N   UNL     1       1.791   4.547  18.507  0.00  0.00    +0.000 N 
ATOM      6  C   UNL     1       2.333   5.777  17.999  0.00  0.00    +0.000 C 
ATOM      7  S   UNL     1       4.081   5.706  17.622  0.00  0.00    +0.000 S 
ATOM      8  H   UNL     1       0.782   4.478  18.543  0.00  0.00    +0.000 HD
ENDROOT
BRANCH   6   9
ATOM      9  C   UNL     1       1.963   6.992  18.824  0.00  0.00    +0.000 A 
ATOM     10  C   UNL     1       1.747   6.926  20.208  0.00  0.00    +0.000 A 
ATOM     11  C   UNL     1       1.356   8.062  20.919  0.00  0.00    +0.000 A 
ATOM     12  C   UNL     1       1.207   9.292  20.278  0.00  0.00    +0.000 A 
ATOM     13  C   UNL     1       1.442   9.382  18.908  0.00  0.00    +0.000 A 
ATOM     14  C   UNL     1       1.820   8.241  18.190  0.00  0.00    +0.000 A 
BRANCH  12  15
ATOM     15  O   UNL     1       0.790  10.317  21.079  0.00  0.00    +0.000 OA
ATOM     16  C   UNL     1       0.168   9.936  22.300  0.00  0.00    +0.000 C 
ENDBRANCH  12  15
ENDBRANCH   6   9
BRANCH   2  17
ATOM     17  C   UNL     1       4.542   2.471  20.114  0.00  0.00    +0.000 C 
ATOM     18  N   UNL     1       5.088   1.503  20.711  0.00  0.00    +0.000 NA
ENDBRANCH   2  17
BRANCH   1  19
ATOM     19  S   UNL     1       6.435   4.390  18.842  0.00  0.00    +0.000 S 
BRANCH  19  20
ATOM     20  C   UNL     1       6.988   6.101  18.610  0.00  0.00    +0.000 C 
BRANCH  20  21
ATOM     21  C   UNL     1       7.461   6.417  17.209  0.00  0.00    +0.000 C 
ATOM     22  O   UNL     1       7.584   7.533  16.724  0.00  0.00    +0.000 OA
BRANCH  21  23
ATOM     23  O   UNL     1       7.593   5.244  16.518  0.00  0.00    +0.000 OA
BRANCH  23  25
ATOM     24  C   UNL     1       6.201   3.913  15.116  0.00  0.00    +0.000 C 
ATOM     25  C   UNL     1       6.979   5.211  15.221  0.00  0.00    +0.000 C 
ENDBRANCH  23  25
ENDBRANCH  21  23
ENDBRANCH  20  21
ENDBRANCH  19  20
ENDBRANCH   1  19
TORSDOF 8
ENDMDL
