MODEL 1
REMARK VINA RESULT:      -8.2      0.000      0.000
REMARK  Name = 
REMARK  5 active torsions:
REMARK  status: ('A' for Active; 'I' for Inactive)
REMARK    1  A    between atoms: C_1  and  C_2
REMARK    2  A    between atoms: C_6  and  O_7
REMARK    3  A    between atoms: O_7  and  C_8
REMARK    4  A    between atoms: N_11  and  S_12
REMARK    5  A    between atoms: S_12  and  C_15
REMARK                            x       y       z     vdW  Elec       q    Type
REMARK                         _______ _______ _______ _____ _____    ______ ____
ROOT
ATOM      1  C   UNL     1       6.803   5.776  17.156  0.00  0.00    +0.000 C 
ATOM      2  C   UNL     1       6.668   5.632  18.681  0.00  0.00    +0.000 C 
ATOM      3  C   UNL     1       5.303   5.137  19.151  0.00  0.00    +0.000 C 
ATOM      4  N   UNL     1       4.233   6.013  18.600  0.00  0.00    +0.000 NA
ATOM      5  C   UNL     1       4.228   5.902  17.109  0.00  0.00    +0.000 C 
ATOM      6  C   UNL     1       5.548   6.412  16.533  0.00  0.00    +0.000 C 
ENDROOT
BRANCH   4   7
ATOM      7  S   UNL     1       2.663   5.727  19.270  0.00  0.00    +0.000 S 
ATOM      8  O   UNL     1       1.813   5.220  18.213  0.00  0.00    +0.000 OA
ATOM      9  O   UNL     1       2.855   4.986  20.498  0.00  0.00    +0.000 OA
BRANCH   7  10
ATOM     10  C   UNL     1       2.023   7.343  19.695  0.00  0.00    +0.000 A 
ATOM     11  C   UNL     1       1.917   8.320  18.684  0.00  0.00    +0.000 A 
ATOM     12  C   UNL     1       1.310   9.552  18.955  0.00  0.00    +0.000 A 
ATOM     13  C   UNL     1       0.797   9.757  20.222  0.00  0.00    +0.000 A 
ATOM     14  C   UNL     1       0.883   8.796  21.218  0.00  0.00    +0.000 A 
ATOM     15  C   UNL     1       1.508   7.579  20.981  0.00  0.00    +0.000 A 
ATOM     16  C   UNL     1       0.253   9.322  22.453  0.00  0.00    +0.000 C 
ATOM     17  C   UNL     1      -0.471  10.539  21.866  0.00  0.00    +0.000 C 
ATOM     18  O   UNL     1       0.157  10.905  20.614  0.00  0.00    +0.000 OA
ENDBRANCH   7  10
ENDBRANCH   4   7
BRANCH   1  19
ATOM     19  O   UNL     1       7.050   4.517  16.500  0.00  0.00    +0.000 OA
BRANCH  19  25
ATOM     20  C   UNL     1       8.630   6.090  12.249  0.00  0.00    +0.000 C 
ATOM     21  C   UNL     1       7.703   5.242  13.065  0.00  0.00    +0.000 A 
ATOM     22  N   UNL     1       6.900   4.390  12.404  0.00  0.00    +0.000 NA
ATOM     23  C   UNL     1       6.105   3.611  13.159  0.00  0.00    +0.000 A 
ATOM     24  C   UNL     1       6.089   3.649  14.533  0.00  0.00    +0.000 A 
ATOM     25  C   UNL     1       6.946   4.555  15.114  0.00  0.00    +0.000 A 
ATOM     26  N   UNL     1       7.750   5.369  14.407  0.00  0.00    +0.000 NA
ENDBRANCH  19  25
ENDBRANCH   1  19
TORSDOF 4
ENDMDL
MODEL 2
REMARK VINA RESULT:      -7.8      2.682      8.687
REMARK  Name = 
REMARK  5 active torsions:
REMARK  status: ('A' for Active; 'I' for Inactive)
REMARK    1  A    between atoms: C_1  and  C_2
REMARK    2  A    between atoms: C_6  and  O_7
REMARK    3  A    between atoms: O_7  and  C_8
REMARK    4  A    between atoms: N_11  and  S_12
REMARK    5  A    between atoms: S_12  and  C_15
REMARK                            x       y       z     vdW  Elec       q    Type
REMARK                         _______ _______ _______ _____ _____    ______ ____
ROOT
ATOM      1  C   UNL     1       1.444   6.900  19.854  0.00  0.00    +0.000 C 
ATOM      2  C   UNL     1       1.378   5.495  20.475  0.00  0.00    +0.000 C 
ATOM      3  C   UNL     1       2.692   4.719  20.426  0.00  0.00    +0.000 C 
ATOM      4  N   UNL     1       3.190   4.660  19.025  0.00  0.00    +0.000 NA
ATOM      5  C   UNL     1       3.504   6.045  18.558  0.00  0.00    +0.000 C 
ATOM      6  C   UNL     1       2.237   6.899  18.535  0.00  0.00    +0.000 C 
ENDROOT
BRANCH   4   7
ATOM      7  S   UNL     1       4.525   3.584  18.788  0.00  0.00    +0.000 S 
ATOM      8  O   UNL     1       5.411   3.716  19.927  0.00  0.00    +0.000 OA
ATOM      9  O   UNL     1       3.974   2.301  18.412  0.00  0.00    +0.000 OA
BRANCH   7  10
ATOM     10  C   UNL     1       5.420   4.236  17.382  0.00  0.00    +0.000 A 
ATOM     11  C   UNL     1       6.560   5.031  17.610  0.00  0.00    +0.000 A 
ATOM     12  C   UNL     1       7.351   5.455  16.536  0.00  0.00    +0.000 A 
ATOM     13  C   UNL     1       6.994   5.043  15.266  0.00  0.00    +0.000 A 
ATOM     14  C   UNL     1       5.882   4.248  15.034  0.00  0.00    +0.000 A 
ATOM     15  C   UNL     1       5.066   3.841  16.081  0.00  0.00    +0.000 A 
ATOM     16  C   UNL     1       5.767   3.991  13.578  0.00  0.00    +0.000 C 
ATOM     17  C   UNL     1       7.153   4.468  13.129  0.00  0.00    +0.000 C 
ATOM     18  O   UNL     1       7.692   5.365  14.129  0.00  0.00    +0.000 OA
ENDBRANCH   7  10
ENDBRANCH   4   7
BRANCH   1  19
ATOM     19  O   UNL     1       2.034   7.870  20.740  0.00  0.00    +0.000 OA
BRANCH  19  25
ATOM     20  C   UNL     1      -1.069  11.343  19.576  0.00  0.00    +0.000 C 
ATOM     21  C   UNL     1      -0.340  10.534  20.605  0.00  0.00    +0.000 A 
ATOM     22  N   UNL     1      -0.678  10.722  21.893  0.00  0.00    +0.000 NA
ATOM     23  C   UNL     1      -0.039   9.957  22.796  0.00  0.00    +0.000 A 
ATOM     24  C   UNL     1       0.909   9.019  22.460  0.00  0.00    +0.000 A 
ATOM     25  C   UNL     1       1.184   8.904  21.117  0.00  0.00    +0.000 A 
ATOM     26  N   UNL     1       0.587   9.655  20.174  0.00  0.00    +0.000 NA
ENDBRANCH  19  25
ENDBRANCH   1  19
TORSDOF 4
ENDMDL
MODEL 3
REMARK VINA RESULT:      -7.8      0.675      1.506
REMARK  Name = 
REMARK  5 active torsions:
REMARK  status: ('A' for Active; 'I' for Inactive)
REMARK    1  A    between atoms: C_1  and  C_2
REMARK    2  A    between atoms: C_6  and  O_7
REMARK    3  A    between atoms: O_7  and  C_8
REMARK    4  A    between atoms: N_11  and  S_12
REMARK    5  A    between atoms: S_12  and  C_15
REMARK                            x       y       z     vdW  Elec       q    Type
REMARK                         _______ _______ _______ _____ _____    ______ ____
ROOT
ATOM      1  C   UNL     1       7.123   5.884  17.491  0.00  0.00    +0.000 C 
ATOM      2  C   UNL     1       6.875   5.666  18.992  0.00  0.00    +0.000 C 
ATOM      3  C   UNL     1       5.504   5.086  19.329  0.00  0.00    +0.000 C 
ATOM      4  N   UNL     1       4.437   5.934  18.729  0.00  0.00    +0.000 NA
ATOM      5  C   UNL     1       4.556   5.890  17.239  0.00  0.00    +0.000 C 
ATOM      6  C   UNL     1       5.891   6.488  16.794  0.00  0.00    +0.000 C 
ENDROOT
BRANCH   4   7
ATOM      7  S   UNL     1       2.836   5.544  19.256  0.00  0.00    +0.000 S 
ATOM      8  O   UNL     1       2.127   4.961  18.136  0.00  0.00    +0.000 OA
ATOM      9  O   UNL     1       2.964   4.838  20.513  0.00  0.00    +0.000 OA
BRANCH   7  10
ATOM     10  C   UNL     1       2.045   7.116  19.584  0.00  0.00    +0.000 A 
ATOM     11  C   UNL     1       1.514   7.357  20.867  0.00  0.00    +0.000 A 
ATOM     12  C   UNL     1       0.998   8.616  21.192  0.00  0.00    +0.000 A 
ATOM     13  C   UNL     1       1.058   9.609  20.231  0.00  0.00    +0.000 A 
ATOM     14  C   UNL     1       1.592   9.385  18.971  0.00  0.00    +0.000 A 
ATOM     15  C   UNL     1       2.082   8.135  18.617  0.00  0.00    +0.000 A 
ATOM     16  C   UNL     1       1.502  10.636  18.179  0.00  0.00    +0.000 C 
ATOM     17  C   UNL     1       1.168  11.622  19.304  0.00  0.00    +0.000 C 
ATOM     18  O   UNL     1       0.612  10.892  20.424  0.00  0.00    +0.000 OA
ENDBRANCH   7  10
ENDBRANCH   4   7
BRANCH   1  19
ATOM     19  O   UNL     1       7.485   4.669  16.806  0.00  0.00    +0.000 OA
BRANCH  19  25
ATOM     20  C   UNL     1       8.324   6.011  12.274  0.00  0.00    +0.000 C 
ATOM     21  C   UNL     1       7.546   5.216  13.278  0.00  0.00    +0.000 A 
ATOM     22  N   UNL     1       6.639   4.343  12.807  0.00  0.00    +0.000 NA
ATOM     23  C   UNL     1       5.980   3.612  13.725  0.00  0.00    +0.000 A 
ATOM     24  C   UNL     1       6.199   3.718  15.078  0.00  0.00    +0.000 A 
ATOM     25  C   UNL     1       7.147   4.640  15.458  0.00  0.00    +0.000 A 
ATOM     26  N   UNL     1       7.822   5.409  14.584  0.00  0.00    +0.000 NA
ENDBRANCH  19  25
ENDBRANCH   1  19
TORSDOF 4
ENDMDL
MODEL 4
REMARK VINA RESULT:      -7.7      0.673      1.335
REMARK  Name = 
REMARK  5 active torsions:
REMARK  status: ('A' for Active; 'I' for Inactive)
REMARK    1  A    between atoms: C_1  and  C_2
REMARK    2  A    between atoms: C_6  and  O_7
REMARK    3  A    between atoms: O_7  and  C_8
REMARK    4  A    between atoms: N_11  and  S_12
REMARK    5  A    between atoms: S_12  and  C_15
REMARK                            x       y       z     vdW  Elec       q    Type
REMARK                         _______ _______ _______ _____ _____    ______ ____
ROOT
ATOM      1  C   UNL     1       6.699   5.566  16.782  0.00  0.00    +0.000 C 
ATOM      2  C   UNL     1       6.702   5.519  18.318  0.00  0.00    +0.000 C 
ATOM      3  C   UNL     1       5.386   5.059  18.940  0.00  0.00    +0.000 C 
ATOM      4  N   UNL     1       4.269   5.903  18.435  0.00  0.00    +0.000 NA
ATOM      5  C   UNL     1       4.129   5.699  16.960  0.00  0.00    +0.000 C 
ATOM      6  C   UNL     1       5.392   6.167  16.236  0.00  0.00    +0.000 C 
ENDROOT
BRANCH   4   7
ATOM      7  S   UNL     1       2.767   5.666  19.261  0.00  0.00    +0.000 S 
ATOM      8  O   UNL     1       1.852   5.017  18.344  0.00  0.00    +0.000 OA
ATOM      9  O   UNL     1       3.079   5.084  20.547  0.00  0.00    +0.000 OA
BRANCH   7  10
ATOM     10  C   UNL     1       2.112   7.308  19.541  0.00  0.00    +0.000 A 
ATOM     11  C   UNL     1       2.025   8.201  18.454  0.00  0.00    +0.000 A 
ATOM     12  C   UNL     1       1.407   9.447  18.613  0.00  0.00    +0.000 A 
ATOM     13  C   UNL     1       0.866   9.750  19.848  0.00  0.00    +0.000 A 
ATOM     14  C   UNL     1       0.934   8.871  20.919  0.00  0.00    +0.000 A 
ATOM     15  C   UNL     1       1.569   7.642  20.793  0.00  0.00    +0.000 A 
ATOM     16  C   UNL     1       0.275   9.490  22.094  0.00  0.00    +0.000 C 
ATOM     17  C   UNL     1      -0.441  10.652  21.398  0.00  0.00    +0.000 C 
ATOM     18  O   UNL     1       0.213  10.921  20.134  0.00  0.00    +0.000 OA
ENDBRANCH   7  10
ENDBRANCH   4   7
BRANCH   1  19
ATOM     19  O   UNL     1       6.887   4.267  16.187  0.00  0.00    +0.000 OA
BRANCH  19  25
ATOM     20  C   UNL     1       5.311   2.872  11.872  0.00  0.00    +0.000 C 
ATOM     21  C   UNL     1       6.247   3.674  12.724  0.00  0.00    +0.000 A 
ATOM     22  N   UNL     1       7.071   4.533  12.099  0.00  0.00    +0.000 NA
ATOM     23  C   UNL     1       7.875   5.271  12.886  0.00  0.00    +0.000 A 
ATOM     24  C   UNL     1       7.879   5.185  14.258  0.00  0.00    +0.000 A 
ATOM     25  C   UNL     1       7.001   4.275  14.801  0.00  0.00    +0.000 A 
ATOM     26  N   UNL     1       6.188   3.501  14.060  0.00  0.00    +0.000 NA
ENDBRANCH  19  25
ENDBRANCH   1  19
TORSDOF 4
ENDMDL
MODEL 5
REMARK VINA RESULT:      -7.7      2.849      8.570
REMARK  Name = 
REMARK  5 active torsions:
REMARK  status: ('A' for Active; 'I' for Inactive)
REMARK    1  A    between atoms: C_1  and  C_2
REMARK    2  A    between atoms: C_6  and  O_7
REMARK    3  A    between atoms: O_7  and  C_8
REMARK    4  A    between atoms: N_11  and  S_12
REMARK    5  A    between atoms: S_12  and  C_15
REMARK                            x       y       z     vdW  Elec       q    Type
REMARK                         _______ _______ _______ _____ _____    ______ ____
ROOT
ATOM      1  C   UNL     1       1.101   9.249  20.264  0.00  0.00    +0.000 C 
ATOM      2  C   UNL     1       1.886   8.965  18.973  0.00  0.00    +0.000 C 
ATOM      3  C   UNL     1       1.907   7.497  18.555  0.00  0.00    +0.000 C 
ATOM      4  N   UNL     1       2.409   6.661  19.679  0.00  0.00    +0.000 NA
ATOM      5  C   UNL     1       1.454   6.756  20.825  0.00  0.00    +0.000 C 
ATOM      6  C   UNL     1       1.387   8.192  21.345  0.00  0.00    +0.000 C 
ENDROOT
BRANCH   4   7
ATOM      7  S   UNL     1       2.738   5.016  19.252  0.00  0.00    +0.000 S 
ATOM      8  O   UNL     1       3.066   4.298  20.466  0.00  0.00    +0.000 OA
ATOM      9  O   UNL     1       1.662   4.580  18.390  0.00  0.00    +0.000 OA
BRANCH   7  10
ATOM     10  C   UNL     1       4.240   5.066  18.281  0.00  0.00    +0.000 A 
ATOM     11  C   UNL     1       5.482   5.034  18.945  0.00  0.00    +0.000 A 
ATOM     12  C   UNL     1       6.672   4.949  18.213  0.00  0.00    +0.000 A 
ATOM     13  C   UNL     1       6.581   4.867  16.836  0.00  0.00    +0.000 A 
ATOM     14  C   UNL     1       5.363   4.883  16.175  0.00  0.00    +0.000 A 
ATOM     15  C   UNL     1       4.171   4.997  16.878  0.00  0.00    +0.000 A 
ATOM     16  C   UNL     1       5.604   4.790  14.714  0.00  0.00    +0.000 C 
ATOM     17  C   UNL     1       7.081   4.379  14.730  0.00  0.00    +0.000 C 
ATOM     18  O   UNL     1       7.663   4.756  16.001  0.00  0.00    +0.000 OA
ENDBRANCH   7  10
ENDBRANCH   4   7
BRANCH   1  19
ATOM     19  O   UNL     1      -0.322   9.304  20.047  0.00  0.00    +0.000 OA
BRANCH  19  25
ATOM     20  C   UNL     1      -0.004  14.009  19.146  0.00  0.00    +0.000 C 
ATOM     21  C   UNL     1      -0.604  12.664  18.870  0.00  0.00    +0.000 A 
ATOM     22  N   UNL     1      -1.441  12.563  17.823  0.00  0.00    +0.000 NA
ATOM     23  C   UNL     1      -1.937  11.338  17.570  0.00  0.00    +0.000 A 
ATOM     24  C   UNL     1      -1.625  10.225  18.314  0.00  0.00    +0.000 A 
ATOM     25  C   UNL     1      -0.761  10.434  19.365  0.00  0.00    +0.000 A 
ATOM     26  N   UNL     1      -0.250  11.640  19.672  0.00  0.00    +0.000 NA
ENDBRANCH  19  25
ENDBRANCH   1  19
TORSDOF 4
ENDMDL
MODEL 6
REMARK VINA RESULT:      -7.5      0.937      1.994
REMARK  Name = 
REMARK  5 active torsions:
REMARK  status: ('A' for Active; 'I' for Inactive)
REMARK    1  A    between atoms: C_1  and  C_2
REMARK    2  A    between atoms: C_6  and  O_7
REMARK    3  A    between atoms: O_7  and  C_8
REMARK    4  A    between atoms: N_11  and  S_12
REMARK    5  A    between atoms: S_12  and  C_15
REMARK                            x       y       z     vdW  Elec       q    Type
REMARK                         _______ _______ _______ _____ _____    ______ ____
ROOT
ATOM      1  C   UNL     1       6.676   5.824  16.504  0.00  0.00    +0.000 C 
ATOM      2  C   UNL     1       6.759   5.913  18.036  0.00  0.00    +0.000 C 
ATOM      3  C   UNL     1       5.581   5.281  18.772  0.00  0.00    +0.000 C 
ATOM      4  N   UNL     1       4.305   5.862  18.272  0.00  0.00    +0.000 NA
ATOM      5  C   UNL     1       4.137   5.507  16.829  0.00  0.00    +0.000 C 
ATOM      6  C   UNL     1       5.257   6.129  15.995  0.00  0.00    +0.000 C 
ENDROOT
BRANCH   4   7
ATOM      7  S   UNL     1       2.912   5.431  19.205  0.00  0.00    +0.000 S 
ATOM      8  O   UNL     1       2.016   4.682  18.348  0.00  0.00    +0.000 OA
ATOM      9  O   UNL     1       3.393   4.879  20.452  0.00  0.00    +0.000 OA
BRANCH   7  10
ATOM     10  C   UNL     1       2.083   6.975  19.566  0.00  0.00    +0.000 A 
ATOM     11  C   UNL     1       1.531   7.168  20.848  0.00  0.00    +0.000 A 
ATOM     12  C   UNL     1       0.984   8.406  21.202  0.00  0.00    +0.000 A 
ATOM     13  C   UNL     1       1.034   9.427  20.271  0.00  0.00    +0.000 A 
ATOM     14  C   UNL     1       1.589   9.251  19.012  0.00  0.00    +0.000 A 
ATOM     15  C   UNL     1       2.110   8.022  18.628  0.00  0.00    +0.000 A 
ATOM     16  C   UNL     1       1.481  10.521  18.255  0.00  0.00    +0.000 C 
ATOM     17  C   UNL     1       1.112  11.467  19.402  0.00  0.00    +0.000 C 
ATOM     18  O   UNL     1       0.558  10.694  20.494  0.00  0.00    +0.000 OA
ENDBRANCH   7  10
ENDBRANCH   4   7
BRANCH   1  19
ATOM     19  O   UNL     1       7.074   4.533  16.002  0.00  0.00    +0.000 OA
BRANCH  19  25
ATOM     20  C   UNL     1       5.361   2.790  11.869  0.00  0.00    +0.000 C 
ATOM     21  C   UNL     1       6.309   3.673  12.621  0.00  0.00    +0.000 A 
ATOM     22  N   UNL     1       7.084   4.504  11.901  0.00  0.00    +0.000 NA
ATOM     23  C   UNL     1       7.899   5.316  12.598  0.00  0.00    +0.000 A 
ATOM     24  C   UNL     1       7.961   5.330  13.971  0.00  0.00    +0.000 A 
ATOM     25  C   UNL     1       7.130   4.443  14.615  0.00  0.00    +0.000 A 
ATOM     26  N   UNL     1       6.309   3.597  13.967  0.00  0.00    +0.000 NA
ENDBRANCH  19  25
ENDBRANCH   1  19
TORSDOF 4
ENDMDL
MODEL 7
REMARK VINA RESULT:      -7.5      2.543      4.187
REMARK  Name = 
REMARK  5 active torsions:
REMARK  status: ('A' for Active; 'I' for Inactive)
REMARK    1  A    between atoms: C_1  and  C_2
REMARK    2  A    between atoms: C_6  and  O_7
REMARK    3  A    between atoms: O_7  and  C_8
REMARK    4  A    between atoms: N_11  and  S_12
REMARK    5  A    between atoms: S_12  and  C_15
REMARK                            x       y       z     vdW  Elec       q    Type
REMARK                         _______ _______ _______ _____ _____    ______ ____
ROOT
ATOM      1  C   UNL     1       3.078   5.525  18.870  0.00  0.00    +0.000 C 
ATOM      2  C   UNL     1       2.736   6.910  18.297  0.00  0.00    +0.000 C 
ATOM      3  C   UNL     1       2.357   7.952  19.345  0.00  0.00    +0.000 C 
ATOM      4  N   UNL     1       1.246   7.435  20.191  0.00  0.00    +0.000 NA
ATOM      5  C   UNL     1       1.722   6.236  20.946  0.00  0.00    +0.000 C 
ATOM      6  C   UNL     1       2.095   5.112  19.979  0.00  0.00    +0.000 C 
ENDROOT
BRANCH   4   7
ATOM      7  S   UNL     1       0.541   8.616  21.241  0.00  0.00    +0.000 S 
ATOM      8  O   UNL     1      -0.768   8.138  21.634  0.00  0.00    +0.000 OA
ATOM      9  O   UNL     1       1.543   8.958  22.227  0.00  0.00    +0.000 OA
BRANCH   7  10
ATOM     10  C   UNL     1       0.259  10.057  20.218  0.00  0.00    +0.000 A 
ATOM     11  C   UNL     1      -0.758  10.012  19.243  0.00  0.00    +0.000 A 
ATOM     12  C   UNL     1      -1.085  11.158  18.511  0.00  0.00    +0.000 A 
ATOM     13  C   UNL     1      -0.405  12.327  18.798  0.00  0.00    +0.000 A 
ATOM     14  C   UNL     1       0.587  12.385  19.766  0.00  0.00    +0.000 A 
ATOM     15  C   UNL     1       0.949  11.253  20.484  0.00  0.00    +0.000 A 
ATOM     16  C   UNL     1       1.124  13.766  19.826  0.00  0.00    +0.000 C 
ATOM     17  C   UNL     1       0.048  14.489  19.009  0.00  0.00    +0.000 C 
ATOM     18  O   UNL     1      -0.641  13.526  18.175  0.00  0.00    +0.000 OA
ENDBRANCH   7  10
ENDBRANCH   4   7
BRANCH   1  19
ATOM     19  O   UNL     1       4.416   5.459  19.399  0.00  0.00    +0.000 OA
BRANCH  19  25
ATOM     20  C   UNL     1       5.636   4.099  14.959  0.00  0.00    +0.000 C 
ATOM     21  C   UNL     1       6.011   4.460  16.364  0.00  0.00    +0.000 A 
ATOM     22  N   UNL     1       7.322   4.562  16.648  0.00  0.00    +0.000 NA
ATOM     23  C   UNL     1       7.635   4.925  17.904  0.00  0.00    +0.000 A 
ATOM     24  C   UNL     1       6.696   5.194  18.872  0.00  0.00    +0.000 A 
ATOM     25  C   UNL     1       5.383   5.061  18.482  0.00  0.00    +0.000 A 
ATOM     26  N   UNL     1       5.015   4.684  17.244  0.00  0.00    +0.000 NA
ENDBRANCH  19  25
ENDBRANCH   1  19
TORSDOF 4
ENDMDL
MODEL 8
REMARK VINA RESULT:      -7.5      2.661      8.803
REMARK  Name = 
REMARK  5 active torsions:
REMARK  status: ('A' for Active; 'I' for Inactive)
REMARK    1  A    between atoms: C_1  and  C_2
REMARK    2  A    between atoms: C_6  and  O_7
REMARK    3  A    between atoms: O_7  and  C_8
REMARK    4  A    between atoms: N_11  and  S_12
REMARK    5  A    between atoms: S_12  and  C_15
REMARK                            x       y       z     vdW  Elec       q    Type
REMARK                         _______ _______ _______ _____ _____    ______ ____
ROOT
ATOM      1  C   UNL     1       1.552   6.954  19.645  0.00  0.00    +0.000 C 
ATOM      2  C   UNL     1       1.704   5.565  20.285  0.00  0.00    +0.000 C 
ATOM      3  C   UNL     1       3.140   5.054  20.356  0.00  0.00    +0.000 C 
ATOM      4  N   UNL     1       3.753   5.086  19.000  0.00  0.00    +0.000 NA
ATOM      5  C   UNL     1       3.835   6.504  18.533  0.00  0.00    +0.000 C 
ATOM      6  C   UNL     1       2.435   7.101  18.394  0.00  0.00    +0.000 C 
ENDROOT
BRANCH   4   7
ATOM      7  S   UNL     1       5.283   4.285  18.890  0.00  0.00    +0.000 S 
ATOM      8  O   UNL     1       6.218   4.991  19.741  0.00  0.00    +0.000 OA
ATOM      9  O   UNL     1       5.033   2.870  19.061  0.00  0.00    +0.000 OA
BRANCH   7  10
ATOM     10  C   UNL     1       5.841   4.548  17.210  0.00  0.00    +0.000 A 
ATOM     11  C   UNL     1       7.102   5.139  16.996  0.00  0.00    +0.000 A 
ATOM     12  C   UNL     1       7.619   5.249  15.701  0.00  0.00    +0.000 A 
ATOM     13  C   UNL     1       6.872   4.734  14.658  0.00  0.00    +0.000 A 
ATOM     14  C   UNL     1       5.636   4.138  14.861  0.00  0.00    +0.000 A 
ATOM     15  C   UNL     1       5.089   4.045  16.134  0.00  0.00    +0.000 A 
ATOM     16  C   UNL     1       5.090   3.701  13.553  0.00  0.00    +0.000 C 
ATOM     17  C   UNL     1       6.352   3.840  12.695  0.00  0.00    +0.000 C 
ATOM     18  O   UNL     1       7.269   4.752  13.345  0.00  0.00    +0.000 OA
ENDBRANCH   7  10
ENDBRANCH   4   7
BRANCH   1  19
ATOM     19  O   UNL     1       1.873   8.023  20.557  0.00  0.00    +0.000 OA
BRANCH  19  25
ATOM     20  C   UNL     1      -1.113  10.757  23.137  0.00  0.00    +0.000 C 
ATOM     21  C   UNL     1      -0.479  10.390  21.830  0.00  0.00    +0.000 A 
ATOM     22  N   UNL     1      -0.728  11.186  20.775  0.00  0.00    +0.000 NA
ATOM     23  C   UNL     1      -0.117  10.859  19.622  0.00  0.00    +0.000 A 
ATOM     24  C   UNL     1       0.728   9.783  19.491  0.00  0.00    +0.000 A 
ATOM     25  C   UNL     1       0.918   9.031  20.627  0.00  0.00    +0.000 A 
ATOM     26  N   UNL     1       0.319   9.303  21.801  0.00  0.00    +0.000 NA
ENDBRANCH  19  25
ENDBRANCH   1  19
TORSDOF 4
ENDMDL
MODEL 9
REMARK VINA RESULT:      -7.4      3.066      9.139
REMARK  Name = 
REMARK  5 active torsions:
REMARK  status: ('A' for Active; 'I' for Inactive)
REMARK    1  A    between atoms: C_1  and  C_2
REMARK    2  A    between atoms: C_6  and  O_7
REMARK    3  A    between atoms: O_7  and  C_8
REMARK    4  A    between atoms: N_11  and  S_12
REMARK    5  A    between atoms: S_12  and  C_15
REMARK                            x       y       z     vdW  Elec       q    Type
REMARK                         _______ _______ _______ _____ _____    ______ ____
ROOT
ATOM      1  C   UNL     1       1.171   9.857  19.223  0.00  0.00    +0.000 C 
ATOM      2  C   UNL     1       2.083   9.352  18.092  0.00  0.00    +0.000 C 
ATOM      3  C   UNL     1       2.117   7.834  17.937  0.00  0.00    +0.000 C 
ATOM      4  N   UNL     1       2.478   7.203  19.235  0.00  0.00    +0.000 NA
ATOM      5  C   UNL     1       1.408   7.497  20.237  0.00  0.00    +0.000 C 
ATOM      6  C   UNL     1       1.318   9.001  20.493  0.00  0.00    +0.000 C 
ENDROOT
BRANCH   4   7
ATOM      7  S   UNL     1       2.814   5.508  19.135  0.00  0.00    +0.000 S 
ATOM      8  O   UNL     1       3.088   5.028  20.474  0.00  0.00    +0.000 OA
ATOM      9  O   UNL     1       1.771   4.917  18.325  0.00  0.00    +0.000 OA
BRANCH   7  10
ATOM     10  C   UNL     1       4.354   5.379  18.234  0.00  0.00    +0.000 A 
ATOM     11  C   UNL     1       5.539   5.104  18.946  0.00  0.00    +0.000 A 
ATOM     12  C   UNL     1       6.738   4.878  18.260  0.00  0.00    +0.000 A 
ATOM     13  C   UNL     1       6.709   4.902  16.879  0.00  0.00    +0.000 A 
ATOM     14  C   UNL     1       5.545   5.158  16.169  0.00  0.00    +0.000 A 
ATOM     15  C   UNL     1       4.351   5.415  16.828  0.00  0.00    +0.000 A 
ATOM     16  C   UNL     1       5.847   5.124  14.717  0.00  0.00    +0.000 C 
ATOM     17  C   UNL     1       7.237   4.480  14.765  0.00  0.00    +0.000 C 
ATOM     18  O   UNL     1       7.804   4.674  16.084  0.00  0.00    +0.000 OA
ENDBRANCH   7  10
ENDBRANCH   4   7
BRANCH   1  19
ATOM     19  O   UNL     1      -0.219   9.878  18.846  0.00  0.00    +0.000 OA
BRANCH  19  25
ATOM     20  C   UNL     1      -4.325  12.311  19.371  0.00  0.00    +0.000 C 
ATOM     21  C   UNL     1      -2.835  12.220  19.500  0.00  0.00    +0.000 A 
ATOM     22  N   UNL     1      -2.205  13.231  20.124  0.00  0.00    +0.000 NA
ATOM     23  C   UNL     1      -0.873  13.109  20.264  0.00  0.00    +0.000 A 
ATOM     24  C   UNL     1      -0.159  12.025  19.813  0.00  0.00    +0.000 A 
ATOM     25  C   UNL     1      -0.895  11.045  19.187  0.00  0.00    +0.000 A 
ATOM     26  N   UNL     1      -2.225  11.123  19.006  0.00  0.00    +0.000 NA
ENDBRANCH  19  25
ENDBRANCH   1  19
TORSDOF 4
ENDMDL
