MODEL 1
REMARK VINA RESULT:      -8.0      0.000      0.000
REMARK  Name = 
REMARK  8 active torsions:
REMARK  status: ('A' for Active; 'I' for Inactive)
REMARK    1  A    between atoms: C_1  and  O_2
REMARK    2  A    between atoms: O_2  and  C_3
REMARK    3  A    between atoms: C_7  and  C_8
REMARK    4  A    between atoms: C_8  and  C_9
REMARK    5  A    between atoms: C_9  and  C_10
REMARK    6  A    between atoms: N_15  and  C_16
REMARK    7  A    between atoms: C_21  and  O_22
REMARK    8  A    between atoms: O_22  and  C_23
REMARK                            x       y       z     vdW  Elec       q    Type
REMARK                         _______ _______ _______ _____ _____    ______ ____
ROOT
ATOM      1  C   UNL     1       2.856   4.494  18.928  0.00  0.00    +0.000 A 
ATOM      2  N   UNL     1       2.186   4.136  19.988  0.00  0.00    +0.000 NA
ATOM      3  N   UNL     1       2.915   3.113  20.519  0.00  0.00    +0.000 N 
ATOM      4  C   UNL     1       4.066   2.892  19.770  0.00  0.00    +0.000 A 
ATOM      5  O   UNL     1       4.979   2.149  20.078  0.00  0.00    +0.000 OA
ATOM      6  N   UNL     1       3.948   3.730  18.681  0.00  0.00    +0.000 N 
ATOM      7  H   UNL     1       2.712   2.716  21.428  0.00  0.00    +0.000 HD
ENDROOT
BRANCH   6   8
ATOM      8  C   UNL     1       4.994   3.999  17.792  0.00  0.00    +0.000 A 
ATOM      9  C   UNL     1       4.799   3.669  16.438  0.00  0.00    +0.000 A 
ATOM     10  C   UNL     1       5.785   3.946  15.488  0.00  0.00    +0.000 A 
ATOM     11  C   UNL     1       6.970   4.554  15.884  0.00  0.00    +0.000 A 
ATOM     12  C   UNL     1       7.159   4.899  17.223  0.00  0.00    +0.000 A 
ATOM     13  C   UNL     1       6.185   4.625  18.191  0.00  0.00    +0.000 A 
BRANCH  13  14
ATOM     14  O   UNL     1       6.545   5.080  19.430  0.00  0.00    +0.000 OA
ATOM     15  C   UNL     1       7.782   5.754  19.590  0.00  0.00    +0.000 C 
ENDBRANCH  13  14
ENDBRANCH   6   8
BRANCH   1  16
ATOM     16  C   UNL     1       2.401   5.598  18.003  0.00  0.00    +0.000 C 
BRANCH  16  17
ATOM     17  C   UNL     1       3.024   6.961  18.311  0.00  0.00    +0.000 C 
BRANCH  17  22
ATOM     18  C   UNL     1       0.724   9.929  19.043  0.00  0.00    +0.000 A 
ATOM     19  C   UNL     1       0.416   9.693  20.385  0.00  0.00    +0.000 A 
ATOM     20  C   UNL     1       0.957   8.595  21.053  0.00  0.00    +0.000 A 
ATOM     21  C   UNL     1       1.811   7.723  20.383  0.00  0.00    +0.000 A 
ATOM     22  C   UNL     1       2.124   7.935  19.034  0.00  0.00    +0.000 A 
ATOM     23  C   UNL     1       1.580   9.051  18.373  0.00  0.00    +0.000 A 
BRANCH  18  25
ATOM     24  C   UNL     1      -0.626  11.855  19.399  0.00  0.00    +0.000 C 
ATOM     25  O   UNL     1       0.134  11.043  18.513  0.00  0.00    +0.000 OA
ENDBRANCH  18  25
ENDBRANCH  17  22
ENDBRANCH  16  17
ENDBRANCH   1  16
TORSDOF 6
ENDMDL
MODEL 2
REMARK VINA RESULT:      -7.9      0.894      1.566
REMARK  Name = 
REMARK  8 active torsions:
REMARK  status: ('A' for Active; 'I' for Inactive)
REMARK    1  A    between atoms: C_1  and  O_2
REMARK    2  A    between atoms: O_2  and  C_3
REMARK    3  A    between atoms: C_7  and  C_8
REMARK    4  A    between atoms: C_8  and  C_9
REMARK    5  A    between atoms: C_9  and  C_10
REMARK    6  A    between atoms: N_15  and  C_16
REMARK    7  A    between atoms: C_21  and  O_22
REMARK    8  A    between atoms: O_22  and  C_23
REMARK                            x       y       z     vdW  Elec       q    Type
REMARK                         _______ _______ _______ _____ _____    ______ ____
ROOT
ATOM      1  C   UNL     1       2.870   4.383  19.033  0.00  0.00    +0.000 A 
ATOM      2  N   UNL     1       2.204   3.997  20.086  0.00  0.00    +0.000 NA
ATOM      3  N   UNL     1       2.955   2.985  20.607  0.00  0.00    +0.000 N 
ATOM      4  C   UNL     1       4.114   2.800  19.860  0.00  0.00    +0.000 A 
ATOM      5  O   UNL     1       5.042   2.074  20.163  0.00  0.00    +0.000 OA
ATOM      6  N   UNL     1       3.980   3.648  18.782  0.00  0.00    +0.000 N 
ATOM      7  H   UNL     1       2.758   2.572  21.510  0.00  0.00    +0.000 HD
ENDROOT
BRANCH   6   8
ATOM      8  C   UNL     1       5.023   3.952  17.899  0.00  0.00    +0.000 A 
ATOM      9  C   UNL     1       4.860   3.594  16.549  0.00  0.00    +0.000 A 
ATOM     10  C   UNL     1       5.843   3.903  15.605  0.00  0.00    +0.000 A 
ATOM     11  C   UNL     1       6.993   4.571  16.005  0.00  0.00    +0.000 A 
ATOM     12  C   UNL     1       7.151   4.943  17.342  0.00  0.00    +0.000 A 
ATOM     13  C   UNL     1       6.179   4.638  18.302  0.00  0.00    +0.000 A 
BRANCH  13  14
ATOM     14  O   UNL     1       6.503   5.127  19.539  0.00  0.00    +0.000 OA
ATOM     15  C   UNL     1       7.785   5.697  19.746  0.00  0.00    +0.000 C 
ENDBRANCH  13  14
ENDBRANCH   6   8
BRANCH   1  16
ATOM     16  C   UNL     1       2.393   5.488  18.120  0.00  0.00    +0.000 C 
BRANCH  16  17
ATOM     17  C   UNL     1       3.125   6.817  18.320  0.00  0.00    +0.000 C 
BRANCH  17  22
ATOM     18  C   UNL     1       0.851   9.162  20.312  0.00  0.00    +0.000 A 
ATOM     19  C   UNL     1       0.673  10.195  19.390  0.00  0.00    +0.000 A 
ATOM     20  C   UNL     1       1.266  10.131  18.130  0.00  0.00    +0.000 A 
ATOM     21  C   UNL     1       2.046   9.030  17.783  0.00  0.00    +0.000 A 
ATOM     22  C   UNL     1       2.247   7.988  18.698  0.00  0.00    +0.000 A 
ATOM     23  C   UNL     1       1.635   8.059  19.961  0.00  0.00    +0.000 A 
BRANCH  18  25
ATOM     24  C   UNL     1       0.999   9.280  22.683  0.00  0.00    +0.000 C 
ATOM     25  O   UNL     1       0.207   9.348  21.504  0.00  0.00    +0.000 OA
ENDBRANCH  18  25
ENDBRANCH  17  22
ENDBRANCH  16  17
ENDBRANCH   1  16
TORSDOF 6
ENDMDL
MODEL 3
REMARK VINA RESULT:      -7.9      3.596      7.610
REMARK  Name = 
REMARK  8 active torsions:
REMARK  status: ('A' for Active; 'I' for Inactive)
REMARK    1  A    between atoms: C_1  and  O_2
REMARK    2  A    between atoms: O_2  and  C_3
REMARK    3  A    between atoms: C_7  and  C_8
REMARK    4  A    between atoms: C_8  and  C_9
REMARK    5  A    between atoms: C_9  and  C_10
REMARK    6  A    between atoms: N_15  and  C_16
REMARK    7  A    between atoms: C_21  and  O_22
REMARK    8  A    between atoms: O_22  and  C_23
REMARK                            x       y       z     vdW  Elec       q    Type
REMARK                         _______ _______ _______ _____ _____    ______ ____
ROOT
ATOM      1  C   UNL     1       6.452   4.744  16.321  0.00  0.00    +0.000 A 
ATOM      2  N   UNL     1       7.721   4.477  16.450  0.00  0.00    +0.000 NA
ATOM      3  N   UNL     1       7.956   4.589  17.789  0.00  0.00    +0.000 N 
ATOM      4  C   UNL     1       6.780   4.891  18.467  0.00  0.00    +0.000 A 
ATOM      5  O   UNL     1       6.645   4.908  19.677  0.00  0.00    +0.000 OA
ATOM      6  N   UNL     1       5.841   5.093  17.479  0.00  0.00    +0.000 N 
ATOM      7  H   UNL     1       8.831   4.308  18.213  0.00  0.00    +0.000 HD
ENDROOT
BRANCH   6   8
ATOM      8  C   UNL     1       4.466   5.191  17.722  0.00  0.00    +0.000 A 
ATOM      9  C   UNL     1       3.914   6.481  17.835  0.00  0.00    +0.000 A 
ATOM     10  C   UNL     1       2.543   6.654  18.038  0.00  0.00    +0.000 A 
ATOM     11  C   UNL     1       1.716   5.542  18.128  0.00  0.00    +0.000 A 
ATOM     12  C   UNL     1       2.257   4.261  17.999  0.00  0.00    +0.000 A 
ATOM     13  C   UNL     1       3.629   4.067  17.800  0.00  0.00    +0.000 A 
BRANCH  13  14
ATOM     14  O   UNL     1       3.949   2.744  17.656  0.00  0.00    +0.000 OA
ATOM     15  C   UNL     1       3.218   1.770  18.382  0.00  0.00    +0.000 C 
ENDBRANCH  13  14
ENDBRANCH   6   8
BRANCH   1  16
ATOM     16  C   UNL     1       5.748   4.758  14.984  0.00  0.00    +0.000 C 
BRANCH  16  17
ATOM     17  C   UNL     1       6.674   4.504  13.793  0.00  0.00    +0.000 C 
BRANCH  17  22
ATOM     18  C   UNL     1       4.335   2.968  11.185  0.00  0.00    +0.000 A 
ATOM     19  C   UNL     1       5.132   1.928  10.702  0.00  0.00    +0.000 A 
ATOM     20  C   UNL     1       6.407   1.712  11.223  0.00  0.00    +0.000 A 
ATOM     21  C   UNL     1       6.896   2.539  12.232  0.00  0.00    +0.000 A 
ATOM     22  C   UNL     1       6.117   3.595  12.722  0.00  0.00    +0.000 A 
ATOM     23  C   UNL     1       4.829   3.796  12.197  0.00  0.00    +0.000 A 
BRANCH  18  25
ATOM     24  C   UNL     1       2.901   4.144   9.695  0.00  0.00    +0.000 C 
ATOM     25  O   UNL     1       3.105   3.061  10.594  0.00  0.00    +0.000 OA
ENDBRANCH  18  25
ENDBRANCH  17  22
ENDBRANCH  16  17
ENDBRANCH   1  16
TORSDOF 6
ENDMDL
MODEL 4
REMARK VINA RESULT:      -7.8      3.598      7.919
REMARK  Name = 
REMARK  8 active torsions:
REMARK  status: ('A' for Active; 'I' for Inactive)
REMARK    1  A    between atoms: C_1  and  O_2
REMARK    2  A    between atoms: O_2  and  C_3
REMARK    3  A    between atoms: C_7  and  C_8
REMARK    4  A    between atoms: C_8  and  C_9
REMARK    5  A    between atoms: C_9  and  C_10
REMARK    6  A    between atoms: N_15  and  C_16
REMARK    7  A    between atoms: C_21  and  O_22
REMARK    8  A    between atoms: O_22  and  C_23
REMARK                            x       y       z     vdW  Elec       q    Type
REMARK                         _______ _______ _______ _____ _____    ______ ____
ROOT
ATOM      1  C   UNL     1       6.140   5.155  16.366  0.00  0.00    +0.000 A 
ATOM      2  N   UNL     1       7.381   5.495  16.578  0.00  0.00    +0.000 NA
ATOM      3  N   UNL     1       7.503   5.501  17.936  0.00  0.00    +0.000 N 
ATOM      4  C   UNL     1       6.309   5.114  18.536  0.00  0.00    +0.000 A 
ATOM      5  O   UNL     1       6.154   4.884  19.721  0.00  0.00    +0.000 OA
ATOM      6  N   UNL     1       5.410   5.000  17.497  0.00  0.00    +0.000 N 
ATOM      7  H   UNL     1       8.396   5.601  18.401  0.00  0.00    +0.000 HD
ENDROOT
BRANCH   6   8
ATOM      8  C   UNL     1       4.148   4.407  17.623  0.00  0.00    +0.000 A 
ATOM      9  C   UNL     1       4.086   3.001  17.627  0.00  0.00    +0.000 A 
ATOM     10  C   UNL     1       2.865   2.342  17.789  0.00  0.00    +0.000 A 
ATOM     11  C   UNL     1       1.701   3.082  17.949  0.00  0.00    +0.000 A 
ATOM     12  C   UNL     1       1.761   4.477  17.963  0.00  0.00    +0.000 A 
ATOM     13  C   UNL     1       2.974   5.155  17.797  0.00  0.00    +0.000 A 
BRANCH  13  14
ATOM     14  O   UNL     1       2.824   6.513  17.886  0.00  0.00    +0.000 OA
ATOM     15  C   UNL     1       2.624   7.108  19.157  0.00  0.00    +0.000 C 
ENDBRANCH  13  14
ENDBRANCH   6   8
BRANCH   1  16
ATOM     16  C   UNL     1       5.545   5.039  14.982  0.00  0.00    +0.000 C 
BRANCH  16  17
ATOM     17  C   UNL     1       6.520   4.504  13.931  0.00  0.00    +0.000 C 
BRANCH  17  22
ATOM     18  C   UNL     1       5.954   1.728  11.360  0.00  0.00    +0.000 A 
ATOM     19  C   UNL     1       4.697   2.084  10.867  0.00  0.00    +0.000 A 
ATOM     20  C   UNL     1       4.043   3.218  11.347  0.00  0.00    +0.000 A 
ATOM     21  C   UNL     1       4.642   4.005  12.327  0.00  0.00    +0.000 A 
ATOM     22  C   UNL     1       5.898   3.659  12.843  0.00  0.00    +0.000 A 
ATOM     23  C   UNL     1       6.552   2.520  12.344  0.00  0.00    +0.000 A 
BRANCH  18  25
ATOM     24  C   UNL     1       6.043  -0.649  11.313  0.00  0.00    +0.000 C 
ATOM     25  O   UNL     1       6.485   0.600  10.797  0.00  0.00    +0.000 OA
ENDBRANCH  18  25
ENDBRANCH  17  22
ENDBRANCH  16  17
ENDBRANCH   1  16
TORSDOF 6
ENDMDL
MODEL 5
REMARK VINA RESULT:      -7.8      3.471      7.949
REMARK  Name = 
REMARK  8 active torsions:
REMARK  status: ('A' for Active; 'I' for Inactive)
REMARK    1  A    between atoms: C_1  and  O_2
REMARK    2  A    between atoms: O_2  and  C_3
REMARK    3  A    between atoms: C_7  and  C_8
REMARK    4  A    between atoms: C_8  and  C_9
REMARK    5  A    between atoms: C_9  and  C_10
REMARK    6  A    between atoms: N_15  and  C_16
REMARK    7  A    between atoms: C_21  and  O_22
REMARK    8  A    between atoms: O_22  and  C_23
REMARK                            x       y       z     vdW  Elec       q    Type
REMARK                         _______ _______ _______ _____ _____    ______ ____
ROOT
ATOM      1  C   UNL     1       6.514   4.611  16.625  0.00  0.00    +0.000 A 
ATOM      2  N   UNL     1       7.742   4.183  16.726  0.00  0.00    +0.000 NA
ATOM      3  N   UNL     1       8.125   4.548  17.982  0.00  0.00    +0.000 N 
ATOM      4  C   UNL     1       7.078   5.174  18.651  0.00  0.00    +0.000 A 
ATOM      5  O   UNL     1       7.071   5.477  19.829  0.00  0.00    +0.000 OA
ATOM      6  N   UNL     1       6.079   5.298  17.709  0.00  0.00    +0.000 N 
ATOM      7  H   UNL     1       8.992   4.233  18.399  0.00  0.00    +0.000 HD
ENDROOT
BRANCH   6   8
ATOM      8  C   UNL     1       4.763   5.663  18.016  0.00  0.00    +0.000 A 
ATOM      9  C   UNL     1       4.333   6.944  17.625  0.00  0.00    +0.000 A 
ATOM     10  C   UNL     1       3.020   7.359  17.863  0.00  0.00    +0.000 A 
ATOM     11  C   UNL     1       2.131   6.498  18.493  0.00  0.00    +0.000 A 
ATOM     12  C   UNL     1       2.550   5.219  18.867  0.00  0.00    +0.000 A 
ATOM     13  C   UNL     1       3.862   4.787  18.641  0.00  0.00    +0.000 A 
BRANCH  13  14
ATOM     14  O   UNL     1       4.056   3.493  19.040  0.00  0.00    +0.000 OA
ATOM     15  C   UNL     1       2.967   2.762  19.579  0.00  0.00    +0.000 C 
ENDBRANCH  13  14
ENDBRANCH   6   8
BRANCH   1  16
ATOM     16  C   UNL     1       5.686   4.442  15.373  0.00  0.00    +0.000 C 
BRANCH  16  17
ATOM     17  C   UNL     1       6.507   4.436  14.082  0.00  0.00    +0.000 C 
BRANCH  17  22
ATOM     18  C   UNL     1       5.965   1.765  11.397  0.00  0.00    +0.000 A 
ATOM     19  C   UNL     1       4.748   2.185  10.856  0.00  0.00    +0.000 A 
ATOM     20  C   UNL     1       4.115   3.329  11.340  0.00  0.00    +0.000 A 
ATOM     21  C   UNL     1       4.694   4.061  12.373  0.00  0.00    +0.000 A 
ATOM     22  C   UNL     1       5.909   3.650  12.938  0.00  0.00    +0.000 A 
ATOM     23  C   UNL     1       6.543   2.502  12.434  0.00  0.00    +0.000 A 
BRANCH  18  25
ATOM     24  C   UNL     1       6.047  -0.612  11.352  0.00  0.00    +0.000 C 
ATOM     25  O   UNL     1       6.481   0.635  10.824  0.00  0.00    +0.000 OA
ENDBRANCH  18  25
ENDBRANCH  17  22
ENDBRANCH  16  17
ENDBRANCH   1  16
TORSDOF 6
ENDMDL
MODEL 6
REMARK VINA RESULT:      -7.8      1.770      2.642
REMARK  Name = 
REMARK  8 active torsions:
REMARK  status: ('A' for Active; 'I' for Inactive)
REMARK    1  A    between atoms: C_1  and  O_2
REMARK    2  A    between atoms: O_2  and  C_3
REMARK    3  A    between atoms: C_7  and  C_8
REMARK    4  A    between atoms: C_8  and  C_9
REMARK    5  A    between atoms: C_9  and  C_10
REMARK    6  A    between atoms: N_15  and  C_16
REMARK    7  A    between atoms: C_21  and  O_22
REMARK    8  A    between atoms: O_22  and  C_23
REMARK                            x       y       z     vdW  Elec       q    Type
REMARK                         _______ _______ _______ _____ _____    ______ ____
ROOT
ATOM      1  C   UNL     1       2.433   4.751  18.120  0.00  0.00    +0.000 A 
ATOM      2  N   UNL     1       1.346   4.041  18.238  0.00  0.00    +0.000 NA
ATOM      3  N   UNL     1       1.765   2.753  18.086  0.00  0.00    +0.000 N 
ATOM      4  C   UNL     1       3.144   2.704  17.914  0.00  0.00    +0.000 A 
ATOM      5  O   UNL     1       3.820   1.692  17.900  0.00  0.00    +0.000 OA
ATOM      6  N   UNL     1       3.539   4.022  17.831  0.00  0.00    +0.000 N 
ATOM      7  H   UNL     1       1.159   1.961  18.260  0.00  0.00    +0.000 HD
ENDROOT
BRANCH   6   8
ATOM      8  C   UNL     1       4.874   4.438  17.890  0.00  0.00    +0.000 A 
ATOM      9  C   UNL     1       5.365   4.880  19.132  0.00  0.00    +0.000 A 
ATOM     10  C   UNL     1       6.699   5.272  19.272  0.00  0.00    +0.000 A 
ATOM     11  C   UNL     1       7.548   5.225  18.174  0.00  0.00    +0.000 A 
ATOM     12  C   UNL     1       7.068   4.771  16.944  0.00  0.00    +0.000 A 
ATOM     13  C   UNL     1       5.734   4.379  16.783  0.00  0.00    +0.000 A 
BRANCH  13  14
ATOM     14  O   UNL     1       5.477   3.927  15.516  0.00  0.00    +0.000 OA
ATOM     15  C   UNL     1       6.440   4.135  14.497  0.00  0.00    +0.000 C 
ENDBRANCH  13  14
ENDBRANCH   6   8
BRANCH   1  16
ATOM     16  C   UNL     1       2.442   6.260  18.200  0.00  0.00    +0.000 C 
BRANCH  16  17
ATOM     17  C   UNL     1       2.366   6.805  19.627  0.00  0.00    +0.000 C 
BRANCH  17  22
ATOM     18  C   UNL     1       0.839   9.974  21.130  0.00  0.00    +0.000 A 
ATOM     19  C   UNL     1       0.698  10.762  19.986  0.00  0.00    +0.000 A 
ATOM     20  C   UNL     1       1.076  10.271  18.737  0.00  0.00    +0.000 A 
ATOM     21  C   UNL     1       1.602   8.986  18.624  0.00  0.00    +0.000 A 
ATOM     22  C   UNL     1       1.762   8.184  19.761  0.00  0.00    +0.000 A 
ATOM     23  C   UNL     1       1.368   8.686  21.014  0.00  0.00    +0.000 A 
BRANCH  18  25
ATOM     24  C   UNL     1      -0.540   9.872  23.067  0.00  0.00    +0.000 C 
ATOM     25  O   UNL     1       0.421  10.573  22.287  0.00  0.00    +0.000 OA
ENDBRANCH  18  25
ENDBRANCH  17  22
ENDBRANCH  16  17
ENDBRANCH   1  16
TORSDOF 6
ENDMDL
MODEL 7
REMARK VINA RESULT:      -7.7      0.829      1.321
REMARK  Name = 
REMARK  8 active torsions:
REMARK  status: ('A' for Active; 'I' for Inactive)
REMARK    1  A    between atoms: C_1  and  O_2
REMARK    2  A    between atoms: O_2  and  C_3
REMARK    3  A    between atoms: C_7  and  C_8
REMARK    4  A    between atoms: C_8  and  C_9
REMARK    5  A    between atoms: C_9  and  C_10
REMARK    6  A    between atoms: N_15  and  C_16
REMARK    7  A    between atoms: C_21  and  O_22
REMARK    8  A    between atoms: O_22  and  C_23
REMARK                            x       y       z     vdW  Elec       q    Type
REMARK                         _______ _______ _______ _____ _____    ______ ____
ROOT
ATOM      1  C   UNL     1       3.066   4.383  19.777  0.00  0.00    +0.000 A 
ATOM      2  N   UNL     1       2.532   3.871  20.851  0.00  0.00    +0.000 NA
ATOM      3  N   UNL     1       3.194   2.692  21.029  0.00  0.00    +0.000 N 
ATOM      4  C   UNL     1       4.172   2.529  20.053  0.00  0.00    +0.000 A 
ATOM      5  O   UNL     1       5.017   1.653  20.037  0.00  0.00    +0.000 OA
ATOM      6  N   UNL     1       3.995   3.590  19.191  0.00  0.00    +0.000 N 
ATOM      7  H   UNL     1       3.087   2.129  21.863  0.00  0.00    +0.000 HD
ENDROOT
BRANCH   6   8
ATOM      8  C   UNL     1       4.913   3.943  18.195  0.00  0.00    +0.000 A 
ATOM      9  C   UNL     1       4.589   3.618  16.865  0.00  0.00    +0.000 A 
ATOM     10  C   UNL     1       5.441   3.977  15.817  0.00  0.00    +0.000 A 
ATOM     11  C   UNL     1       6.618   4.661  16.091  0.00  0.00    +0.000 A 
ATOM     12  C   UNL     1       6.933   5.000  17.408  0.00  0.00    +0.000 A 
ATOM     13  C   UNL     1       6.095   4.646  18.472  0.00  0.00    +0.000 A 
BRANCH  13  14
ATOM     14  O   UNL     1       6.561   5.108  19.673  0.00  0.00    +0.000 OA
ATOM     15  C   UNL     1       7.863   5.665  19.744  0.00  0.00    +0.000 C 
ENDBRANCH  13  14
ENDBRANCH   6   8
BRANCH   1  16
ATOM     16  C   UNL     1       2.620   5.700  19.186  0.00  0.00    +0.000 C 
BRANCH  16  17
ATOM     17  C   UNL     1       2.125   6.710  20.225  0.00  0.00    +0.000 C 
BRANCH  17  22
ATOM     18  C   UNL     1       0.690  10.245  19.952  0.00  0.00    +0.000 A 
ATOM     19  C   UNL     1       1.080  10.583  18.654  0.00  0.00    +0.000 A 
ATOM     20  C   UNL     1       1.785   9.675  17.867  0.00  0.00    +0.000 A 
ATOM     21  C   UNL     1       2.108   8.418  18.374  0.00  0.00    +0.000 A 
ATOM     22  C   UNL     1       1.737   8.063  19.677  0.00  0.00    +0.000 A 
ATOM     23  C   UNL     1       1.017   8.984  20.458  0.00  0.00    +0.000 A 
BRANCH  18  25
ATOM     24  C   UNL     1      -0.983  11.934  19.863  0.00  0.00    +0.000 C 
ATOM     25  O   UNL     1      -0.003  11.224  20.610  0.00  0.00    +0.000 OA
ENDBRANCH  18  25
ENDBRANCH  17  22
ENDBRANCH  16  17
ENDBRANCH   1  16
TORSDOF 6
ENDMDL
MODEL 8
REMARK VINA RESULT:      -7.6      1.291      1.795
REMARK  Name = 
REMARK  8 active torsions:
REMARK  status: ('A' for Active; 'I' for Inactive)
REMARK    1  A    between atoms: C_1  and  O_2
REMARK    2  A    between atoms: O_2  and  C_3
REMARK    3  A    between atoms: C_7  and  C_8
REMARK    4  A    between atoms: C_8  and  C_9
REMARK    5  A    between atoms: C_9  and  C_10
REMARK    6  A    between atoms: N_15  and  C_16
REMARK    7  A    between atoms: C_21  and  O_22
REMARK    8  A    between atoms: O_22  and  C_23
REMARK                            x       y       z     vdW  Elec       q    Type
REMARK                         _______ _______ _______ _____ _____    ______ ____
ROOT
ATOM      1  C   UNL     1       3.231   5.186  18.932  0.00  0.00    +0.000 A 
ATOM      2  N   UNL     1       2.378   4.786  19.833  0.00  0.00    +0.000 NA
ATOM      3  N   UNL     1       2.455   3.425  19.792  0.00  0.00    +0.000 N 
ATOM      4  C   UNL     1       3.411   3.017  18.868  0.00  0.00    +0.000 A 
ATOM      5  O   UNL     1       3.806   1.876  18.715  0.00  0.00    +0.000 OA
ATOM      6  N   UNL     1       3.822   4.177  18.247  0.00  0.00    +0.000 N 
ATOM      7  H   UNL     1       2.000   2.834  20.476  0.00  0.00    +0.000 HD
ENDROOT
BRANCH   6   8
ATOM      8  C   UNL     1       4.942   4.255  17.411  0.00  0.00    +0.000 A 
ATOM      9  C   UNL     1       4.735   4.106  16.027  0.00  0.00    +0.000 A 
ATOM     10  C   UNL     1       5.802   4.213  15.131  0.00  0.00    +0.000 A 
ATOM     11  C   UNL     1       7.079   4.468  15.611  0.00  0.00    +0.000 A 
ATOM     12  C   UNL     1       7.286   4.634  16.982  0.00  0.00    +0.000 A 
ATOM     13  C   UNL     1       6.231   4.526  17.896  0.00  0.00    +0.000 A 
BRANCH  13  14
ATOM     14  O   UNL     1       6.634   4.764  19.182  0.00  0.00    +0.000 OA
ATOM     15  C   UNL     1       7.689   5.682  19.420  0.00  0.00    +0.000 C 
ENDBRANCH  13  14
ENDBRANCH   6   8
BRANCH   1  16
ATOM     16  C   UNL     1       3.467   6.644  18.614  0.00  0.00    +0.000 C 
BRANCH  16  17
ATOM     17  C   UNL     1       2.227   7.372  18.091  0.00  0.00    +0.000 C 
BRANCH  17  22
ATOM     18  C   UNL     1       1.078   9.261  21.213  0.00  0.00    +0.000 A 
ATOM     19  C   UNL     1       0.722  10.491  20.656  0.00  0.00    +0.000 A 
ATOM     20  C   UNL     1       0.836  10.706  19.283  0.00  0.00    +0.000 A 
ATOM     21  C   UNL     1       1.310   9.690  18.456  0.00  0.00    +0.000 A 
ATOM     22  C   UNL     1       1.683   8.453  18.996  0.00  0.00    +0.000 A 
ATOM     23  C   UNL     1       1.554   8.244  20.381  0.00  0.00    +0.000 A 
BRANCH  18  25
ATOM     24  C   UNL     1      -0.310   9.690  23.097  0.00  0.00    +0.000 C 
ATOM     25  O   UNL     1       0.909   9.182  22.568  0.00  0.00    +0.000 OA
ENDBRANCH  18  25
ENDBRANCH  17  22
ENDBRANCH  16  17
ENDBRANCH   1  16
TORSDOF 6
ENDMDL
MODEL 9
REMARK VINA RESULT:      -7.6      1.603      2.716
REMARK  Name = 
REMARK  8 active torsions:
REMARK  status: ('A' for Active; 'I' for Inactive)
REMARK    1  A    between atoms: C_1  and  O_2
REMARK    2  A    between atoms: O_2  and  C_3
REMARK    3  A    between atoms: C_7  and  C_8
REMARK    4  A    between atoms: C_8  and  C_9
REMARK    5  A    between atoms: C_9  and  C_10
REMARK    6  A    between atoms: N_15  and  C_16
REMARK    7  A    between atoms: C_21  and  O_22
REMARK    8  A    between atoms: O_22  and  C_23
REMARK                            x       y       z     vdW  Elec       q    Type
REMARK                         _______ _______ _______ _____ _____    ______ ____
ROOT
ATOM      1  C   UNL     1       2.233   4.029  20.791  0.00  0.00    +0.000 A 
ATOM      2  N   UNL     1       1.979   3.280  21.828  0.00  0.00    +0.000 NA
ATOM      3  N   UNL     1       2.953   2.325  21.803  0.00  0.00    +0.000 N 
ATOM      4  C   UNL     1       3.825   2.545  20.742  0.00  0.00    +0.000 A 
ATOM      5  O   UNL     1       4.869   1.949  20.549  0.00  0.00    +0.000 OA
ATOM      6  N   UNL     1       3.273   3.593  20.038  0.00  0.00    +0.000 N 
ATOM      7  H   UNL     1       3.095   1.674  22.564  0.00  0.00    +0.000 HD
ENDROOT
BRANCH   6   8
ATOM      8  C   UNL     1       3.945   4.291  19.028  0.00  0.00    +0.000 A 
ATOM      9  C   UNL     1       5.043   5.086  19.404  0.00  0.00    +0.000 A 
ATOM     10  C   UNL     1       5.785   5.777  18.443  0.00  0.00    +0.000 A 
ATOM     11  C   UNL     1       5.434   5.680  17.103  0.00  0.00    +0.000 A 
ATOM     12  C   UNL     1       4.355   4.878  16.724  0.00  0.00    +0.000 A 
ATOM     13  C   UNL     1       3.598   4.181  17.673  0.00  0.00    +0.000 A 
BRANCH  13  14
ATOM     14  O   UNL     1       2.617   3.422  17.094  0.00  0.00    +0.000 OA
ATOM     15  C   UNL     1       2.508   2.050  17.435  0.00  0.00    +0.000 C 
ENDBRANCH  13  14
ENDBRANCH   6   8
BRANCH   1  16
ATOM     16  C   UNL     1       1.384   5.218  20.408  0.00  0.00    +0.000 C 
BRANCH  16  17
ATOM     17  C   UNL     1       1.940   6.558  20.894  0.00  0.00    +0.000 C 
BRANCH  17  22
ATOM     18  C   UNL     1       1.070   9.953  19.360  0.00  0.00    +0.000 A 
ATOM     19  C   UNL     1       1.652   9.824  18.097  0.00  0.00    +0.000 A 
ATOM     20  C   UNL     1       2.306   8.647  17.736  0.00  0.00    +0.000 A 
ATOM     21  C   UNL     1       2.384   7.589  18.638  0.00  0.00    +0.000 A 
ATOM     22  C   UNL     1       1.817   7.702  19.914  0.00  0.00    +0.000 A 
ATOM     23  C   UNL     1       1.151   8.890  20.263  0.00  0.00    +0.000 A 
BRANCH  18  25
ATOM     24  C   UNL     1       0.887  12.257  18.794  0.00  0.00    +0.000 C 
ATOM     25  O   UNL     1       0.453  11.155  19.580  0.00  0.00    +0.000 OA
ENDBRANCH  18  25
ENDBRANCH  17  22
ENDBRANCH  16  17
ENDBRANCH   1  16
TORSDOF 6
ENDMDL
