MODEL 1
REMARK VINA RESULT:      -7.3      0.000      0.000
REMARK  Name = 
REMARK  8 active torsions:
REMARK  status: ('A' for Active; 'I' for Inactive)
REMARK    1  A    between atoms: C_1  and  O_2
REMARK    2  A    between atoms: O_2  and  C_3
REMARK    3  A    between atoms: C_8  and  C_9
REMARK    4  A    between atoms: C_12  and  O_14
REMARK    5  A    between atoms: O_14  and  C_15
REMARK    6  A    between atoms: C_15  and  C_16
REMARK    7  A    between atoms: C_16  and  N_17
REMARK    8  A    between atoms: C_18  and  C_19
REMARK                            x       y       z     vdW  Elec       q    Type
REMARK                         _______ _______ _______ _____ _____    ______ ____
ROOT
ATOM      1  C   UNL     1       6.194   5.076  15.625  0.00  0.00    +0.000 C 
ATOM      2  O   UNL     1       5.585   6.132  15.795  0.00  0.00    +0.000 OA
ATOM      3  N   UNL     1       6.692   4.307  16.654  0.00  0.00    +0.000 N 
ATOM      4  C   UNL     1       6.984   4.854  17.881  0.00  0.00    +0.000 C 
ATOM      5  O   UNL     1       7.967   4.527  18.534  0.00  0.00    +0.000 OA
ATOM      6  H   UNL     1       7.309   3.549  16.391  0.00  0.00    +0.000 HD
ENDROOT
BRANCH   1  12
ATOM      7  C   UNL     1       7.380   4.902  13.333  0.00  0.00    +0.000 A 
ATOM      8  C   UNL     1       7.398   4.286  12.069  0.00  0.00    +0.000 A 
ATOM      9  C   UNL     1       6.364   3.442  11.660  0.00  0.00    +0.000 A 
ATOM     10  C   UNL     1       5.295   3.191  12.511  0.00  0.00    +0.000 A 
ATOM     11  C   UNL     1       5.285   3.756  13.774  0.00  0.00    +0.000 A 
ATOM     12  C   UNL     1       6.328   4.598  14.215  0.00  0.00    +0.000 A 
BRANCH   7  14
ATOM     13  C   UNL     1       9.276   6.181  12.721  0.00  0.00    +0.000 C 
ATOM     14  O   UNL     1       8.372   5.759  13.747  0.00  0.00    +0.000 OA
ENDBRANCH   7  14
ENDBRANCH   1  12
BRANCH   4  15
ATOM     15  O   UNL     1       6.118   5.833  18.247  0.00  0.00    +0.000 OA
BRANCH  15  16
ATOM     16  C   UNL     1       5.165   5.491  19.261  0.00  0.00    +0.000 C 
BRANCH  16  17
ATOM     17  C   UNL     1       3.780   5.473  18.612  0.00  0.00    +0.000 C 
BRANCH  17  18
ATOM     18  N   UNL     1       2.838   4.619  19.304  0.00  0.00    +0.000 N 
ATOM     19  C   UNL     1       1.923   5.046  20.255  0.00  0.00    +0.000 A 
ATOM     20  C   UNL     1       1.726   6.446  20.715  0.00  0.00    +0.000 C 
ATOM     21  C   UNL     1       1.266   3.900  20.655  0.00  0.00    +0.000 A 
ATOM     22  N   UNL     1       1.739   2.801  19.995  0.00  0.00    +0.000 NA
ATOM     23  C   UNL     1       2.681   3.256  19.192  0.00  0.00    +0.000 A 
ATOM     24  N   UNL     1       3.420   2.385  18.305  0.00  0.00    +0.000 N 
ATOM     25  O   UNL     1       4.193   2.905  17.489  0.00  0.00    +0.000 OA
ATOM     26  O   UNL     1       3.221   1.168  18.412  0.00  0.00    +0.000 OA
ENDBRANCH  17  18
ENDBRANCH  16  17
ENDBRANCH  15  16
ENDBRANCH   4  15
TORSDOF 6
ENDMDL
MODEL 2
REMARK VINA RESULT:      -7.2      2.289      4.069
REMARK  Name = 
REMARK  8 active torsions:
REMARK  status: ('A' for Active; 'I' for Inactive)
REMARK    1  A    between atoms: C_1  and  O_2
REMARK    2  A    between atoms: O_2  and  C_3
REMARK    3  A    between atoms: C_8  and  C_9
REMARK    4  A    between atoms: C_12  and  O_14
REMARK    5  A    between atoms: O_14  and  C_15
REMARK    6  A    between atoms: C_15  and  C_16
REMARK    7  A    between atoms: C_16  and  N_17
REMARK    8  A    between atoms: C_18  and  C_19
REMARK                            x       y       z     vdW  Elec       q    Type
REMARK                         _______ _______ _______ _____ _____    ______ ____
ROOT
ATOM      1  C   UNL     1       5.050   3.985  18.564  0.00  0.00    +0.000 C 
ATOM      2  O   UNL     1       4.640   4.936  19.229  0.00  0.00    +0.000 OA
ATOM      3  N   UNL     1       4.838   2.667  18.903  0.00  0.00    +0.000 N 
ATOM      4  C   UNL     1       4.595   2.292  20.203  0.00  0.00    +0.000 C 
ATOM      5  O   UNL     1       5.061   1.272  20.696  0.00  0.00    +0.000 OA
ATOM      6  H   UNL     1       5.352   1.976  18.372  0.00  0.00    +0.000 HD
ENDROOT
BRANCH   1  12
ATOM      7  C   UNL     1       7.109   4.678  17.161  0.00  0.00    +0.000 A 
ATOM      8  C   UNL     1       7.639   4.858  15.871  0.00  0.00    +0.000 A 
ATOM      9  C   UNL     1       6.834   4.748  14.735  0.00  0.00    +0.000 A 
ATOM     10  C   UNL     1       5.485   4.446  14.868  0.00  0.00    +0.000 A 
ATOM     11  C   UNL     1       4.959   4.224  16.128  0.00  0.00    +0.000 A 
ATOM     12  C   UNL     1       5.758   4.313  17.289  0.00  0.00    +0.000 A 
BRANCH   7  14
ATOM     13  C   UNL     1       7.939   6.134  18.834  0.00  0.00    +0.000 C 
ATOM     14  O   UNL     1       7.875   4.809  18.295  0.00  0.00    +0.000 OA
ENDBRANCH   7  14
ENDBRANCH   1  12
BRANCH   4  15
ATOM     15  O   UNL     1       3.857   3.201  20.890  0.00  0.00    +0.000 OA
BRANCH  15  16
ATOM     16  C   UNL     1       2.629   2.725  21.454  0.00  0.00    +0.000 C 
BRANCH  16  17
ATOM     17  C   UNL     1       1.538   3.747  21.123  0.00  0.00    +0.000 C 
BRANCH  17  18
ATOM     18  N   UNL     1       1.542   4.154  19.734  0.00  0.00    +0.000 N 
ATOM     19  C   UNL     1       1.354   3.306  18.653  0.00  0.00    +0.000 A 
ATOM     20  C   UNL     1       1.092   1.845  18.721  0.00  0.00    +0.000 C 
ATOM     21  C   UNL     1       1.466   4.118  17.543  0.00  0.00    +0.000 A 
ATOM     22  N   UNL     1       1.715   5.413  17.897  0.00  0.00    +0.000 NA
ATOM     23  C   UNL     1       1.757   5.411  19.216  0.00  0.00    +0.000 A 
ATOM     24  N   UNL     1       1.988   6.618  19.978  0.00  0.00    +0.000 N 
ATOM     25  O   UNL     1       1.882   6.557  21.210  0.00  0.00    +0.000 OA
ATOM     26  O   UNL     1       2.267   7.643  19.344  0.00  0.00    +0.000 OA
ENDBRANCH  17  18
ENDBRANCH  16  17
ENDBRANCH  15  16
ENDBRANCH   4  15
TORSDOF 6
ENDMDL
MODEL 3
REMARK VINA RESULT:      -7.1      4.180      8.400
REMARK  Name = 
REMARK  8 active torsions:
REMARK  status: ('A' for Active; 'I' for Inactive)
REMARK    1  A    between atoms: C_1  and  O_2
REMARK    2  A    between atoms: O_2  and  C_3
REMARK    3  A    between atoms: C_8  and  C_9
REMARK    4  A    between atoms: C_12  and  O_14
REMARK    5  A    between atoms: O_14  and  C_15
REMARK    6  A    between atoms: C_15  and  C_16
REMARK    7  A    between atoms: C_16  and  N_17
REMARK    8  A    between atoms: C_18  and  C_19
REMARK                            x       y       z     vdW  Elec       q    Type
REMARK                         _______ _______ _______ _____ _____    ______ ____
ROOT
ATOM      1  C   UNL     1       1.046   8.933  20.370  0.00  0.00    +0.000 C 
ATOM      2  O   UNL     1       1.581   8.018  20.996  0.00  0.00    +0.000 OA
ATOM      3  N   UNL     1       1.035   9.014  18.995  0.00  0.00    +0.000 N 
ATOM      4  C   UNL     1       1.993   8.389  18.233  0.00  0.00    +0.000 C 
ATOM      5  O   UNL     1       2.481   8.900  17.232  0.00  0.00    +0.000 OA
ATOM      6  H   UNL     1       0.706   9.885  18.598  0.00  0.00    +0.000 HD
ENDROOT
BRANCH   1  12
ATOM      7  C   UNL     1       0.065  11.289  20.788  0.00  0.00    +0.000 A 
ATOM      8  C   UNL     1      -0.720  12.097  21.630  0.00  0.00    +0.000 A 
ATOM      9  C   UNL     1      -1.186  11.624  22.859  0.00  0.00    +0.000 A 
ATOM     10  C   UNL     1      -0.883  10.331  23.265  0.00  0.00    +0.000 A 
ATOM     11  C   UNL     1      -0.147   9.511  22.429  0.00  0.00    +0.000 A 
ATOM     12  C   UNL     1       0.320   9.962  21.175  0.00  0.00    +0.000 A 
BRANCH   7  14
ATOM     13  C   UNL     1      -0.406  12.357  18.728  0.00  0.00    +0.000 C 
ATOM     14  O   UNL     1       0.559  11.741  19.588  0.00  0.00    +0.000 OA
ENDBRANCH   7  14
ENDBRANCH   1  12
BRANCH   4  15
ATOM     15  O   UNL     1       2.388   7.196  18.747  0.00  0.00    +0.000 OA
BRANCH  15  16
ATOM     16  C   UNL     1       3.578   6.627  18.187  0.00  0.00    +0.000 C 
BRANCH  16  17
ATOM     17  C   UNL     1       4.050   5.518  19.130  0.00  0.00    +0.000 C 
BRANCH  17  18
ATOM     18  N   UNL     1       3.540   4.211  18.774  0.00  0.00    +0.000 N 
ATOM     19  C   UNL     1       3.946   3.467  17.676  0.00  0.00    +0.000 A 
ATOM     20  C   UNL     1       4.985   3.858  16.689  0.00  0.00    +0.000 C 
ATOM     21  C   UNL     1       3.178   2.321  17.722  0.00  0.00    +0.000 A 
ATOM     22  N   UNL     1       2.328   2.335  18.790  0.00  0.00    +0.000 NA
ATOM     23  C   UNL     1       2.561   3.478  19.406  0.00  0.00    +0.000 A 
ATOM     24  N   UNL     1       1.856   3.858  20.609  0.00  0.00    +0.000 N 
ATOM     25  O   UNL     1       2.224   4.883  21.200  0.00  0.00    +0.000 OA
ATOM     26  O   UNL     1       0.931   3.125  20.980  0.00  0.00    +0.000 OA
ENDBRANCH  17  18
ENDBRANCH  16  17
ENDBRANCH  15  16
ENDBRANCH   4  15
TORSDOF 6
ENDMDL
MODEL 4
REMARK VINA RESULT:      -7.0      3.310      7.324
REMARK  Name = 
REMARK  8 active torsions:
REMARK  status: ('A' for Active; 'I' for Inactive)
REMARK    1  A    between atoms: C_1  and  O_2
REMARK    2  A    between atoms: O_2  and  C_3
REMARK    3  A    between atoms: C_8  and  C_9
REMARK    4  A    between atoms: C_12  and  O_14
REMARK    5  A    between atoms: O_14  and  C_15
REMARK    6  A    between atoms: C_15  and  C_16
REMARK    7  A    between atoms: C_16  and  N_17
REMARK    8  A    between atoms: C_18  and  C_19
REMARK                            x       y       z     vdW  Elec       q    Type
REMARK                         _______ _______ _______ _____ _____    ______ ____
ROOT
ATOM      1  C   UNL     1       2.222   6.870  20.000  0.00  0.00    +0.000 C 
ATOM      2  O   UNL     1       3.385   6.648  19.665  0.00  0.00    +0.000 OA
ATOM      3  N   UNL     1       1.445   5.978  20.705  0.00  0.00    +0.000 N 
ATOM      4  C   UNL     1       1.702   4.628  20.678  0.00  0.00    +0.000 C 
ATOM      5  O   UNL     1       0.813   3.786  20.637  0.00  0.00    +0.000 OA
ATOM      6  H   UNL     1       0.462   6.202  20.786  0.00  0.00    +0.000 HD
ENDROOT
BRANCH   1  12
ATOM      7  C   UNL     1       0.971   9.071  20.533  0.00  0.00    +0.000 A 
ATOM      8  C   UNL     1       0.610  10.351  20.076  0.00  0.00    +0.000 A 
ATOM      9  C   UNL     1       0.877  10.755  18.766  0.00  0.00    +0.000 A 
ATOM     10  C   UNL     1       1.518   9.889  17.890  0.00  0.00    +0.000 A 
ATOM     11  C   UNL     1       1.916   8.642  18.337  0.00  0.00    +0.000 A 
ATOM     12  C   UNL     1       1.673   8.219  19.662  0.00  0.00    +0.000 A 
BRANCH   7  14
ATOM     13  C   UNL     1      -0.380   9.326  22.460  0.00  0.00    +0.000 C 
ATOM     14  O   UNL     1       0.694   8.640  21.808  0.00  0.00    +0.000 OA
ENDBRANCH   7  14
ENDBRANCH   1  12
BRANCH   4  15
ATOM     15  O   UNL     1       3.027   4.338  20.625  0.00  0.00    +0.000 OA
BRANCH  15  16
ATOM     16  C   UNL     1       3.374   2.948  20.652  0.00  0.00    +0.000 C 
BRANCH  16  17
ATOM     17  C   UNL     1       4.603   2.758  19.761  0.00  0.00    +0.000 C 
BRANCH  17  18
ATOM     18  N   UNL     1       4.507   3.465  18.501  0.00  0.00    +0.000 N 
ATOM     19  C   UNL     1       3.590   3.187  17.498  0.00  0.00    +0.000 A 
ATOM     20  C   UNL     1       2.534   2.143  17.541  0.00  0.00    +0.000 C 
ATOM     21  C   UNL     1       3.887   4.081  16.490  0.00  0.00    +0.000 A 
ATOM     22  N   UNL     1       4.938   4.884  16.831  0.00  0.00    +0.000 NA
ATOM     23  C   UNL     1       5.294   4.496  18.040  0.00  0.00    +0.000 A 
ATOM     24  N   UNL     1       6.379   5.125  18.759  0.00  0.00    +0.000 N 
ATOM     25  O   UNL     1       6.566   4.793  19.938  0.00  0.00    +0.000 OA
ATOM     26  O   UNL     1       7.049   5.968  18.150  0.00  0.00    +0.000 OA
ENDBRANCH  17  18
ENDBRANCH  16  17
ENDBRANCH  15  16
ENDBRANCH   4  15
TORSDOF 6
ENDMDL
MODEL 5
REMARK VINA RESULT:      -6.9      3.225      7.576
REMARK  Name = 
REMARK  8 active torsions:
REMARK  status: ('A' for Active; 'I' for Inactive)
REMARK    1  A    between atoms: C_1  and  O_2
REMARK    2  A    between atoms: O_2  and  C_3
REMARK    3  A    between atoms: C_8  and  C_9
REMARK    4  A    between atoms: C_12  and  O_14
REMARK    5  A    between atoms: O_14  and  C_15
REMARK    6  A    between atoms: C_15  and  C_16
REMARK    7  A    between atoms: C_16  and  N_17
REMARK    8  A    between atoms: C_18  and  C_19
REMARK                            x       y       z     vdW  Elec       q    Type
REMARK                         _______ _______ _______ _____ _____    ______ ____
ROOT
ATOM      1  C   UNL     1       2.209   7.232  19.786  0.00  0.00    +0.000 C 
ATOM      2  O   UNL     1       3.162   7.055  19.028  0.00  0.00    +0.000 OA
ATOM      3  N   UNL     1       1.856   6.357  20.789  0.00  0.00    +0.000 N 
ATOM      4  C   UNL     1       2.203   5.028  20.735  0.00  0.00    +0.000 C 
ATOM      5  O   UNL     1       1.449   4.132  21.097  0.00  0.00    +0.000 OA
ATOM      6  H   UNL     1       0.968   6.525  21.243  0.00  0.00    +0.000 HD
ENDROOT
BRANCH   1  12
ATOM      7  C   UNL     1       0.813   9.233  20.647  0.00  0.00    +0.000 A 
ATOM      8  C   UNL     1       0.228  10.472  20.331  0.00  0.00    +0.000 A 
ATOM      9  C   UNL     1       0.213  10.954  19.021  0.00  0.00    +0.000 A 
ATOM     10  C   UNL     1       0.793  10.210  18.001  0.00  0.00    +0.000 A 
ATOM     11  C   UNL     1       1.409   9.009  18.302  0.00  0.00    +0.000 A 
ATOM     12  C   UNL     1       1.451   8.511  19.623  0.00  0.00    +0.000 A 
BRANCH   7  14
ATOM     13  C   UNL     1      -0.091   9.360  22.831  0.00  0.00    +0.000 C 
ATOM     14  O   UNL     1       0.815   8.724  21.923  0.00  0.00    +0.000 OA
ENDBRANCH   7  14
ENDBRANCH   1  12
BRANCH   4  15
ATOM     15  O   UNL     1       3.420   4.817  20.174  0.00  0.00    +0.000 OA
BRANCH  15  16
ATOM     16  C   UNL     1       3.743   3.460  19.848  0.00  0.00    +0.000 C 
BRANCH  16  17
ATOM     17  C   UNL     1       5.118   3.456  19.177  0.00  0.00    +0.000 C 
BRANCH  17  18
ATOM     18  N   UNL     1       5.243   4.449  18.131  0.00  0.00    +0.000 N 
ATOM     19  C   UNL     1       4.450   4.517  16.995  0.00  0.00    +0.000 A 
ATOM     20  C   UNL     1       3.324   3.609  16.658  0.00  0.00    +0.000 C 
ATOM     21  C   UNL     1       4.944   5.590  16.282  0.00  0.00    +0.000 A 
ATOM     22  N   UNL     1       5.997   6.174  16.927  0.00  0.00    +0.000 NA
ATOM     23  C   UNL     1       6.159   5.473  18.033  0.00  0.00    +0.000 A 
ATOM     24  N   UNL     1       7.182   5.795  19.003  0.00  0.00    +0.000 N 
ATOM     25  O   UNL     1       7.185   5.173  20.074  0.00  0.00    +0.000 OA
ATOM     26  O   UNL     1       7.987   6.685  18.702  0.00  0.00    +0.000 OA
ENDBRANCH  17  18
ENDBRANCH  16  17
ENDBRANCH  15  16
ENDBRANCH   4  15
TORSDOF 6
ENDMDL
MODEL 6
REMARK VINA RESULT:      -6.9      3.375      7.447
REMARK  Name = 
REMARK  8 active torsions:
REMARK  status: ('A' for Active; 'I' for Inactive)
REMARK    1  A    between atoms: C_1  and  O_2
REMARK    2  A    between atoms: O_2  and  C_3
REMARK    3  A    between atoms: C_8  and  C_9
REMARK    4  A    between atoms: C_12  and  O_14
REMARK    5  A    between atoms: O_14  and  C_15
REMARK    6  A    between atoms: C_15  and  C_16
REMARK    7  A    between atoms: C_16  and  N_17
REMARK    8  A    between atoms: C_18  and  C_19
REMARK                            x       y       z     vdW  Elec       q    Type
REMARK                         _______ _______ _______ _____ _____    ______ ____
ROOT
ATOM      1  C   UNL     1       2.463   7.131  19.105  0.00  0.00    +0.000 C 
ATOM      2  O   UNL     1       3.028   6.875  18.042  0.00  0.00    +0.000 OA
ATOM      3  N   UNL     1       2.538   6.329  20.223  0.00  0.00    +0.000 N 
ATOM      4  C   UNL     1       2.822   4.988  20.125  0.00  0.00    +0.000 C 
ATOM      5  O   UNL     1       2.271   4.143  20.819  0.00  0.00    +0.000 OA
ATOM      6  H   UNL     1       1.909   6.556  20.983  0.00  0.00    +0.000 HD
ENDROOT
BRANCH   1  12
ATOM      7  C   UNL     1       1.197   9.021  20.335  0.00  0.00    +0.000 A 
ATOM      8  C   UNL     1       0.603  10.292  20.231  0.00  0.00    +0.000 A 
ATOM      9  C   UNL     1       0.463  10.927  18.995  0.00  0.00    +0.000 A 
ATOM     10  C   UNL     1       0.924  10.307  17.840  0.00  0.00    +0.000 A 
ATOM     11  C   UNL     1       1.547   9.076  17.932  0.00  0.00    +0.000 A 
ATOM     12  C   UNL     1       1.715   8.423  19.173  0.00  0.00    +0.000 A 
BRANCH   7  14
ATOM     13  C   UNL     1       1.023   9.153  22.693  0.00  0.00    +0.000 C 
ATOM     14  O   UNL     1       1.319   8.364  21.535  0.00  0.00    +0.000 OA
ENDBRANCH   7  14
ENDBRANCH   1  12
BRANCH   4  15
ATOM     15  O   UNL     1       3.708   4.702  19.138  0.00  0.00    +0.000 OA
BRANCH  15  16
ATOM     16  C   UNL     1       5.047   4.404  19.554  0.00  0.00    +0.000 C 
BRANCH  16  17
ATOM     17  C   UNL     1       5.911   4.290  18.296  0.00  0.00    +0.000 C 
BRANCH  17  18
ATOM     18  N   UNL     1       6.556   5.534  17.933  0.00  0.00    +0.000 N 
ATOM     19  C   UNL     1       7.565   6.150  18.658  0.00  0.00    +0.000 A 
ATOM     20  C   UNL     1       8.179   5.642  19.912  0.00  0.00    +0.000 C 
ATOM     21  C   UNL     1       7.847   7.306  17.959  0.00  0.00    +0.000 A 
ATOM     22  N   UNL     1       7.060   7.421  16.849  0.00  0.00    +0.000 NA
ATOM     23  C   UNL     1       6.292   6.348  16.855  0.00  0.00    +0.000 A 
ATOM     24  N   UNL     1       5.318   6.096  15.816  0.00  0.00    +0.000 N 
ATOM     25  O   UNL     1       4.732   5.004  15.821  0.00  0.00    +0.000 OA
ATOM     26  O   UNL     1       5.141   6.988  14.978  0.00  0.00    +0.000 OA
ENDBRANCH  17  18
ENDBRANCH  16  17
ENDBRANCH  15  16
ENDBRANCH   4  15
TORSDOF 6
ENDMDL
MODEL 7
REMARK VINA RESULT:      -6.8      5.418      7.698
REMARK  Name = 
REMARK  8 active torsions:
REMARK  status: ('A' for Active; 'I' for Inactive)
REMARK    1  A    between atoms: C_1  and  O_2
REMARK    2  A    between atoms: O_2  and  C_3
REMARK    3  A    between atoms: C_8  and  C_9
REMARK    4  A    between atoms: C_12  and  O_14
REMARK    5  A    between atoms: O_14  and  C_15
REMARK    6  A    between atoms: C_15  and  C_16
REMARK    7  A    between atoms: C_16  and  N_17
REMARK    8  A    between atoms: C_18  and  C_19
REMARK                            x       y       z     vdW  Elec       q    Type
REMARK                         _______ _______ _______ _____ _____    ______ ____
ROOT
ATOM      1  C   UNL     1       2.326   5.923  19.198  0.00  0.00    +0.000 C 
ATOM      2  O   UNL     1       1.719   6.121  20.250  0.00  0.00    +0.000 OA
ATOM      3  N   UNL     1       2.789   6.931  18.381  0.00  0.00    +0.000 N 
ATOM      4  C   UNL     1       2.221   8.182  18.396  0.00  0.00    +0.000 C 
ATOM      5  O   UNL     1       2.045   8.841  17.378  0.00  0.00    +0.000 OA
ATOM      6  H   UNL     1       3.131   6.652  17.470  0.00  0.00    +0.000 HD
ENDROOT
BRANCH   1  12
ATOM      7  C   UNL     1       3.890   3.932  18.671  0.00  0.00    +0.000 A 
ATOM      8  C   UNL     1       3.985   2.547  18.440  0.00  0.00    +0.000 A 
ATOM      9  C   UNL     1       2.842   1.753  18.320  0.00  0.00    +0.000 A 
ATOM     10  C   UNL     1       1.583   2.327  18.437  0.00  0.00    +0.000 A 
ATOM     11  C   UNL     1       1.475   3.680  18.706  0.00  0.00    +0.000 A 
ATOM     12  C   UNL     1       2.616   4.499  18.848  0.00  0.00    +0.000 A 
BRANCH   7  14
ATOM     13  C   UNL     1       5.874   4.700  17.632  0.00  0.00    +0.000 C 
ATOM     14  O   UNL     1       4.999   4.738  18.764  0.00  0.00    +0.000 OA
ENDBRANCH   7  14
ENDBRANCH   1  12
BRANCH   4  15
ATOM     15  O   UNL     1       1.816   8.569  19.632  0.00  0.00    +0.000 OA
BRANCH  15  16
ATOM     16  C   UNL     1       1.195   9.857  19.722  0.00  0.00    +0.000 C 
BRANCH  16  17
ATOM     17  C   UNL     1      -0.167   9.672  20.394  0.00  0.00    +0.000 C 
BRANCH  17  18
ATOM     18  N   UNL     1      -1.008  10.847  20.310  0.00  0.00    +0.000 N 
ATOM     19  C   UNL     1      -1.696  11.256  19.178  0.00  0.00    +0.000 A 
ATOM     20  C   UNL     1      -1.715  10.561  17.865  0.00  0.00    +0.000 C 
ATOM     21  C   UNL     1      -2.331  12.423  19.552  0.00  0.00    +0.000 A 
ATOM     22  N   UNL     1      -2.062  12.740  20.853  0.00  0.00    +0.000 NA
ATOM     23  C   UNL     1      -1.266  11.782  21.287  0.00  0.00    +0.000 A 
ATOM     24  N   UNL     1      -0.766  11.756  22.643  0.00  0.00    +0.000 N 
ATOM     25  O   UNL     1      -0.133  10.756  23.011  0.00  0.00    +0.000 OA
ATOM     26  O   UNL     1      -1.013  12.736  23.357  0.00  0.00    +0.000 OA
ENDBRANCH  17  18
ENDBRANCH  16  17
ENDBRANCH  15  16
ENDBRANCH   4  15
TORSDOF 6
ENDMDL
MODEL 8
REMARK VINA RESULT:      -6.8      4.129      8.205
REMARK  Name = 
REMARK  8 active torsions:
REMARK  status: ('A' for Active; 'I' for Inactive)
REMARK    1  A    between atoms: C_1  and  O_2
REMARK    2  A    between atoms: O_2  and  C_3
REMARK    3  A    between atoms: C_8  and  C_9
REMARK    4  A    between atoms: C_12  and  O_14
REMARK    5  A    between atoms: O_14  and  C_15
REMARK    6  A    between atoms: C_15  and  C_16
REMARK    7  A    between atoms: C_16  and  N_17
REMARK    8  A    between atoms: C_18  and  C_19
REMARK                            x       y       z     vdW  Elec       q    Type
REMARK                         _______ _______ _______ _____ _____    ______ ____
ROOT
ATOM      1  C   UNL     1       1.104   8.736  20.139  0.00  0.00    +0.000 C 
ATOM      2  O   UNL     1       1.665   7.779  20.672  0.00  0.00    +0.000 OA
ATOM      3  N   UNL     1       1.100   8.962  18.780  0.00  0.00    +0.000 N 
ATOM      4  C   UNL     1       2.083   8.451  17.967  0.00  0.00    +0.000 C 
ATOM      5  O   UNL     1       2.560   9.080  17.031  0.00  0.00    +0.000 OA
ATOM      6  H   UNL     1       0.745   9.858  18.473  0.00  0.00    +0.000 HD
ENDROOT
BRANCH   1  12
ATOM      7  C   UNL     1      -0.277  10.858  20.667  0.00  0.00    +0.000 A 
ATOM      8  C   UNL     1      -1.042  11.548  21.626  0.00  0.00    +0.000 A 
ATOM      9  C   UNL     1      -1.139  11.090  22.942  0.00  0.00    +0.000 A 
ATOM     10  C   UNL     1      -0.479   9.929  23.322  0.00  0.00    +0.000 A 
ATOM     11  C   UNL     1       0.242   9.217  22.381  0.00  0.00    +0.000 A 
ATOM     12  C   UNL     1       0.339   9.651  21.041  0.00  0.00    +0.000 A 
BRANCH   7  14
ATOM     13  C   UNL     1       0.452  12.598  19.237  0.00  0.00    +0.000 C 
ATOM     14  O   UNL     1      -0.144  11.304  19.374  0.00  0.00    +0.000 OA
ENDBRANCH   7  14
ENDBRANCH   1  12
BRANCH   4  15
ATOM     15  O   UNL     1       2.513   7.224  18.357  0.00  0.00    +0.000 OA
BRANCH  15  16
ATOM     16  C   UNL     1       3.823   6.841  17.918  0.00  0.00    +0.000 C 
BRANCH  16  17
ATOM     17  C   UNL     1       3.717   5.444  17.302  0.00  0.00    +0.000 C 
BRANCH  17  18
ATOM     18  N   UNL     1       3.769   4.383  18.286  0.00  0.00    +0.000 N 
ATOM     19  C   UNL     1       4.875   4.065  19.059  0.00  0.00    +0.000 A 
ATOM     20  C   UNL     1       6.188   4.761  19.039  0.00  0.00    +0.000 C 
ATOM     21  C   UNL     1       4.475   2.986  19.821  0.00  0.00    +0.000 A 
ATOM     22  N   UNL     1       3.184   2.634  19.546  0.00  0.00    +0.000 NA
ATOM     23  C   UNL     1       2.781   3.485  18.622  0.00  0.00    +0.000 A 
ATOM     24  N   UNL     1       1.444   3.446  18.075  0.00  0.00    +0.000 N 
ATOM     25  O   UNL     1       1.101   4.358  17.310  0.00  0.00    +0.000 OA
ATOM     26  O   UNL     1       0.719   2.503  18.416  0.00  0.00    +0.000 OA
ENDBRANCH  17  18
ENDBRANCH  16  17
ENDBRANCH  15  16
ENDBRANCH   4  15
TORSDOF 6
ENDMDL
MODEL 9
REMARK VINA RESULT:      -6.8      4.293      8.225
REMARK  Name = 
REMARK  8 active torsions:
REMARK  status: ('A' for Active; 'I' for Inactive)
REMARK    1  A    between atoms: C_1  and  O_2
REMARK    2  A    between atoms: O_2  and  C_3
REMARK    3  A    between atoms: C_8  and  C_9
REMARK    4  A    between atoms: C_12  and  O_14
REMARK    5  A    between atoms: O_14  and  C_15
REMARK    6  A    between atoms: C_15  and  C_16
REMARK    7  A    between atoms: C_16  and  N_17
REMARK    8  A    between atoms: C_18  and  C_19
REMARK                            x       y       z     vdW  Elec       q    Type
REMARK                         _______ _______ _______ _____ _____    ______ ____
ROOT
ATOM      1  C   UNL     1       1.044   9.027  20.268  0.00  0.00    +0.000 C 
ATOM      2  O   UNL     1       0.913   9.166  19.052  0.00  0.00    +0.000 OA
ATOM      3  N   UNL     1       1.770   8.010  20.847  0.00  0.00    +0.000 N 
ATOM      4  C   UNL     1       1.996   6.826  20.187  0.00  0.00    +0.000 C 
ATOM      5  O   UNL     1       1.969   5.739  20.751  0.00  0.00    +0.000 OA
ATOM      6  H   UNL     1       1.678   7.905  21.849  0.00  0.00    +0.000 HD
ENDROOT
BRANCH   1  12
ATOM      7  C   UNL     1       0.492  11.464  20.935  0.00  0.00    +0.000 A 
ATOM      8  C   UNL     1      -0.238  12.306  21.794  0.00  0.00    +0.000 A 
ATOM      9  C   UNL     1      -0.966  11.788  22.867  0.00  0.00    +0.000 A 
ATOM     10  C   UNL     1      -0.986  10.419  23.097  0.00  0.00    +0.000 A 
ATOM     11  C   UNL     1      -0.308   9.575  22.235  0.00  0.00    +0.000 A 
ATOM     12  C   UNL     1       0.421  10.075  21.134  0.00  0.00    +0.000 A 
BRANCH   7  14
ATOM     13  C   UNL     1       0.525  12.787  18.971  0.00  0.00    +0.000 C 
ATOM     14  O   UNL     1       1.239  11.952  19.889  0.00  0.00    +0.000 OA
ENDBRANCH   7  14
ENDBRANCH   1  12
BRANCH   4  15
ATOM     15  O   UNL     1       2.173   6.986  18.851  0.00  0.00    +0.000 OA
BRANCH  15  16
ATOM     16  C   UNL     1       3.514   6.837  18.367  0.00  0.00    +0.000 C 
BRANCH  16  17
ATOM     17  C   UNL     1       3.575   5.540  17.558  0.00  0.00    +0.000 C 
BRANCH  17  18
ATOM     18  N   UNL     1       3.733   4.361  18.383  0.00  0.00    +0.000 N 
ATOM     19  C   UNL     1       4.875   4.036  19.100  0.00  0.00    +0.000 A 
ATOM     20  C   UNL     1       6.123   4.840  19.172  0.00  0.00    +0.000 C 
ATOM     21  C   UNL     1       4.582   2.831  19.705  0.00  0.00    +0.000 A 
ATOM     22  N   UNL     1       3.322   2.409  19.389  0.00  0.00    +0.000 NA
ATOM     23  C   UNL     1       2.832   3.342  18.594  0.00  0.00    +0.000 A 
ATOM     24  N   UNL     1       1.494   3.263  18.052  0.00  0.00    +0.000 N 
ATOM     25  O   UNL     1       1.062   4.239  17.424  0.00  0.00    +0.000 OA
ATOM     26  O   UNL     1       0.859   2.222  18.261  0.00  0.00    +0.000 OA
ENDBRANCH  17  18
ENDBRANCH  16  17
ENDBRANCH  15  16
ENDBRANCH   4  15
TORSDOF 6
ENDMDL
