MODEL 1
REMARK VINA RESULT:      -7.2      0.000      0.000
REMARK  Name = 
REMARK  11 active torsions:
REMARK  status: ('A' for Active; 'I' for Inactive)
REMARK    1  A    between atoms: C_1  and  O_2
REMARK    2  A    between atoms: O_2  and  C_3
REMARK    3  A    between atoms: C_3  and  C_5
REMARK    4  A    between atoms: C_8  and  C_9
REMARK    5  A    between atoms: C_9  and  C_10
REMARK    6  A    between atoms: C_10  and  C_11
REMARK    7  A    between atoms: C_10  and  N_12
REMARK    8  A    between atoms: N_12  and  C_13
REMARK    9  A    between atoms: C_13  and  C_14
REMARK   10  A    between atoms: C_14  and  O_15
REMARK   11  A    between atoms: C_14  and  C_16
REMARK                            x       y       z     vdW  Elec       q    Type
REMARK                         _______ _______ _______ _____ _____    ______ ____
ROOT
ATOM      1  C   UNL     1       1.543   3.008  19.970  0.00  0.00    +0.000 C 
ATOM      2  C   UNL     1       1.901   3.224  21.445  0.00  0.00    +0.000 C 
ENDROOT
BRANCH   1   3
ATOM      3  N   UNL     1       1.314   4.332  19.356  0.00  0.00    +0.000 NA
ATOM      4  H   UNL     1       0.331   4.468  19.115  0.00  0.00    +0.000 HD
BRANCH   3   5
ATOM      5  C   UNL     1       1.774   5.434  20.214  0.00  0.00    +0.000 C 
BRANCH   5   6
ATOM      6  C   UNL     1       2.571   6.537  19.468  0.00  0.00    +0.000 C 
BRANCH   6   7
ATOM      7  C   UNL     1       1.881   7.885  19.652  0.00  0.00    +0.000 A 
ATOM      8  C   UNL     1       1.777   8.830  18.620  0.00  0.00    +0.000 A 
ATOM      9  C   UNL     1       1.066  10.020  18.808  0.00  0.00    +0.000 A 
ATOM     10  C   UNL     1       0.454  10.289  20.031  0.00  0.00    +0.000 A 
ATOM     11  C   UNL     1       0.571   9.374  21.072  0.00  0.00    +0.000 A 
ATOM     12  I   UNL     1      -0.347   9.754  22.898  0.00  0.00    +0.000 I 
ATOM     13  C   UNL     1       1.289   8.190  20.893  0.00  0.00    +0.000 A 
ENDBRANCH   6   7
BRANCH   6  14
ATOM     14  O   UNL     1       2.664   6.184  18.081  0.00  0.00    +0.000 OA
ATOM     15  H   UNL     1       1.765   6.234  17.716  0.00  0.00    +0.000 HD
ENDBRANCH   6  14
ENDBRANCH   5   6
ENDBRANCH   3   5
ENDBRANCH   1   3
BRANCH   1  16
ATOM     16  C   UNL     1       2.639   2.190  19.244  0.00  0.00    +0.000 C 
BRANCH  16  20
ATOM     17  C   UNL     1       5.887   4.401  17.453  0.00  0.00    +0.000 A 
ATOM     18  C   UNL     1       5.819   4.257  18.844  0.00  0.00    +0.000 A 
ATOM     19  C   UNL     1       4.762   3.560  19.428  0.00  0.00    +0.000 A 
ATOM     20  C   UNL     1       3.750   3.006  18.630  0.00  0.00    +0.000 A 
ATOM     21  C   UNL     1       3.818   3.152  17.241  0.00  0.00    +0.000 A 
ATOM     22  C   UNL     1       4.877   3.846  16.654  0.00  0.00    +0.000 A 
BRANCH  17  23
ATOM     23  C   UNL     1       7.046   5.123  16.872  0.00  0.00    +0.000 C 
ATOM     24  O   UNL     1       7.456   4.946  15.733  0.00  0.00    +0.000 OA
BRANCH  23  26
ATOM     25  C   UNL     1       7.440   7.365  17.401  0.00  0.00    +0.000 C 
ATOM     26  O   UNL     1       7.558   5.994  17.774  0.00  0.00    +0.000 OA
ENDBRANCH  23  26
ENDBRANCH  17  23
ENDBRANCH  16  20
ENDBRANCH   1  16
TORSDOF 9
ENDMDL
MODEL 2
REMARK VINA RESULT:      -7.0      3.108      6.593
REMARK  Name = 
REMARK  11 active torsions:
REMARK  status: ('A' for Active; 'I' for Inactive)
REMARK    1  A    between atoms: C_1  and  O_2
REMARK    2  A    between atoms: O_2  and  C_3
REMARK    3  A    between atoms: C_3  and  C_5
REMARK    4  A    between atoms: C_8  and  C_9
REMARK    5  A    between atoms: C_9  and  C_10
REMARK    6  A    between atoms: C_10  and  C_11
REMARK    7  A    between atoms: C_10  and  N_12
REMARK    8  A    between atoms: N_12  and  C_13
REMARK    9  A    between atoms: C_13  and  C_14
REMARK   10  A    between atoms: C_14  and  O_15
REMARK   11  A    between atoms: C_14  and  C_16
REMARK                            x       y       z     vdW  Elec       q    Type
REMARK                         _______ _______ _______ _____ _____    ______ ____
ROOT
ATOM      1  C   UNL     1       1.943   4.922  20.569  0.00  0.00    +0.000 C 
ATOM      2  C   UNL     1       0.939   4.169  19.688  0.00  0.00    +0.000 C 
ENDROOT
BRANCH   1   3
ATOM      3  N   UNL     1       2.756   3.924  21.293  0.00  0.00    +0.000 NA
ATOM      4  H   UNL     1       2.284   3.600  22.138  0.00  0.00    +0.000 HD
BRANCH   3   5
ATOM      5  C   UNL     1       3.115   2.775  20.449  0.00  0.00    +0.000 C 
BRANCH   5   6
ATOM      6  C   UNL     1       4.611   2.723  20.039  0.00  0.00    +0.000 C 
BRANCH   6   7
ATOM      7  C   UNL     1       4.820   3.510  18.750  0.00  0.00    +0.000 A 
ATOM      8  C   UNL     1       4.071   3.271  17.586  0.00  0.00    +0.000 A 
ATOM      9  C   UNL     1       4.240   4.069  16.450  0.00  0.00    +0.000 A 
ATOM     10  C   UNL     1       5.162   5.114  16.454  0.00  0.00    +0.000 A 
ATOM     11  C   UNL     1       5.930   5.347  17.590  0.00  0.00    +0.000 A 
ATOM     12  I   UNL     1       7.301   6.909  17.616  0.00  0.00    +0.000 I 
ATOM     13  C   UNL     1       5.774   4.545  18.723  0.00  0.00    +0.000 A 
ENDBRANCH   6   7
BRANCH   6  14
ATOM     14  O   UNL     1       5.000   1.351  19.882  0.00  0.00    +0.000 OA
ATOM     15  H   UNL     1       4.577   1.028  19.070  0.00  0.00    +0.000 HD
ENDBRANCH   6  14
ENDBRANCH   5   6
ENDBRANCH   3   5
ENDBRANCH   1   3
BRANCH   1  16
ATOM     16  C   UNL     1       2.800   5.899  19.728  0.00  0.00    +0.000 C 
BRANCH  16  20
ATOM     17  C   UNL     1       0.973   9.771  19.166  0.00  0.00    +0.000 A 
ATOM     18  C   UNL     1       1.641   9.150  18.104  0.00  0.00    +0.000 A 
ATOM     19  C   UNL     1       2.248   7.908  18.286  0.00  0.00    +0.000 A 
ATOM     20  C   UNL     1       2.207   7.274  19.536  0.00  0.00    +0.000 A 
ATOM     21  C   UNL     1       1.542   7.897  20.597  0.00  0.00    +0.000 A 
ATOM     22  C   UNL     1       0.930   9.138  20.416  0.00  0.00    +0.000 A 
BRANCH  17  23
ATOM     23  C   UNL     1       0.314  11.077  18.920  0.00  0.00    +0.000 C 
ATOM     24  O   UNL     1      -0.745  11.202  18.321  0.00  0.00    +0.000 OA
BRANCH  23  26
ATOM     25  C   UNL     1       1.795  12.839  18.509  0.00  0.00    +0.000 C 
ATOM     26  O   UNL     1       1.046  12.083  19.458  0.00  0.00    +0.000 OA
ENDBRANCH  23  26
ENDBRANCH  17  23
ENDBRANCH  16  20
ENDBRANCH   1  16
TORSDOF 9
ENDMDL
MODEL 3
REMARK VINA RESULT:      -7.0      2.938      6.136
REMARK  Name = 
REMARK  11 active torsions:
REMARK  status: ('A' for Active; 'I' for Inactive)
REMARK    1  A    between atoms: C_1  and  O_2
REMARK    2  A    between atoms: O_2  and  C_3
REMARK    3  A    between atoms: C_3  and  C_5
REMARK    4  A    between atoms: C_8  and  C_9
REMARK    5  A    between atoms: C_9  and  C_10
REMARK    6  A    between atoms: C_10  and  C_11
REMARK    7  A    between atoms: C_10  and  N_12
REMARK    8  A    between atoms: N_12  and  C_13
REMARK    9  A    between atoms: C_13  and  C_14
REMARK   10  A    between atoms: C_14  and  O_15
REMARK   11  A    between atoms: C_14  and  C_16
REMARK                            x       y       z     vdW  Elec       q    Type
REMARK                         _______ _______ _______ _____ _____    ______ ____
ROOT
ATOM      1  C   UNL     1       1.377   3.774  20.647  0.00  0.00    +0.000 C 
ATOM      2  C   UNL     1       0.936   3.948  19.189  0.00  0.00    +0.000 C 
ENDROOT
BRANCH   1   3
ATOM      3  N   UNL     1       1.954   2.423  20.793  0.00  0.00    +0.000 NA
ATOM      4  H   UNL     1       1.226   1.716  20.908  0.00  0.00    +0.000 HD
BRANCH   3   5
ATOM      5  C   UNL     1       2.827   2.062  19.666  0.00  0.00    +0.000 C 
BRANCH   5   6
ATOM      6  C   UNL     1       4.291   2.561  19.804  0.00  0.00    +0.000 C 
BRANCH   6   7
ATOM      7  C   UNL     1       4.656   3.423  18.600  0.00  0.00    +0.000 A 
ATOM      8  C   UNL     1       4.002   3.314  17.363  0.00  0.00    +0.000 A 
ATOM      9  C   UNL     1       4.314   4.179  16.309  0.00  0.00    +0.000 A 
ATOM     10  C   UNL     1       5.289   5.163  16.470  0.00  0.00    +0.000 A 
ATOM     11  C   UNL     1       5.964   5.267  17.682  0.00  0.00    +0.000 A 
ATOM     12  I   UNL     1       7.411   6.736  17.943  0.00  0.00    +0.000 I 
ATOM     13  C   UNL     1       5.664   4.398  18.733  0.00  0.00    +0.000 A 
ENDBRANCH   6   7
BRANCH   6  14
ATOM     14  O   UNL     1       5.159   1.425  19.914  0.00  0.00    +0.000 OA
ATOM     15  H   UNL     1       5.488   1.407  20.827  0.00  0.00    +0.000 HD
ENDBRANCH   6  14
ENDBRANCH   5   6
ENDBRANCH   3   5
ENDBRANCH   1   3
BRANCH   1  16
ATOM     16  C   UNL     1       2.358   4.896  21.070  0.00  0.00    +0.000 C 
BRANCH  16  20
ATOM     17  C   UNL     1       1.641   8.650  19.061  0.00  0.00    +0.000 A 
ATOM     18  C   UNL     1       2.427   7.666  18.449  0.00  0.00    +0.000 A 
ATOM     19  C   UNL     1       2.676   6.459  19.102  0.00  0.00    +0.000 A 
ATOM     20  C   UNL     1       2.154   6.223  20.382  0.00  0.00    +0.000 A 
ATOM     21  C   UNL     1       1.370   7.208  20.993  0.00  0.00    +0.000 A 
ATOM     22  C   UNL     1       1.116   8.414  20.340  0.00  0.00    +0.000 A 
BRANCH  17  23
ATOM     23  C   UNL     1       1.375   9.905  18.317  0.00  0.00    +0.000 C 
ATOM     24  O   UNL     1       2.092  10.332  17.423  0.00  0.00    +0.000 OA
BRANCH  23  26
ATOM     25  C   UNL     1      -0.905  10.258  17.939  0.00  0.00    +0.000 C 
ATOM     26  O   UNL     1       0.234  10.485  18.765  0.00  0.00    +0.000 OA
ENDBRANCH  23  26
ENDBRANCH  17  23
ENDBRANCH  16  20
ENDBRANCH   1  16
TORSDOF 9
ENDMDL
MODEL 4
REMARK VINA RESULT:      -7.0      1.219      1.576
REMARK  Name = 
REMARK  11 active torsions:
REMARK  status: ('A' for Active; 'I' for Inactive)
REMARK    1  A    between atoms: C_1  and  O_2
REMARK    2  A    between atoms: O_2  and  C_3
REMARK    3  A    between atoms: C_3  and  C_5
REMARK    4  A    between atoms: C_8  and  C_9
REMARK    5  A    between atoms: C_9  and  C_10
REMARK    6  A    between atoms: C_10  and  C_11
REMARK    7  A    between atoms: C_10  and  N_12
REMARK    8  A    between atoms: N_12  and  C_13
REMARK    9  A    between atoms: C_13  and  C_14
REMARK   10  A    between atoms: C_14  and  O_15
REMARK   11  A    between atoms: C_14  and  C_16
REMARK                            x       y       z     vdW  Elec       q    Type
REMARK                         _______ _______ _______ _____ _____    ______ ____
ROOT
ATOM      1  C   UNL     1       1.890   2.964  19.996  0.00  0.00    +0.000 C 
ATOM      2  C   UNL     1       2.353   3.101  21.451  0.00  0.00    +0.000 C 
ENDROOT
BRANCH   1   3
ATOM      3  N   UNL     1       1.457   4.295  19.526  0.00  0.00    +0.000 NA
ATOM      4  H   UNL     1       0.466   4.301  19.281  0.00  0.00    +0.000 HD
BRANCH   3   5
ATOM      5  C   UNL     1       1.734   5.353  20.509  0.00  0.00    +0.000 C 
BRANCH   5   6
ATOM      6  C   UNL     1       2.327   6.653  19.902  0.00  0.00    +0.000 C 
BRANCH   6   7
ATOM      7  C   UNL     1       1.497   7.853  20.345  0.00  0.00    +0.000 A 
ATOM      8  C   UNL     1       0.694   7.836  21.497  0.00  0.00    +0.000 A 
ATOM      9  C   UNL     1       0.012   8.984  21.911  0.00  0.00    +0.000 A 
ATOM     10  C   UNL     1       0.113  10.167  21.179  0.00  0.00    +0.000 A 
ATOM     11  C   UNL     1       0.884  10.192  20.021  0.00  0.00    +0.000 A 
ATOM     12  I   UNL     1       1.056  11.950  18.926  0.00  0.00    +0.000 I 
ATOM     13  C   UNL     1       1.558   9.045  19.597  0.00  0.00    +0.000 A 
ENDBRANCH   6   7
BRANCH   6  14
ATOM     14  O   UNL     1       2.344   6.530  18.472  0.00  0.00    +0.000 OA
ATOM     15  H   UNL     1       2.947   7.213  18.137  0.00  0.00    +0.000 HD
ENDBRANCH   6  14
ENDBRANCH   5   6
ENDBRANCH   3   5
ENDBRANCH   1   3
BRANCH   1  16
ATOM     16  C   UNL     1       3.002   2.347  19.113  0.00  0.00    +0.000 C 
BRANCH  16  20
ATOM     17  C   UNL     1       5.729   5.081  17.181  0.00  0.00    +0.000 A 
ATOM     18  C   UNL     1       5.851   4.819  18.551  0.00  0.00    +0.000 A 
ATOM     19  C   UNL     1       4.962   3.951  19.182  0.00  0.00    +0.000 A 
ATOM     20  C   UNL     1       3.929   3.341  18.457  0.00  0.00    +0.000 A 
ATOM     21  C   UNL     1       3.806   3.605  17.088  0.00  0.00    +0.000 A 
ATOM     22  C   UNL     1       4.698   4.470  16.453  0.00  0.00    +0.000 A 
BRANCH  17  23
ATOM     23  C   UNL     1       6.717   5.985  16.543  0.00  0.00    +0.000 C 
ATOM     24  O   UNL     1       7.555   5.614  15.732  0.00  0.00    +0.000 OA
BRANCH  23  26
ATOM     25  C   UNL     1       7.700   7.837  17.576  0.00  0.00    +0.000 C 
ATOM     26  O   UNL     1       6.543   7.256  16.980  0.00  0.00    +0.000 OA
ENDBRANCH  23  26
ENDBRANCH  17  23
ENDBRANCH  16  20
ENDBRANCH   1  16
TORSDOF 9
ENDMDL
MODEL 5
REMARK VINA RESULT:      -6.9      2.303      3.206
REMARK  Name = 
REMARK  11 active torsions:
REMARK  status: ('A' for Active; 'I' for Inactive)
REMARK    1  A    between atoms: C_1  and  O_2
REMARK    2  A    between atoms: O_2  and  C_3
REMARK    3  A    between atoms: C_3  and  C_5
REMARK    4  A    between atoms: C_8  and  C_9
REMARK    5  A    between atoms: C_9  and  C_10
REMARK    6  A    between atoms: C_10  and  C_11
REMARK    7  A    between atoms: C_10  and  N_12
REMARK    8  A    between atoms: N_12  and  C_13
REMARK    9  A    between atoms: C_13  and  C_14
REMARK   10  A    between atoms: C_14  and  O_15
REMARK   11  A    between atoms: C_14  and  C_16
REMARK                            x       y       z     vdW  Elec       q    Type
REMARK                         _______ _______ _______ _____ _____    ______ ____
ROOT
ATOM      1  C   UNL     1       1.812   5.728  20.028  0.00  0.00    +0.000 C 
ATOM      2  C   UNL     1       2.525   4.556  20.713  0.00  0.00    +0.000 C 
ENDROOT
BRANCH   1   3
ATOM      3  N   UNL     1       2.449   6.980  20.483  0.00  0.00    +0.000 NA
ATOM      4  H   UNL     1       3.261   7.215  19.910  0.00  0.00    +0.000 HD
BRANCH   3   5
ATOM      5  C   UNL     1       1.510   8.111  20.506  0.00  0.00    +0.000 C 
BRANCH   5   6
ATOM      6  C   UNL     1       1.135   8.603  21.929  0.00  0.00    +0.000 C 
BRANCH   6   7
ATOM      7  C   UNL     1       0.110   9.729  21.831  0.00  0.00    +0.000 A 
ATOM      8  C   UNL     1      -0.558  10.245  22.953  0.00  0.00    +0.000 A 
ATOM      9  C   UNL     1      -1.430  11.331  22.828  0.00  0.00    +0.000 A 
ATOM     10  C   UNL     1      -1.655  11.916  21.583  0.00  0.00    +0.000 A 
ATOM     11  C   UNL     1      -1.019  11.399  20.459  0.00  0.00    +0.000 A 
ATOM     12  I   UNL     1      -1.333  12.268  18.597  0.00  0.00    +0.000 I 
ATOM     13  C   UNL     1      -0.157  10.308  20.575  0.00  0.00    +0.000 A 
ENDBRANCH   6   7
BRANCH   6  14
ATOM     14  O   UNL     1       2.327   9.040  22.598  0.00  0.00    +0.000 OA
ATOM     15  H   UNL     1       2.063   9.330  23.486  0.00  0.00    +0.000 HD
ENDBRANCH   6  14
ENDBRANCH   5   6
ENDBRANCH   3   5
ENDBRANCH   1   3
BRANCH   1  16
ATOM     16  C   UNL     1       1.831   5.569  18.488  0.00  0.00    +0.000 C 
BRANCH  16  20
ATOM     17  C   UNL     1       5.788   4.984  16.863  0.00  0.00    +0.000 A 
ATOM     18  C   UNL     1       5.391   6.253  17.303  0.00  0.00    +0.000 A 
ATOM     19  C   UNL     1       4.107   6.450  17.812  0.00  0.00    +0.000 A 
ATOM     20  C   UNL     1       3.198   5.385  17.876  0.00  0.00    +0.000 A 
ATOM     21  C   UNL     1       3.596   4.118  17.434  0.00  0.00    +0.000 A 
ATOM     22  C   UNL     1       4.880   3.918  16.929  0.00  0.00    +0.000 A 
BRANCH  17  23
ATOM     23  C   UNL     1       7.173   4.813  16.359  0.00  0.00    +0.000 C 
ATOM     24  O   UNL     1       8.041   4.191  16.956  0.00  0.00    +0.000 OA
BRANCH  23  26
ATOM     25  C   UNL     1       6.964   4.620  14.039  0.00  0.00    +0.000 C 
ATOM     26  O   UNL     1       7.317   5.427  15.160  0.00  0.00    +0.000 OA
ENDBRANCH  23  26
ENDBRANCH  17  23
ENDBRANCH  16  20
ENDBRANCH   1  16
TORSDOF 9
ENDMDL
MODEL 6
REMARK VINA RESULT:      -6.9      3.156      6.714
REMARK  Name = 
REMARK  11 active torsions:
REMARK  status: ('A' for Active; 'I' for Inactive)
REMARK    1  A    between atoms: C_1  and  O_2
REMARK    2  A    between atoms: O_2  and  C_3
REMARK    3  A    between atoms: C_3  and  C_5
REMARK    4  A    between atoms: C_8  and  C_9
REMARK    5  A    between atoms: C_9  and  C_10
REMARK    6  A    between atoms: C_10  and  C_11
REMARK    7  A    between atoms: C_10  and  N_12
REMARK    8  A    between atoms: N_12  and  C_13
REMARK    9  A    between atoms: C_13  and  C_14
REMARK   10  A    between atoms: C_14  and  O_15
REMARK   11  A    between atoms: C_14  and  C_16
REMARK                            x       y       z     vdW  Elec       q    Type
REMARK                         _______ _______ _______ _____ _____    ______ ____
ROOT
ATOM      1  C   UNL     1       1.897   5.100  19.858  0.00  0.00    +0.000 C 
ATOM      2  C   UNL     1       1.356   4.375  18.620  0.00  0.00    +0.000 C 
ENDROOT
BRANCH   1   3
ATOM      3  N   UNL     1       2.553   4.100  20.724  0.00  0.00    +0.000 NA
ATOM      4  H   UNL     1       1.925   3.772  21.459  0.00  0.00    +0.000 HD
BRANCH   3   5
ATOM      5  C   UNL     1       3.072   2.954  19.963  0.00  0.00    +0.000 C 
BRANCH   5   6
ATOM      6  C   UNL     1       4.614   2.950  19.783  0.00  0.00    +0.000 C 
BRANCH   6   7
ATOM      7  C   UNL     1       4.987   3.715  18.518  0.00  0.00    +0.000 A 
ATOM      8  C   UNL     1       4.441   3.412  17.260  0.00  0.00    +0.000 A 
ATOM      9  C   UNL     1       4.750   4.190  16.140  0.00  0.00    +0.000 A 
ATOM     10  C   UNL     1       5.613   5.279  16.254  0.00  0.00    +0.000 A 
ATOM     11  C   UNL     1       6.182   5.576  17.488  0.00  0.00    +0.000 A 
ATOM     12  I   UNL     1       7.460   7.204  17.678  0.00  0.00    +0.000 I 
ATOM     13  C   UNL     1       5.886   4.795  18.607  0.00  0.00    +0.000 A 
ENDBRANCH   6   7
BRANCH   6  14
ATOM     14  O   UNL     1       5.069   1.590  19.724  0.00  0.00    +0.000 OA
ATOM     15  H   UNL     1       4.707   1.206  18.909  0.00  0.00    +0.000 HD
ENDBRANCH   6  14
ENDBRANCH   5   6
ENDBRANCH   3   5
ENDBRANCH   1   3
BRANCH   1  16
ATOM     16  C   UNL     1       2.841   6.259  19.456  0.00  0.00    +0.000 C 
BRANCH  16  20
ATOM     17  C   UNL     1       1.057  10.160  18.959  0.00  0.00    +0.000 A 
ATOM     18  C   UNL     1       0.895   9.463  20.163  0.00  0.00    +0.000 A 
ATOM     19  C   UNL     1       1.455   8.195  20.321  0.00  0.00    +0.000 A 
ATOM     20  C   UNL     1       2.173   7.600  19.274  0.00  0.00    +0.000 A 
ATOM     21  C   UNL     1       2.332   8.297  18.072  0.00  0.00    +0.000 A 
ATOM     22  C   UNL     1       1.777   9.567  17.912  0.00  0.00    +0.000 A 
BRANCH  17  23
ATOM     23  C   UNL     1       0.473  11.519  18.845  0.00  0.00    +0.000 C 
ATOM     24  O   UNL     1      -0.702  11.734  18.582  0.00  0.00    +0.000 OA
BRANCH  23  26
ATOM     25  C   UNL     1       1.176  13.259  20.240  0.00  0.00    +0.000 C 
ATOM     26  O   UNL     1       1.419  12.459  19.084  0.00  0.00    +0.000 OA
ENDBRANCH  23  26
ENDBRANCH  17  23
ENDBRANCH  16  20
ENDBRANCH   1  16
TORSDOF 9
ENDMDL
MODEL 7
REMARK VINA RESULT:      -6.9      3.470      7.243
REMARK  Name = 
REMARK  11 active torsions:
REMARK  status: ('A' for Active; 'I' for Inactive)
REMARK    1  A    between atoms: C_1  and  O_2
REMARK    2  A    between atoms: O_2  and  C_3
REMARK    3  A    between atoms: C_3  and  C_5
REMARK    4  A    between atoms: C_8  and  C_9
REMARK    5  A    between atoms: C_9  and  C_10
REMARK    6  A    between atoms: C_10  and  C_11
REMARK    7  A    between atoms: C_10  and  N_12
REMARK    8  A    between atoms: N_12  and  C_13
REMARK    9  A    between atoms: C_13  and  C_14
REMARK   10  A    between atoms: C_14  and  O_15
REMARK   11  A    between atoms: C_14  and  C_16
REMARK                            x       y       z     vdW  Elec       q    Type
REMARK                         _______ _______ _______ _____ _____    ______ ____
ROOT
ATOM      1  C   UNL     1       1.754   5.141  19.318  0.00  0.00    +0.000 C 
ATOM      2  C   UNL     1       1.764   4.870  17.809  0.00  0.00    +0.000 C 
ENDROOT
BRANCH   1   3
ATOM      3  N   UNL     1       2.140   3.895  20.010  0.00  0.00    +0.000 NA
ATOM      4  H   UNL     1       1.322   3.339  20.262  0.00  0.00    +0.000 HD
BRANCH   3   5
ATOM      5  C   UNL     1       3.074   3.081  19.218  0.00  0.00    +0.000 C 
BRANCH   5   6
ATOM      6  C   UNL     1       4.551   3.161  19.687  0.00  0.00    +0.000 C 
BRANCH   6   7
ATOM      7  C   UNL     1       5.330   4.105  18.777  0.00  0.00    +0.000 A 
ATOM      8  C   UNL     1       6.106   5.165  19.271  0.00  0.00    +0.000 A 
ATOM      9  C   UNL     1       6.868   5.958  18.406  0.00  0.00    +0.000 A 
ATOM     10  C   UNL     1       6.864   5.709  17.035  0.00  0.00    +0.000 A 
ATOM     11  C   UNL     1       6.079   4.678  16.527  0.00  0.00    +0.000 A 
ATOM     12  I   UNL     1       6.072   4.286  14.486  0.00  0.00    +0.000 I 
ATOM     13  C   UNL     1       5.308   3.892  17.385  0.00  0.00    +0.000 A 
ENDBRANCH   6   7
BRANCH   6  14
ATOM     14  O   UNL     1       5.113   1.841  19.673  0.00  0.00    +0.000 OA
ATOM     15  H   UNL     1       4.370   1.217  19.664  0.00  0.00    +0.000 HD
ENDBRANCH   6  14
ENDBRANCH   5   6
ENDBRANCH   3   5
ENDBRANCH   1   3
BRANCH   1  16
ATOM     16  C   UNL     1       2.671   6.337  19.676  0.00  0.00    +0.000 C 
BRANCH  16  20
ATOM     17  C   UNL     1       0.631  10.141  19.607  0.00  0.00    +0.000 A 
ATOM     18  C   UNL     1       1.290   9.678  18.462  0.00  0.00    +0.000 A 
ATOM     19  C   UNL     1       1.965   8.458  18.485  0.00  0.00    +0.000 A 
ATOM     20  C   UNL     1       2.003   7.689  19.657  0.00  0.00    +0.000 A 
ATOM     21  C   UNL     1       1.346   8.155  20.801  0.00  0.00    +0.000 A 
ATOM     22  C   UNL     1       0.666   9.372  20.779  0.00  0.00    +0.000 A 
BRANCH  17  23
ATOM     23  C   UNL     1      -0.103  11.428  19.529  0.00  0.00    +0.000 C 
ATOM     24  O   UNL     1      -0.543  11.898  18.488  0.00  0.00    +0.000 OA
BRANCH  23  26
ATOM     25  C   UNL     1      -1.534  12.406  21.097  0.00  0.00    +0.000 C 
ATOM     26  O   UNL     1      -0.215  11.982  20.760  0.00  0.00    +0.000 OA
ENDBRANCH  23  26
ENDBRANCH  17  23
ENDBRANCH  16  20
ENDBRANCH   1  16
TORSDOF 9
ENDMDL
MODEL 8
REMARK VINA RESULT:      -6.9      3.305      5.295
REMARK  Name = 
REMARK  11 active torsions:
REMARK  status: ('A' for Active; 'I' for Inactive)
REMARK    1  A    between atoms: C_1  and  O_2
REMARK    2  A    between atoms: O_2  and  C_3
REMARK    3  A    between atoms: C_3  and  C_5
REMARK    4  A    between atoms: C_8  and  C_9
REMARK    5  A    between atoms: C_9  and  C_10
REMARK    6  A    between atoms: C_10  and  C_11
REMARK    7  A    between atoms: C_10  and  N_12
REMARK    8  A    between atoms: N_12  and  C_13
REMARK    9  A    between atoms: C_13  and  C_14
REMARK   10  A    between atoms: C_14  and  O_15
REMARK   11  A    between atoms: C_14  and  C_16
REMARK                            x       y       z     vdW  Elec       q    Type
REMARK                         _______ _______ _______ _____ _____    ______ ____
ROOT
ATOM      1  C   UNL     1       7.672   5.316  17.809  0.00  0.00    +0.000 C 
ATOM      2  C   UNL     1       7.877   6.124  19.096  0.00  0.00    +0.000 C 
ENDROOT
BRANCH   1   3
ATOM      3  N   UNL     1       7.086   4.012  18.177  0.00  0.00    +0.000 NA
ATOM      4  H   UNL     1       7.795   3.371  18.537  0.00  0.00    +0.000 HD
BRANCH   3   5
ATOM      5  C   UNL     1       5.991   4.143  19.150  0.00  0.00    +0.000 C 
BRANCH   5   6
ATOM      6  C   UNL     1       4.596   3.737  18.604  0.00  0.00    +0.000 C 
BRANCH   6   7
ATOM      7  C   UNL     1       3.536   4.695  19.136  0.00  0.00    +0.000 A 
ATOM      8  C   UNL     1       2.772   4.421  20.282  0.00  0.00    +0.000 A 
ATOM      9  C   UNL     1       1.867   5.363  20.781  0.00  0.00    +0.000 A 
ATOM     10  C   UNL     1       1.704   6.591  20.142  0.00  0.00    +0.000 A 
ATOM     11  C   UNL     1       2.434   6.867  18.990  0.00  0.00    +0.000 A 
ATOM     12  I   UNL     1       2.212   8.698  18.033  0.00  0.00    +0.000 I 
ATOM     13  C   UNL     1       3.331   5.925  18.481  0.00  0.00    +0.000 A 
ENDBRANCH   6   7
BRANCH   6  14
ATOM     14  O   UNL     1       4.321   2.385  18.997  0.00  0.00    +0.000 OA
ATOM     15  H   UNL     1       3.912   2.424  19.877  0.00  0.00    +0.000 HD
ENDBRANCH   6  14
ENDBRANCH   5   6
ENDBRANCH   3   5
ENDBRANCH   1   3
BRANCH   1  16
ATOM     16  C   UNL     1       6.806   6.099  16.792  0.00  0.00    +0.000 C 
BRANCH  16  20
ATOM     17  C   UNL     1       5.879   3.849  13.225  0.00  0.00    +0.000 A 
ATOM     18  C   UNL     1       7.161   4.385  13.403  0.00  0.00    +0.000 A 
ATOM     19  C   UNL     1       7.459   5.128  14.545  0.00  0.00    +0.000 A 
ATOM     20  C   UNL     1       6.477   5.356  15.520  0.00  0.00    +0.000 A 
ATOM     21  C   UNL     1       5.197   4.821  15.340  0.00  0.00    +0.000 A 
ATOM     22  C   UNL     1       4.897   4.074  14.200  0.00  0.00    +0.000 A 
BRANCH  17  23
ATOM     23  C   UNL     1       5.615   3.038  12.011  0.00  0.00    +0.000 C 
ATOM     24  O   UNL     1       4.511   2.923  11.497  0.00  0.00    +0.000 OA
BRANCH  23  26
ATOM     25  C   UNL     1       6.593   1.168  11.005  0.00  0.00    +0.000 C 
ATOM     26  O   UNL     1       6.761   2.468  11.567  0.00  0.00    +0.000 OA
ENDBRANCH  23  26
ENDBRANCH  17  23
ENDBRANCH  16  20
ENDBRANCH   1  16
TORSDOF 9
ENDMDL
MODEL 9
REMARK VINA RESULT:      -6.8      3.008      6.613
REMARK  Name = 
REMARK  11 active torsions:
REMARK  status: ('A' for Active; 'I' for Inactive)
REMARK    1  A    between atoms: C_1  and  O_2
REMARK    2  A    between atoms: O_2  and  C_3
REMARK    3  A    between atoms: C_3  and  C_5
REMARK    4  A    between atoms: C_8  and  C_9
REMARK    5  A    between atoms: C_9  and  C_10
REMARK    6  A    between atoms: C_10  and  C_11
REMARK    7  A    between atoms: C_10  and  N_12
REMARK    8  A    between atoms: N_12  and  C_13
REMARK    9  A    between atoms: C_13  and  C_14
REMARK   10  A    between atoms: C_14  and  O_15
REMARK   11  A    between atoms: C_14  and  C_16
REMARK                            x       y       z     vdW  Elec       q    Type
REMARK                         _______ _______ _______ _____ _____    ______ ____
ROOT
ATOM      1  C   UNL     1       2.253   4.381  19.465  0.00  0.00    +0.000 C 
ATOM      2  C   UNL     1       1.008   4.164  20.334  0.00  0.00    +0.000 C 
ENDROOT
BRANCH   1   3
ATOM      3  N   UNL     1       1.822   4.435  18.054  0.00  0.00    +0.000 NA
ATOM      4  H   UNL     1       1.925   5.375  17.667  0.00  0.00    +0.000 HD
BRANCH   3   5
ATOM      5  C   UNL     1       2.540   3.468  17.211  0.00  0.00    +0.000 C 
BRANCH   5   6
ATOM      6  C   UNL     1       3.949   3.081  17.736  0.00  0.00    +0.000 C 
BRANCH   6   7
ATOM      7  C   UNL     1       5.017   3.817  16.934  0.00  0.00    +0.000 A 
ATOM      8  C   UNL     1       5.355   3.463  15.618  0.00  0.00    +0.000 A 
ATOM      9  C   UNL     1       6.283   4.215  14.891  0.00  0.00    +0.000 A 
ATOM     10  C   UNL     1       6.895   5.328  15.466  0.00  0.00    +0.000 A 
ATOM     11  C   UNL     1       6.590   5.676  16.778  0.00  0.00    +0.000 A 
ATOM     12  I   UNL     1       7.483   7.339  17.647  0.00  0.00    +0.000 I 
ATOM     13  C   UNL     1       5.672   4.922  17.513  0.00  0.00    +0.000 A 
ENDBRANCH   6   7
BRANCH   6  14
ATOM     14  O   UNL     1       4.107   1.659  17.634  0.00  0.00    +0.000 OA
ATOM     15  H   UNL     1       4.848   1.415  18.212  0.00  0.00    +0.000 HD
ENDBRANCH   6  14
ENDBRANCH   5   6
ENDBRANCH   3   5
ENDBRANCH   1   3
BRANCH   1  16
ATOM     16  C   UNL     1       3.027   5.648  19.906  0.00  0.00    +0.000 C 
BRANCH  16  20
ATOM     17  C   UNL     1       1.249   9.467  18.958  0.00  0.00    +0.000 A 
ATOM     18  C   UNL     1       1.075   8.909  20.231  0.00  0.00    +0.000 A 
ATOM     19  C   UNL     1       1.633   7.667  20.536  0.00  0.00    +0.000 A 
ATOM     20  C   UNL     1       2.361   6.959  19.569  0.00  0.00    +0.000 A 
ATOM     21  C   UNL     1       2.532   7.517  18.297  0.00  0.00    +0.000 A 
ATOM     22  C   UNL     1       1.979   8.761  17.992  0.00  0.00    +0.000 A 
BRANCH  17  23
ATOM     23  C   UNL     1       0.667  10.804  18.688  0.00  0.00    +0.000 C 
ATOM     24  O   UNL     1      -0.501  10.986  18.375  0.00  0.00    +0.000 OA
BRANCH  23  26
ATOM     25  C   UNL     1       1.153  13.086  18.550  0.00  0.00    +0.000 C 
ATOM     26  O   UNL     1       1.606  11.768  18.848  0.00  0.00    +0.000 OA
ENDBRANCH  23  26
ENDBRANCH  17  23
ENDBRANCH  16  20
ENDBRANCH   1  16
TORSDOF 9
ENDMDL
