MODEL 1
REMARK VINA RESULT:      -6.7      0.000      0.000
REMARK  Name = 
REMARK  4 active torsions:
REMARK  status: ('A' for Active; 'I' for Inactive)
REMARK    1  A    between atoms: C_1  and  O_2
REMARK    2  A    between atoms: O_2  and  C_3
REMARK    3  A    between atoms: C_6  and  C_7
REMARK    4  A    between atoms: N_20  and  C_21
REMARK                            x       y       z     vdW  Elec       q    Type
REMARK                         _______ _______ _______ _____ _____    ______ ____
ROOT
ATOM      1  C   UNL     1      -0.532  11.111  20.961  0.00  0.00    +0.000 C 
ATOM      2  N   UNL     1       0.177  10.084  21.435  0.00  0.00    +0.000 N 
ATOM      3  O   UNL     1       0.293   9.844  22.680  0.00  0.00    +0.000 OA
ATOM      4  C   UNL     1       0.915   9.251  20.485  0.00  0.00    +0.000 A 
ATOM      5  C   UNL     1       1.475   8.039  20.896  0.00  0.00    +0.000 A 
ATOM      6  C   UNL     1       2.164   7.253  19.971  0.00  0.00    +0.000 A 
ATOM      7  C   UNL     1       2.305   7.687  18.651  0.00  0.00    +0.000 A 
ATOM      8  C   UNL     1       1.797   8.927  18.257  0.00  0.00    +0.000 A 
ATOM      9  C   UNL     1       1.116   9.723  19.180  0.00  0.00    +0.000 A 
ATOM     10  N   UNL     1       0.499  10.929  18.802  0.00  0.00    +0.000 N 
ATOM     11  C   UNL     1       1.449  12.068  18.691  0.00  0.00    +0.000 C 
ATOM     12  C   UNL     1       0.706  13.401  18.953  0.00  0.00    +0.000 C 
ATOM     13  C   UNL     1      -0.722  13.371  18.415  0.00  0.00    +0.000 C 
ATOM     14  N   UNL     1      -1.440  12.147  18.895  0.00  0.00    +0.000 N 
ATOM     15  C   UNL     1      -2.223  11.500  17.789  0.00  0.00    +0.000 C 
ATOM     16  C   UNL     1      -0.664  11.287  19.538  0.00  0.00    +0.000 C 
ENDROOT
BRANCH   1  20
ATOM     17  C   UNL     1      -2.033  14.043  23.746  0.00  0.00    +0.000 A 
ATOM     18  C   UNL     1      -2.770  12.905  23.433  0.00  0.00    +0.000 A 
ATOM     19  C   UNL     1      -2.259  11.964  22.542  0.00  0.00    +0.000 A 
ATOM     20  C   UNL     1      -1.023  12.163  21.899  0.00  0.00    +0.000 A 
ATOM     21  C   UNL     1      -0.278  13.296  22.227  0.00  0.00    +0.000 A 
ATOM     22  C   UNL     1      -0.785  14.233  23.148  0.00  0.00    +0.000 A 
BRANCH  17  24
ATOM     23  C   UNL     1      -1.870  15.488  25.620  0.00  0.00    +0.000 C 
ATOM     24  O   UNL     1      -2.665  14.897  24.603  0.00  0.00    +0.000 OA
ENDBRANCH  17  24
ENDBRANCH   1  20
TORSDOF 2
ENDMDL
MODEL 2
REMARK VINA RESULT:      -6.5      0.558      1.127
REMARK  Name = 
REMARK  4 active torsions:
REMARK  status: ('A' for Active; 'I' for Inactive)
REMARK    1  A    between atoms: C_1  and  O_2
REMARK    2  A    between atoms: O_2  and  C_3
REMARK    3  A    between atoms: C_6  and  C_7
REMARK    4  A    between atoms: N_20  and  C_21
REMARK                            x       y       z     vdW  Elec       q    Type
REMARK                         _______ _______ _______ _____ _____    ______ ____
ROOT
ATOM      1  C   UNL     1      -0.324  11.081  20.764  0.00  0.00    +0.000 C 
ATOM      2  N   UNL     1       0.377  10.036  21.210  0.00  0.00    +0.000 N 
ATOM      3  O   UNL     1       0.523   9.784  22.450  0.00  0.00    +0.000 OA
ATOM      4  C   UNL     1       1.072   9.197  20.234  0.00  0.00    +0.000 A 
ATOM      5  C   UNL     1       1.618   7.971  20.621  0.00  0.00    +0.000 A 
ATOM      6  C   UNL     1       2.266   7.178  19.672  0.00  0.00    +0.000 A 
ATOM      7  C   UNL     1       2.379   7.619  18.351  0.00  0.00    +0.000 A 
ATOM      8  C   UNL     1       1.886   8.872  17.981  0.00  0.00    +0.000 A 
ATOM      9  C   UNL     1       1.247   9.675  18.928  0.00  0.00    +0.000 A 
ATOM     10  N   UNL     1       0.644  10.896  18.576  0.00  0.00    +0.000 N 
ATOM     11  C   UNL     1       1.613  12.017  18.448  0.00  0.00    +0.000 C 
ATOM     12  C   UNL     1       0.906  13.362  18.739  0.00  0.00    +0.000 C 
ATOM     13  C   UNL     1      -0.537  13.365  18.240  0.00  0.00    +0.000 C 
ATOM     14  N   UNL     1      -1.267  12.152  18.732  0.00  0.00    +0.000 N 
ATOM     15  C   UNL     1      -2.093  11.530  17.643  0.00  0.00    +0.000 C 
ATOM     16  C   UNL     1      -0.490  11.271  19.347  0.00  0.00    +0.000 C 
ENDROOT
BRANCH   1  20
ATOM     17  C   UNL     1      -1.529  14.233  23.451  0.00  0.00    +0.000 A 
ATOM     18  C   UNL     1      -0.336  14.313  22.739  0.00  0.00    +0.000 A 
ATOM     19  C   UNL     1       0.026  13.289  21.865  0.00  0.00    +0.000 A 
ATOM     20  C   UNL     1      -0.767  12.136  21.723  0.00  0.00    +0.000 A 
ATOM     21  C   UNL     1      -1.971  12.066  22.425  0.00  0.00    +0.000 A 
ATOM     22  C   UNL     1      -2.348  13.114  23.287  0.00  0.00    +0.000 A 
BRANCH  17  24
ATOM     23  C   UNL     1      -0.753  16.302  24.314  0.00  0.00    +0.000 C 
ATOM     24  O   UNL     1      -1.743  15.285  24.295  0.00  0.00    +0.000 OA
ENDBRANCH  17  24
ENDBRANCH   1  20
TORSDOF 2
ENDMDL
MODEL 3
REMARK VINA RESULT:      -6.5      0.839      1.291
REMARK  Name = 
REMARK  4 active torsions:
REMARK  status: ('A' for Active; 'I' for Inactive)
REMARK    1  A    between atoms: C_1  and  O_2
REMARK    2  A    between atoms: O_2  and  C_3
REMARK    3  A    between atoms: C_6  and  C_7
REMARK    4  A    between atoms: N_20  and  C_21
REMARK                            x       y       z     vdW  Elec       q    Type
REMARK                         _______ _______ _______ _____ _____    ______ ____
ROOT
ATOM      1  C   UNL     1      -0.936  11.272  21.548  0.00  0.00    +0.000 C 
ATOM      2  N   UNL     1      -0.171  10.277  22.002  0.00  0.00    +0.000 N 
ATOM      3  O   UNL     1      -0.024  10.033  23.244  0.00  0.00    +0.000 OA
ATOM      4  C   UNL     1       0.593   9.489  21.034  0.00  0.00    +0.000 A 
ATOM      5  C   UNL     1       1.216   8.303  21.427  0.00  0.00    +0.000 A 
ATOM      6  C   UNL     1       1.929   7.559  20.484  0.00  0.00    +0.000 A 
ATOM      7  C   UNL     1       2.029   8.009  19.166  0.00  0.00    +0.000 A 
ATOM      8  C   UNL     1       1.455   9.226  18.791  0.00  0.00    +0.000 A 
ATOM      9  C   UNL     1       0.750   9.981  19.731  0.00  0.00    +0.000 A 
ATOM     10  N   UNL     1       0.069  11.159  19.373  0.00  0.00    +0.000 N 
ATOM     11  C   UNL     1       0.961  12.343  19.258  0.00  0.00    +0.000 C 
ATOM     12  C   UNL     1       0.159  13.636  19.543  0.00  0.00    +0.000 C 
ATOM     13  C   UNL     1      -1.274  13.541  19.025  0.00  0.00    +0.000 C 
ATOM     14  N   UNL     1      -1.925  12.280  19.505  0.00  0.00    +0.000 N 
ATOM     15  C   UNL     1      -2.692  11.605  18.406  0.00  0.00    +0.000 C 
ATOM     16  C   UNL     1      -1.098  11.453  20.129  0.00  0.00    +0.000 C 
ENDROOT
BRANCH   1  20
ATOM     17  C   UNL     1      -2.374  14.324  24.236  0.00  0.00    +0.000 A 
ATOM     18  C   UNL     1      -1.111  14.412  23.657  0.00  0.00    +0.000 A 
ATOM     19  C   UNL     1      -0.673  13.421  22.780  0.00  0.00    +0.000 A 
ATOM     20  C   UNL     1      -1.464  12.291  22.503  0.00  0.00    +0.000 A 
ATOM     21  C   UNL     1      -2.736  12.213  23.070  0.00  0.00    +0.000 A 
ATOM     22  C   UNL     1      -3.187  13.229  23.936  0.00  0.00    +0.000 A 
BRANCH  17  24
ATOM     23  C   UNL     1      -3.831  16.099  24.831  0.00  0.00    +0.000 C 
ATOM     24  O   UNL     1      -2.661  15.341  25.100  0.00  0.00    +0.000 OA
ENDBRANCH  17  24
ENDBRANCH   1  20
TORSDOF 2
ENDMDL
MODEL 4
REMARK VINA RESULT:      -6.3      4.362      7.556
REMARK  Name = 
REMARK  4 active torsions:
REMARK  status: ('A' for Active; 'I' for Inactive)
REMARK    1  A    between atoms: C_1  and  O_2
REMARK    2  A    between atoms: O_2  and  C_3
REMARK    3  A    between atoms: C_6  and  C_7
REMARK    4  A    between atoms: N_20  and  C_21
REMARK                            x       y       z     vdW  Elec       q    Type
REMARK                         _______ _______ _______ _____ _____    ______ ____
ROOT
ATOM      1  C   UNL     1       3.518   6.210  18.505  0.00  0.00    +0.000 C 
ATOM      2  N   UNL     1       4.388   6.629  17.583  0.00  0.00    +0.000 N 
ATOM      3  O   UNL     1       4.565   7.862  17.314  0.00  0.00    +0.000 OA
ATOM      4  C   UNL     1       5.106   5.626  16.796  0.00  0.00    +0.000 A 
ATOM      5  C   UNL     1       6.186   6.001  15.993  0.00  0.00    +0.000 A 
ATOM      6  C   UNL     1       6.865   5.027  15.260  0.00  0.00    +0.000 A 
ATOM      7  C   UNL     1       6.455   3.693  15.318  0.00  0.00    +0.000 A 
ATOM      8  C   UNL     1       5.337   3.331  16.074  0.00  0.00    +0.000 A 
ATOM      9  C   UNL     1       4.646   4.302  16.801  0.00  0.00    +0.000 A 
ATOM     10  N   UNL     1       3.580   3.966  17.656  0.00  0.00    +0.000 N 
ATOM     11  C   UNL     1       2.295   3.751  16.939  0.00  0.00    +0.000 C 
ATOM     12  C   UNL     1       1.107   4.061  17.882  0.00  0.00    +0.000 C 
ATOM     13  C   UNL     1       1.407   3.660  19.324  0.00  0.00    +0.000 C 
ATOM     14  N   UNL     1       2.723   4.224  19.766  0.00  0.00    +0.000 N 
ATOM     15  C   UNL     1       3.532   3.206  20.516  0.00  0.00    +0.000 C 
ATOM     16  C   UNL     1       3.412   4.803  18.792  0.00  0.00    +0.000 C 
ENDROOT
BRANCH   1  20
ATOM     17  C   UNL     1       0.758   8.973  20.336  0.00  0.00    +0.000 A 
ATOM     18  C   UNL     1       1.292   7.908  21.054  0.00  0.00    +0.000 A 
ATOM     19  C   UNL     1       2.193   7.036  20.446  0.00  0.00    +0.000 A 
ATOM     20  C   UNL     1       2.541   7.174  19.090  0.00  0.00    +0.000 A 
ATOM     21  C   UNL     1       2.018   8.253  18.376  0.00  0.00    +0.000 A 
ATOM     22  C   UNL     1       1.127   9.149  19.000  0.00  0.00    +0.000 A 
BRANCH  17  24
ATOM     23  C   UNL     1      -0.289   9.416  22.417  0.00  0.00    +0.000 C 
ATOM     24  O   UNL     1      -0.137   9.726  21.040  0.00  0.00    +0.000 OA
ENDBRANCH  17  24
ENDBRANCH   1  20
TORSDOF 2
ENDMDL
MODEL 5
REMARK VINA RESULT:      -6.3      2.360      3.981
REMARK  Name = 
REMARK  4 active torsions:
REMARK  status: ('A' for Active; 'I' for Inactive)
REMARK    1  A    between atoms: C_1  and  O_2
REMARK    2  A    between atoms: O_2  and  C_3
REMARK    3  A    between atoms: C_6  and  C_7
REMARK    4  A    between atoms: N_20  and  C_21
REMARK                            x       y       z     vdW  Elec       q    Type
REMARK                         _______ _______ _______ _____ _____    ______ ____
ROOT
ATOM      1  C   UNL     1      -2.419  12.673  20.147  0.00  0.00    +0.000 C 
ATOM      2  N   UNL     1      -3.489  12.311  19.434  0.00  0.00    +0.000 N 
ATOM      3  O   UNL     1      -4.681  12.562  19.807  0.00  0.00    +0.000 OA
ATOM      4  C   UNL     1      -3.281  11.524  18.218  0.00  0.00    +0.000 A 
ATOM      5  C   UNL     1      -4.332  11.323  17.321  0.00  0.00    +0.000 A 
ATOM      6  C   UNL     1      -4.110  10.580  16.160  0.00  0.00    +0.000 A 
ATOM      7  C   UNL     1      -2.850  10.030  15.910  0.00  0.00    +0.000 A 
ATOM      8  C   UNL     1      -1.818  10.182  16.839  0.00  0.00    +0.000 A 
ATOM      9  C   UNL     1      -2.037  10.914  18.008  0.00  0.00    +0.000 A 
ATOM     10  N   UNL     1      -0.998  11.180  18.919  0.00  0.00    +0.000 N 
ATOM     11  C   UNL     1      -0.703  10.038  19.825  0.00  0.00    +0.000 C 
ATOM     12  C   UNL     1      -0.110  10.561  21.156  0.00  0.00    +0.000 C 
ATOM     13  C   UNL     1       0.776  11.786  20.940  0.00  0.00    +0.000 C 
ATOM     14  N   UNL     1       0.059  12.817  20.124  0.00  0.00    +0.000 N 
ATOM     15  C   UNL     1       0.954  13.400  19.068  0.00  0.00    +0.000 C 
ATOM     16  C   UNL     1      -1.101  12.403  19.635  0.00  0.00    +0.000 C 
ENDROOT
BRANCH   1  20
ATOM     17  C   UNL     1      -2.986  14.277  24.111  0.00  0.00    +0.000 A 
ATOM     18  C   UNL     1      -2.693  15.108  23.034  0.00  0.00    +0.000 A 
ATOM     19  C   UNL     1      -2.528  14.569  21.759  0.00  0.00    +0.000 A 
ATOM     20  C   UNL     1      -2.598  13.181  21.538  0.00  0.00    +0.000 A 
ATOM     21  C   UNL     1      -2.909  12.351  22.616  0.00  0.00    +0.000 A 
ATOM     22  C   UNL     1      -3.100  12.901  23.899  0.00  0.00    +0.000 A 
BRANCH  17  24
ATOM     23  C   UNL     1      -1.889  15.476  25.838  0.00  0.00    +0.000 C 
ATOM     24  O   UNL     1      -3.086  14.930  25.305  0.00  0.00    +0.000 OA
ENDBRANCH  17  24
ENDBRANCH   1  20
TORSDOF 2
ENDMDL
MODEL 6
REMARK VINA RESULT:      -6.3      4.378      7.652
REMARK  Name = 
REMARK  4 active torsions:
REMARK  status: ('A' for Active; 'I' for Inactive)
REMARK    1  A    between atoms: C_1  and  O_2
REMARK    2  A    between atoms: O_2  and  C_3
REMARK    3  A    between atoms: C_6  and  C_7
REMARK    4  A    between atoms: N_20  and  C_21
REMARK                            x       y       z     vdW  Elec       q    Type
REMARK                         _______ _______ _______ _____ _____    ______ ____
ROOT
ATOM      1  C   UNL     1       3.582   6.176  18.524  0.00  0.00    +0.000 C 
ATOM      2  N   UNL     1       4.449   6.595  17.598  0.00  0.00    +0.000 N 
ATOM      3  O   UNL     1       4.642   7.829  17.345  0.00  0.00    +0.000 OA
ATOM      4  C   UNL     1       5.141   5.593  16.788  0.00  0.00    +0.000 A 
ATOM      5  C   UNL     1       6.218   5.962  15.979  0.00  0.00    +0.000 A 
ATOM      6  C   UNL     1       6.873   4.987  15.224  0.00  0.00    +0.000 A 
ATOM      7  C   UNL     1       6.442   3.659  15.267  0.00  0.00    +0.000 A 
ATOM      8  C   UNL     1       5.327   3.304  16.030  0.00  0.00    +0.000 A 
ATOM      9  C   UNL     1       4.659   4.276  16.779  0.00  0.00    +0.000 A 
ATOM     10  N   UNL     1       3.598   3.945  17.642  0.00  0.00    +0.000 N 
ATOM     11  C   UNL     1       2.302   3.761  16.937  0.00  0.00    +0.000 C 
ATOM     12  C   UNL     1       1.130   4.077  17.897  0.00  0.00    +0.000 C 
ATOM     13  C   UNL     1       1.439   3.649  19.330  0.00  0.00    +0.000 C 
ATOM     14  N   UNL     1       2.769   4.185  19.764  0.00  0.00    +0.000 N 
ATOM     15  C   UNL     1       3.570   3.143  20.490  0.00  0.00    +0.000 C 
ATOM     16  C   UNL     1       3.457   4.767  18.792  0.00  0.00    +0.000 C 
ENDROOT
BRANCH   1  20
ATOM     17  C   UNL     1       0.761   9.006  20.148  0.00  0.00    +0.000 A 
ATOM     18  C   UNL     1       1.187   9.093  18.827  0.00  0.00    +0.000 A 
ATOM     19  C   UNL     1       2.088   8.159  18.319  0.00  0.00    +0.000 A 
ATOM     20  C   UNL     1       2.628   7.148  19.134  0.00  0.00    +0.000 A 
ATOM     21  C   UNL     1       2.186   7.051  20.455  0.00  0.00    +0.000 A 
ATOM     22  C   UNL     1       1.255   7.980  20.958  0.00  0.00    +0.000 A 
BRANCH  17  24
ATOM     23  C   UNL     1      -0.814  10.652  19.489  0.00  0.00    +0.000 C 
ATOM     24  O   UNL     1      -0.092  10.003  20.525  0.00  0.00    +0.000 OA
ENDBRANCH  17  24
ENDBRANCH   1  20
TORSDOF 2
ENDMDL
MODEL 7
REMARK VINA RESULT:      -6.2      7.773     10.066
REMARK  Name = 
REMARK  4 active torsions:
REMARK  status: ('A' for Active; 'I' for Inactive)
REMARK    1  A    between atoms: C_1  and  O_2
REMARK    2  A    between atoms: O_2  and  C_3
REMARK    3  A    between atoms: C_6  and  C_7
REMARK    4  A    between atoms: N_20  and  C_21
REMARK                            x       y       z     vdW  Elec       q    Type
REMARK                         _______ _______ _______ _____ _____    ______ ____
ROOT
ATOM      1  C   UNL     1       4.807   5.039  16.898  0.00  0.00    +0.000 C 
ATOM      2  N   UNL     1       4.493   4.338  15.806  0.00  0.00    +0.000 N 
ATOM      3  O   UNL     1       3.441   3.624  15.725  0.00  0.00    +0.000 OA
ATOM      4  C   UNL     1       5.439   4.328  14.690  0.00  0.00    +0.000 A 
ATOM      5  C   UNL     1       5.059   3.812  13.449  0.00  0.00    +0.000 A 
ATOM      6  C   UNL     1       5.973   3.824  12.393  0.00  0.00    +0.000 A 
ATOM      7  C   UNL     1       7.259   4.334  12.585  0.00  0.00    +0.000 A 
ATOM      8  C   UNL     1       7.655   4.794  13.843  0.00  0.00    +0.000 A 
ATOM      9  C   UNL     1       6.750   4.774  14.907  0.00  0.00    +0.000 A 
ATOM     10  N   UNL     1       7.072   5.323  16.161  0.00  0.00    +0.000 N 
ATOM     11  C   UNL     1       7.905   4.422  17.002  0.00  0.00    +0.000 C 
ATOM     12  C   UNL     1       7.661   4.725  18.500  0.00  0.00    +0.000 C 
ATOM     13  C   UNL     1       7.421   6.212  18.748  0.00  0.00    +0.000 C 
ATOM     14  N   UNL     1       6.367   6.736  17.821  0.00  0.00    +0.000 N 
ATOM     15  C   UNL     1       6.760   8.062  17.237  0.00  0.00    +0.000 C 
ATOM     16  C   UNL     1       5.984   5.867  16.896  0.00  0.00    +0.000 C 
ENDROOT
BRANCH   1  20
ATOM     17  C   UNL     1       2.719   4.305  20.601  0.00  0.00    +0.000 A 
ATOM     18  C   UNL     1       3.602   3.367  20.075  0.00  0.00    +0.000 A 
ATOM     19  C   UNL     1       4.277   3.632  18.885  0.00  0.00    +0.000 A 
ATOM     20  C   UNL     1       4.044   4.816  18.162  0.00  0.00    +0.000 A 
ATOM     21  C   UNL     1       3.171   5.763  18.699  0.00  0.00    +0.000 A 
ATOM     22  C   UNL     1       2.510   5.504  19.916  0.00  0.00    +0.000 A 
BRANCH  17  24
ATOM     23  C   UNL     1       1.552   2.594  21.757  0.00  0.00    +0.000 C 
ATOM     24  O   UNL     1       2.101   3.903  21.750  0.00  0.00    +0.000 OA
ENDBRANCH  17  24
ENDBRANCH   1  20
TORSDOF 2
ENDMDL
MODEL 8
REMARK VINA RESULT:      -6.1      3.818      5.404
REMARK  Name = 
REMARK  4 active torsions:
REMARK  status: ('A' for Active; 'I' for Inactive)
REMARK    1  A    between atoms: C_1  and  O_2
REMARK    2  A    between atoms: O_2  and  C_3
REMARK    3  A    between atoms: C_6  and  C_7
REMARK    4  A    between atoms: N_20  and  C_21
REMARK                            x       y       z     vdW  Elec       q    Type
REMARK                         _______ _______ _______ _____ _____    ______ ____
ROOT
ATOM      1  C   UNL     1      -4.283  12.578  20.597  0.00  0.00    +0.000 C 
ATOM      2  N   UNL     1      -3.201  12.376  19.840  0.00  0.00    +0.000 N 
ATOM      3  O   UNL     1      -2.028  12.700  20.216  0.00  0.00    +0.000 OA
ATOM      4  C   UNL     1      -3.386  11.835  18.494  0.00  0.00    +0.000 A 
ATOM      5  C   UNL     1      -2.286  11.388  17.757  0.00  0.00    +0.000 A 
ATOM      6  C   UNL     1      -2.485  10.863  16.479  0.00  0.00    +0.000 A 
ATOM      7  C   UNL     1      -3.772  10.802  15.939  0.00  0.00    +0.000 A 
ATOM      8  C   UNL     1      -4.862  11.306  16.653  0.00  0.00    +0.000 A 
ATOM      9  C   UNL     1      -4.668  11.843  17.928  0.00  0.00    +0.000 A 
ATOM     10  N   UNL     1      -5.749  12.264  18.724  0.00  0.00    +0.000 N 
ATOM     11  C   UNL     1      -6.260  13.612  18.358  0.00  0.00    +0.000 C 
ATOM     12  C   UNL     1      -6.909  14.283  19.593  0.00  0.00    +0.000 C 
ATOM     13  C   UNL     1      -7.620  13.267  20.483  0.00  0.00    +0.000 C 
ATOM     14  N   UNL     1      -6.714  12.116  20.797  0.00  0.00    +0.000 N 
ATOM     15  C   UNL     1      -7.431  10.803  20.672  0.00  0.00    +0.000 C 
ATOM     16  C   UNL     1      -5.570  12.136  20.128  0.00  0.00    +0.000 C 
ENDROOT
BRANCH   1  20
ATOM     17  C   UNL     1      -4.055  15.118  24.076  0.00  0.00    +0.000 A 
ATOM     18  C   UNL     1      -4.147  15.657  22.797  0.00  0.00    +0.000 A 
ATOM     19  C   UNL     1      -4.234  14.818  21.688  0.00  0.00    +0.000 A 
ATOM     20  C   UNL     1      -4.176  13.419  21.826  0.00  0.00    +0.000 A 
ATOM     21  C   UNL     1      -4.101  12.879  23.111  0.00  0.00    +0.000 A 
ATOM     22  C   UNL     1      -4.039  13.729  24.232  0.00  0.00    +0.000 A 
BRANCH  17  24
ATOM     23  C   UNL     1      -4.832  17.154  25.012  0.00  0.00    +0.000 C 
ATOM     24  O   UNL     1      -3.940  16.051  25.066  0.00  0.00    +0.000 OA
ENDBRANCH  17  24
ENDBRANCH   1  20
TORSDOF 2
ENDMDL
MODEL 9
REMARK VINA RESULT:      -6.1      9.354     11.942
REMARK  Name = 
REMARK  4 active torsions:
REMARK  status: ('A' for Active; 'I' for Inactive)
REMARK    1  A    between atoms: C_1  and  O_2
REMARK    2  A    between atoms: O_2  and  C_3
REMARK    3  A    between atoms: C_6  and  C_7
REMARK    4  A    between atoms: N_20  and  C_21
REMARK                            x       y       z     vdW  Elec       q    Type
REMARK                         _______ _______ _______ _____ _____    ______ ____
ROOT
ATOM      1  C   UNL     1       9.596  14.111  18.690  0.00  0.00    +0.000 C 
ATOM      2  N   UNL     1      10.648  14.586  18.018  0.00  0.00    +0.000 N 
ATOM      3  O   UNL     1      11.361  13.859  17.253  0.00  0.00    +0.000 OA
ATOM      4  C   UNL     1      11.042  15.978  18.236  0.00  0.00    +0.000 A 
ATOM      5  C   UNL     1      11.976  16.586  17.395  0.00  0.00    +0.000 A 
ATOM      6  C   UNL     1      12.329  17.919  17.612  0.00  0.00    +0.000 A 
ATOM      7  C   UNL     1      11.763  18.630  18.673  0.00  0.00    +0.000 A 
ATOM      8  C   UNL     1      10.875  18.001  19.549  0.00  0.00    +0.000 A 
ATOM      9  C   UNL     1      10.526  16.664  19.344  0.00  0.00    +0.000 A 
ATOM     10  N   UNL     1       9.558  16.023  20.139  0.00  0.00    +0.000 N 
ATOM     11  C   UNL     1      10.082  15.567  21.453  0.00  0.00    +0.000 C 
ATOM     12  C   UNL     1       9.266  14.350  21.953  0.00  0.00    +0.000 C 
ATOM     13  C   UNL     1       7.794  14.456  21.564  0.00  0.00    +0.000 C 
ATOM     14  N   UNL     1       7.655  14.748  20.101  0.00  0.00    +0.000 N 
ATOM     15  C   UNL     1       6.621  15.806  19.848  0.00  0.00    +0.000 C 
ATOM     16  C   UNL     1       8.804  15.005  19.494  0.00  0.00    +0.000 C 
ENDROOT
BRANCH   1  20
ATOM     17  C   UNL     1       8.912   9.852  18.707  0.00  0.00    +0.000 A 
ATOM     18  C   UNL     1       8.401  10.658  17.694  0.00  0.00    +0.000 A 
ATOM     19  C   UNL     1       8.647  12.030  17.701  0.00  0.00    +0.000 A 
ATOM     20  C   UNL     1       9.363  12.638  18.749  0.00  0.00    +0.000 A 
ATOM     21  C   UNL     1       9.888  11.826  19.755  0.00  0.00    +0.000 A 
ATOM     22  C   UNL     1       9.661  10.436  19.732  0.00  0.00    +0.000 A 
BRANCH  17  24
ATOM     23  C   UNL     1       7.725   8.184  17.509  0.00  0.00    +0.000 C 
ATOM     24  O   UNL     1       8.566   8.536  18.597  0.00  0.00    +0.000 OA
ENDBRANCH  17  24
ENDBRANCH   1  20
TORSDOF 2
ENDMDL
