MODEL 1
REMARK VINA RESULT:      -6.4      0.000      0.000
REMARK  Name = 
REMARK  10 active torsions:
REMARK  status: ('A' for Active; 'I' for Inactive)
REMARK    1  A    between atoms: C_1  and  C_2
REMARK    2  A    between atoms: C_2  and  N_3
REMARK    3  A    between atoms: N_3  and  O_4
REMARK    4  A    between atoms: C_5  and  C_7
REMARK    5  A    between atoms: C_7  and  O_8
REMARK    6  A    between atoms: O_8  and  C_9
REMARK    7  A    between atoms: C_9  and  C_10
REMARK    8  A    between atoms: C_9  and  P_16
REMARK    9  A    between atoms: P_16  and  O_18
REMARK   10  A    between atoms: P_16  and  O_19
REMARK                            x       y       z     vdW  Elec       q    Type
REMARK                         _______ _______ _______ _____ _____    ______ ____
ROOT
ATOM      1  C   UNL     1       5.353   5.286  17.749  0.00  0.00    +0.000 C 
ENDROOT
BRANCH   1   2
ATOM      2  C   UNL     1       4.191   6.198  18.152  0.00  0.00    +0.000 A 
ATOM      3  C   UNL     1       3.469   5.946  19.334  0.00  0.00    +0.000 A 
ATOM      4  C   UNL     1       2.437   6.793  19.727  0.00  0.00    +0.000 A 
ATOM      5  C   UNL     1       2.108   7.903  18.946  0.00  0.00    +0.000 A 
ATOM      6  C   UNL     1       2.815   8.160  17.770  0.00  0.00    +0.000 A 
ATOM      7  C   UNL     1       3.854   7.314  17.376  0.00  0.00    +0.000 A 
ENDBRANCH   1   2
BRANCH   1   8
ATOM      8  P   UNL     1       6.921   5.920  18.448  0.00  0.00    +0.000 P 
ATOM      9  O   UNL     1       6.717   5.170  19.771  0.00  0.00    +0.000 OA
BRANCH   8  10
ATOM     10  O   UNL     1       7.829   4.921  17.508  0.00  0.00    +0.000 OA
ATOM     11  H   UNL     1       8.747   4.836  17.829  0.00  0.00    +0.000 HD
ENDBRANCH   8  10
BRANCH   8  12
ATOM     12  O   UNL     1       8.403   6.519  19.109  0.00  0.00    +0.000 OA
ATOM     13  H   UNL     1       8.875   5.690  19.342  0.00  0.00    +0.000 HD
ENDBRANCH   8  12
ENDBRANCH   1   8
BRANCH   1  14
ATOM     14  O   UNL     1       5.100   3.970  18.289  0.00  0.00    +0.000 OA
BRANCH  14  15
ATOM     15  C   UNL     1       4.416   3.131  17.356  0.00  0.00    +0.000 C 
BRANCH  15  17
ATOM     16  N   UNL     1       2.779   2.495  19.091  0.00  0.00    +0.000 N 
ATOM     17  C   UNL     1       2.969   2.873  17.783  0.00  0.00    +0.000 C 
ATOM     18  O   UNL     1       2.034   3.018  16.991  0.00  0.00    +0.000 OA
BRANCH  16  20
ATOM     19  C   UNL     1       0.845   3.408  20.349  0.00  0.00    +0.000 C 
ATOM     20  C   UNL     1       1.471   2.199  19.669  0.00  0.00    +0.000 C 
ENDBRANCH  16  20
BRANCH  16  21
ATOM     21  O   UNL     1       3.898   2.116  19.854  0.00  0.00    +0.000 OA
ATOM     22  H   UNL     1       3.939   2.758  20.583  0.00  0.00    +0.000 HD
ENDBRANCH  16  21
ENDBRANCH  15  17
ENDBRANCH  14  15
ENDBRANCH   1  14
TORSDOF 9
ENDMDL
MODEL 2
REMARK VINA RESULT:      -6.4      0.643      1.341
REMARK  Name = 
REMARK  10 active torsions:
REMARK  status: ('A' for Active; 'I' for Inactive)
REMARK    1  A    between atoms: C_1  and  C_2
REMARK    2  A    between atoms: C_2  and  N_3
REMARK    3  A    between atoms: N_3  and  O_4
REMARK    4  A    between atoms: C_5  and  C_7
REMARK    5  A    between atoms: C_7  and  O_8
REMARK    6  A    between atoms: O_8  and  C_9
REMARK    7  A    between atoms: C_9  and  C_10
REMARK    8  A    between atoms: C_9  and  P_16
REMARK    9  A    between atoms: P_16  and  O_18
REMARK   10  A    between atoms: P_16  and  O_19
REMARK                            x       y       z     vdW  Elec       q    Type
REMARK                         _______ _______ _______ _____ _____    ______ ____
ROOT
ATOM      1  C   UNL     1       5.476   5.325  17.691  0.00  0.00    +0.000 C 
ENDROOT
BRANCH   1   2
ATOM      2  C   UNL     1       4.303   6.182  18.175  0.00  0.00    +0.000 A 
ATOM      3  C   UNL     1       3.857   7.273  17.405  0.00  0.00    +0.000 A 
ATOM      4  C   UNL     1       2.767   8.032  17.820  0.00  0.00    +0.000 A 
ATOM      5  C   UNL     1       2.105   7.715  19.008  0.00  0.00    +0.000 A 
ATOM      6  C   UNL     1       2.541   6.636  19.779  0.00  0.00    +0.000 A 
ATOM      7  C   UNL     1       3.632   5.871  19.364  0.00  0.00    +0.000 A 
ENDBRANCH   1   2
BRANCH   1   8
ATOM      8  P   UNL     1       6.989   5.741  18.632  0.00  0.00    +0.000 P 
ATOM      9  O   UNL     1       7.675   4.423  18.249  0.00  0.00    +0.000 OA
BRANCH   8  10
ATOM     10  O   UNL     1       7.476   6.837  17.506  0.00  0.00    +0.000 OA
ATOM     11  H   UNL     1       8.316   7.274  17.747  0.00  0.00    +0.000 HD
ENDBRANCH   8  10
BRANCH   8  12
ATOM     12  O   UNL     1       8.419   6.135  19.522  0.00  0.00    +0.000 OA
ATOM     13  H   UNL     1       8.484   5.383  20.151  0.00  0.00    +0.000 HD
ENDBRANCH   8  12
ENDBRANCH   1   8
BRANCH   1  14
ATOM     14  O   UNL     1       5.146   3.938  17.927  0.00  0.00    +0.000 OA
BRANCH  14  15
ATOM     15  C   UNL     1       4.259   3.422  16.933  0.00  0.00    +0.000 C 
BRANCH  15  17
ATOM     16  N   UNL     1       2.864   2.382  18.685  0.00  0.00    +0.000 N 
ATOM     17  C   UNL     1       2.880   3.107  17.516  0.00  0.00    +0.000 C 
ATOM     18  O   UNL     1       1.848   3.502  16.967  0.00  0.00    +0.000 OA
BRANCH  16  20
ATOM     19  C   UNL     1       1.407   2.777  20.653  0.00  0.00    +0.000 C 
ATOM     20  C   UNL     1       1.642   1.983  19.378  0.00  0.00    +0.000 C 
ENDBRANCH  16  20
BRANCH  16  21
ATOM     21  O   UNL     1       4.054   1.764  19.112  0.00  0.00    +0.000 OA
ATOM     22  H   UNL     1       4.379   2.317  19.843  0.00  0.00    +0.000 HD
ENDBRANCH  16  21
ENDBRANCH  15  17
ENDBRANCH  14  15
ENDBRANCH   1  14
TORSDOF 9
ENDMDL
MODEL 3
REMARK VINA RESULT:      -6.3      2.441      3.662
REMARK  Name = 
REMARK  10 active torsions:
REMARK  status: ('A' for Active; 'I' for Inactive)
REMARK    1  A    between atoms: C_1  and  C_2
REMARK    2  A    between atoms: C_2  and  N_3
REMARK    3  A    between atoms: N_3  and  O_4
REMARK    4  A    between atoms: C_5  and  C_7
REMARK    5  A    between atoms: C_7  and  O_8
REMARK    6  A    between atoms: O_8  and  C_9
REMARK    7  A    between atoms: C_9  and  C_10
REMARK    8  A    between atoms: C_9  and  P_16
REMARK    9  A    between atoms: P_16  and  O_18
REMARK   10  A    between atoms: P_16  and  O_19
REMARK                            x       y       z     vdW  Elec       q    Type
REMARK                         _______ _______ _______ _____ _____    ______ ____
ROOT
ATOM      1  C   UNL     1       5.193   5.348  16.177  0.00  0.00    +0.000 C 
ENDROOT
BRANCH   1   2
ATOM      2  C   UNL     1       6.294   5.911  17.079  0.00  0.00    +0.000 A 
ATOM      3  C   UNL     1       6.720   7.245  16.929  0.00  0.00    +0.000 A 
ATOM      4  C   UNL     1       7.693   7.775  17.772  0.00  0.00    +0.000 A 
ATOM      5  C   UNL     1       8.256   6.984  18.774  0.00  0.00    +0.000 A 
ATOM      6  C   UNL     1       7.843   5.659  18.929  0.00  0.00    +0.000 A 
ATOM      7  C   UNL     1       6.864   5.126  18.088  0.00  0.00    +0.000 A 
ENDBRANCH   1   2
BRANCH   1   8
ATOM      8  P   UNL     1       5.934   4.431  14.777  0.00  0.00    +0.000 P 
ATOM      9  O   UNL     1       7.272   5.171  14.909  0.00  0.00    +0.000 OA
BRANCH   8  10
ATOM     10  O   UNL     1       6.097   3.058  15.668  0.00  0.00    +0.000 OA
ATOM     11  H   UNL     1       5.785   2.263  15.193  0.00  0.00    +0.000 HD
ENDBRANCH   8  10
BRANCH   8  12
ATOM     12  O   UNL     1       6.634   3.564  13.454  0.00  0.00    +0.000 OA
ATOM     13  H   UNL     1       6.991   4.291  12.898  0.00  0.00    +0.000 HD
ENDBRANCH   8  12
ENDBRANCH   1   8
BRANCH   1  14
ATOM     14  O   UNL     1       4.393   4.435  16.961  0.00  0.00    +0.000 OA
BRANCH  14  15
ATOM     15  C   UNL     1       3.296   5.095  17.597  0.00  0.00    +0.000 C 
BRANCH  15  17
ATOM     16  N   UNL     1       2.616   3.395  19.254  0.00  0.00    +0.000 N 
ATOM     17  C   UNL     1       2.265   4.095  18.124  0.00  0.00    +0.000 C 
ATOM     18  O   UNL     1       1.175   3.948  17.565  0.00  0.00    +0.000 OA
BRANCH  16  20
ATOM     19  C   UNL     1       1.334   2.799  21.292  0.00  0.00    +0.000 C 
ATOM     20  C   UNL     1       1.763   2.396  19.890  0.00  0.00    +0.000 C 
ENDBRANCH  16  20
BRANCH  16  21
ATOM     21  O   UNL     1       3.955   3.437  19.685  0.00  0.00    +0.000 OA
ATOM     22  H   UNL     1       4.375   4.127  19.144  0.00  0.00    +0.000 HD
ENDBRANCH  16  21
ENDBRANCH  15  17
ENDBRANCH  14  15
ENDBRANCH   1  14
TORSDOF 9
ENDMDL
MODEL 4
REMARK VINA RESULT:      -6.3      2.636      4.735
REMARK  Name = 
REMARK  10 active torsions:
REMARK  status: ('A' for Active; 'I' for Inactive)
REMARK    1  A    between atoms: C_1  and  C_2
REMARK    2  A    between atoms: C_2  and  N_3
REMARK    3  A    between atoms: N_3  and  O_4
REMARK    4  A    between atoms: C_5  and  C_7
REMARK    5  A    between atoms: C_7  and  O_8
REMARK    6  A    between atoms: O_8  and  C_9
REMARK    7  A    between atoms: C_9  and  C_10
REMARK    8  A    between atoms: C_9  and  P_16
REMARK    9  A    between atoms: P_16  and  O_18
REMARK   10  A    between atoms: P_16  and  O_19
REMARK                            x       y       z     vdW  Elec       q    Type
REMARK                         _______ _______ _______ _____ _____    ______ ____
ROOT
ATOM      1  C   UNL     1       4.214   4.407  18.820  0.00  0.00    +0.000 C 
ENDROOT
BRANCH   1   2
ATOM      2  C   UNL     1       3.316   5.610  19.119  0.00  0.00    +0.000 A 
ATOM      3  C   UNL     1       2.564   5.655  20.308  0.00  0.00    +0.000 A 
ATOM      4  C   UNL     1       1.775   6.763  20.605  0.00  0.00    +0.000 A 
ATOM      5  C   UNL     1       1.724   7.842  19.721  0.00  0.00    +0.000 A 
ATOM      6  C   UNL     1       2.464   7.806  18.537  0.00  0.00    +0.000 A 
ATOM      7  C   UNL     1       3.259   6.698  18.239  0.00  0.00    +0.000 A 
ENDBRANCH   1   2
BRANCH   1   8
ATOM      8  P   UNL     1       3.219   2.872  18.788  0.00  0.00    +0.000 P 
ATOM      9  O   UNL     1       3.227   2.814  17.255  0.00  0.00    +0.000 OA
BRANCH   8  10
ATOM     10  O   UNL     1       4.492   1.950  19.272  0.00  0.00    +0.000 OA
ATOM     11  H   UNL     1       5.120   2.443  19.836  0.00  0.00    +0.000 HD
ENDBRANCH   8  10
BRANCH   8  12
ATOM     12  O   UNL     1       2.279   1.420  18.758  0.00  0.00    +0.000 OA
ATOM     13  H   UNL     1       1.822   1.452  19.627  0.00  0.00    +0.000 HD
ENDBRANCH   8  12
ENDBRANCH   1   8
BRANCH   1  14
ATOM     14  O   UNL     1       4.809   4.604  17.518  0.00  0.00    +0.000 OA
BRANCH  14  15
ATOM     15  C   UNL     1       6.222   4.810  17.601  0.00  0.00    +0.000 C 
BRANCH  15  17
ATOM     16  N   UNL     1       6.501   4.277  15.206  0.00  0.00    +0.000 N 
ATOM     17  C   UNL     1       6.825   5.133  16.232  0.00  0.00    +0.000 C 
ATOM     18  O   UNL     1       7.548   6.120  16.070  0.00  0.00    +0.000 OA
BRANCH  16  20
ATOM     19  C   UNL     1       6.193   3.604  12.839  0.00  0.00    +0.000 C 
ATOM     20  C   UNL     1       6.993   4.424  13.839  0.00  0.00    +0.000 C 
ENDBRANCH  16  20
BRANCH  16  21
ATOM     21  O   UNL     1       5.883   3.052  15.518  0.00  0.00    +0.000 OA
ATOM     22  H   UNL     1       5.986   2.505  14.721  0.00  0.00    +0.000 HD
ENDBRANCH  16  21
ENDBRANCH  15  17
ENDBRANCH  14  15
ENDBRANCH   1  14
TORSDOF 9
ENDMDL
MODEL 5
REMARK VINA RESULT:      -6.3      3.189      4.578
REMARK  Name = 
REMARK  10 active torsions:
REMARK  status: ('A' for Active; 'I' for Inactive)
REMARK    1  A    between atoms: C_1  and  C_2
REMARK    2  A    between atoms: C_2  and  N_3
REMARK    3  A    between atoms: N_3  and  O_4
REMARK    4  A    between atoms: C_5  and  C_7
REMARK    5  A    between atoms: C_7  and  O_8
REMARK    6  A    between atoms: O_8  and  C_9
REMARK    7  A    between atoms: C_9  and  C_10
REMARK    8  A    between atoms: C_9  and  P_16
REMARK    9  A    between atoms: P_16  and  O_18
REMARK   10  A    between atoms: P_16  and  O_19
REMARK                            x       y       z     vdW  Elec       q    Type
REMARK                         _______ _______ _______ _____ _____    ______ ____
ROOT
ATOM      1  C   UNL     1       6.549   5.785  17.471  0.00  0.00    +0.000 C 
ENDROOT
BRANCH   1   2
ATOM      2  C   UNL     1       5.034   5.676  17.659  0.00  0.00    +0.000 A 
ATOM      3  C   UNL     1       4.432   4.419  17.858  0.00  0.00    +0.000 A 
ATOM      4  C   UNL     1       3.060   4.317  18.069  0.00  0.00    +0.000 A 
ATOM      5  C   UNL     1       2.267   5.466  18.083  0.00  0.00    +0.000 A 
ATOM      6  C   UNL     1       2.853   6.717  17.884  0.00  0.00    +0.000 A 
ATOM      7  C   UNL     1       4.230   6.823  17.676  0.00  0.00    +0.000 A 
ENDBRANCH   1   2
BRANCH   1   8
ATOM      8  P   UNL     1       7.396   5.621  19.084  0.00  0.00    +0.000 P 
ATOM      9  O   UNL     1       8.265   4.456  18.590  0.00  0.00    +0.000 OA
BRANCH   8  10
ATOM     10  O   UNL     1       8.291   6.978  18.835  0.00  0.00    +0.000 OA
ATOM     11  H   UNL     1       8.153   7.360  17.947  0.00  0.00    +0.000 HD
ENDBRANCH   8  10
BRANCH   8  12
ATOM     12  O   UNL     1       8.197   5.466  20.610  0.00  0.00    +0.000 OA
ATOM     13  H   UNL     1       7.565   4.913  21.119  0.00  0.00    +0.000 HD
ENDBRANCH   8  12
ENDBRANCH   1   8
BRANCH   1  14
ATOM     14  O   UNL     1       6.973   4.704  16.610  0.00  0.00    +0.000 OA
BRANCH  14  15
ATOM     15  C   UNL     1       6.953   5.080  15.230  0.00  0.00    +0.000 C 
BRANCH  15  17
ATOM     16  N   UNL     1       6.631   3.932  13.068  0.00  0.00    +0.000 N 
ATOM     17  C   UNL     1       6.217   4.047  14.375  0.00  0.00    +0.000 C 
ATOM     18  O   UNL     1       5.316   3.350  14.849  0.00  0.00    +0.000 OA
BRANCH  16  20
ATOM     19  C   UNL     1       4.647   3.434  11.667  0.00  0.00    +0.000 C 
ATOM     20  C   UNL     1       6.039   3.007  12.106  0.00  0.00    +0.000 C 
ENDBRANCH  16  20
BRANCH  16  21
ATOM     21  O   UNL     1       7.484   4.919  12.541  0.00  0.00    +0.000 OA
ATOM     22  H   UNL     1       8.372   4.686  12.861  0.00  0.00    +0.000 HD
ENDBRANCH  16  21
ENDBRANCH  15  17
ENDBRANCH  14  15
ENDBRANCH   1  14
TORSDOF 9
ENDMDL
MODEL 6
REMARK VINA RESULT:      -6.3      0.811      1.357
REMARK  Name = 
REMARK  10 active torsions:
REMARK  status: ('A' for Active; 'I' for Inactive)
REMARK    1  A    between atoms: C_1  and  C_2
REMARK    2  A    between atoms: C_2  and  N_3
REMARK    3  A    between atoms: N_3  and  O_4
REMARK    4  A    between atoms: C_5  and  C_7
REMARK    5  A    between atoms: C_7  and  O_8
REMARK    6  A    between atoms: O_8  and  C_9
REMARK    7  A    between atoms: C_9  and  C_10
REMARK    8  A    between atoms: C_9  and  P_16
REMARK    9  A    between atoms: P_16  and  O_18
REMARK   10  A    between atoms: P_16  and  O_19
REMARK                            x       y       z     vdW  Elec       q    Type
REMARK                         _______ _______ _______ _____ _____    ______ ____
ROOT
ATOM      1  C   UNL     1       5.438   5.445  17.491  0.00  0.00    +0.000 C 
ENDROOT
BRANCH   1   2
ATOM      2  C   UNL     1       4.236   6.195  18.072  0.00  0.00    +0.000 A 
ATOM      3  C   UNL     1       3.710   5.829  19.325  0.00  0.00    +0.000 A 
ATOM      4  C   UNL     1       2.642   6.531  19.877  0.00  0.00    +0.000 A 
ATOM      5  C   UNL     1       2.083   7.609  19.188  0.00  0.00    +0.000 A 
ATOM      6  C   UNL     1       2.596   7.979  17.943  0.00  0.00    +0.000 A 
ATOM      7  C   UNL     1       3.669   7.278  17.389  0.00  0.00    +0.000 A 
ENDBRANCH   1   2
BRANCH   1   8
ATOM      8  P   UNL     1       6.987   6.059  18.248  0.00  0.00    +0.000 P 
ATOM      9  O   UNL     1       7.557   4.642  18.400  0.00  0.00    +0.000 OA
BRANCH   8  10
ATOM     10  O   UNL     1       7.557   6.613  16.808  0.00  0.00    +0.000 OA
ATOM     11  H   UNL     1       7.930   5.901  16.253  0.00  0.00    +0.000 HD
ENDBRANCH   8  10
BRANCH   8  12
ATOM     12  O   UNL     1       8.452   6.638  18.963  0.00  0.00    +0.000 OA
ATOM     13  H   UNL     1       8.380   7.608  18.823  0.00  0.00    +0.000 HD
ENDBRANCH   8  12
ENDBRANCH   1   8
BRANCH   1  14
ATOM     14  O   UNL     1       5.288   4.044  17.808  0.00  0.00    +0.000 OA
BRANCH  14  15
ATOM     15  C   UNL     1       4.221   3.440  17.072  0.00  0.00    +0.000 C 
BRANCH  15  17
ATOM     16  N   UNL     1       1.956   2.958  17.930  0.00  0.00    +0.000 N 
ATOM     17  C   UNL     1       3.292   2.635  17.983  0.00  0.00    +0.000 C 
ATOM     18  O   UNL     1       3.729   1.737  18.708  0.00  0.00    +0.000 OA
BRANCH  16  20
ATOM     19  C   UNL     1       0.724   2.977  20.083  0.00  0.00    +0.000 C 
ATOM     20  C   UNL     1       0.929   2.303  18.735  0.00  0.00    +0.000 C 
ENDBRANCH  16  20
BRANCH  16  21
ATOM     21  O   UNL     1       1.574   4.143  17.275  0.00  0.00    +0.000 OA
ATOM     22  H   UNL     1       0.642   4.008  17.030  0.00  0.00    +0.000 HD
ENDBRANCH  16  21
ENDBRANCH  15  17
ENDBRANCH  14  15
ENDBRANCH   1  14
TORSDOF 9
ENDMDL
MODEL 7
REMARK VINA RESULT:      -6.3      0.790      1.743
REMARK  Name = 
REMARK  10 active torsions:
REMARK  status: ('A' for Active; 'I' for Inactive)
REMARK    1  A    between atoms: C_1  and  C_2
REMARK    2  A    between atoms: C_2  and  N_3
REMARK    3  A    between atoms: N_3  and  O_4
REMARK    4  A    between atoms: C_5  and  C_7
REMARK    5  A    between atoms: C_7  and  O_8
REMARK    6  A    between atoms: O_8  and  C_9
REMARK    7  A    between atoms: C_9  and  C_10
REMARK    8  A    between atoms: C_9  and  P_16
REMARK    9  A    between atoms: P_16  and  O_18
REMARK   10  A    between atoms: P_16  and  O_19
REMARK                            x       y       z     vdW  Elec       q    Type
REMARK                         _______ _______ _______ _____ _____    ______ ____
ROOT
ATOM      1  C   UNL     1       5.453   5.440  17.563  0.00  0.00    +0.000 C 
ENDROOT
BRANCH   1   2
ATOM      2  C   UNL     1       4.264   6.222  18.126  0.00  0.00    +0.000 A 
ATOM      3  C   UNL     1       3.710   7.292  17.398  0.00  0.00    +0.000 A 
ATOM      4  C   UNL     1       2.604   7.982  17.886  0.00  0.00    +0.000 A 
ATOM      5  C   UNL     1       2.036   7.618  19.108  0.00  0.00    +0.000 A 
ATOM      6  C   UNL     1       2.580   6.561  19.840  0.00  0.00    +0.000 A 
ATOM      7  C   UNL     1       3.686   5.864  19.350  0.00  0.00    +0.000 A 
ENDBRANCH   1   2
BRANCH   1   8
ATOM      8  P   UNL     1       7.016   6.071  18.276  0.00  0.00    +0.000 P 
ATOM      9  O   UNL     1       7.601   4.660  18.425  0.00  0.00    +0.000 OA
BRANCH   8  10
ATOM     10  O   UNL     1       7.546   6.619  16.819  0.00  0.00    +0.000 OA
ATOM     11  H   UNL     1       6.918   7.241  16.401  0.00  0.00    +0.000 HD
ENDBRANCH   8  10
BRANCH   8  12
ATOM     12  O   UNL     1       8.493   6.667  18.951  0.00  0.00    +0.000 OA
ATOM     13  H   UNL     1       8.753   5.938  19.555  0.00  0.00    +0.000 HD
ENDBRANCH   8  12
ENDBRANCH   1   8
BRANCH   1  14
ATOM     14  O   UNL     1       5.296   4.053  17.937  0.00  0.00    +0.000 OA
BRANCH  14  15
ATOM     15  C   UNL     1       4.284   3.402  17.166  0.00  0.00    +0.000 C 
BRANCH  15  17
ATOM     16  N   UNL     1       1.992   2.931  17.955  0.00  0.00    +0.000 N 
ATOM     17  C   UNL     1       3.325   2.605  18.052  0.00  0.00    +0.000 C 
ATOM     18  O   UNL     1       3.737   1.710  18.795  0.00  0.00    +0.000 OA
BRANCH  16  20
ATOM     19  C   UNL     1       0.660   2.994  20.046  0.00  0.00    +0.000 C 
ATOM     20  C   UNL     1       0.939   2.283  18.731  0.00  0.00    +0.000 C 
ENDBRANCH  16  20
BRANCH  16  21
ATOM     21  O   UNL     1       1.634   4.113  17.281  0.00  0.00    +0.000 OA
ATOM     22  H   UNL     1       2.262   4.184  16.542  0.00  0.00    +0.000 HD
ENDBRANCH  16  21
ENDBRANCH  15  17
ENDBRANCH  14  15
ENDBRANCH   1  14
TORSDOF 9
ENDMDL
MODEL 8
REMARK VINA RESULT:      -6.3      2.987      4.711
REMARK  Name = 
REMARK  10 active torsions:
REMARK  status: ('A' for Active; 'I' for Inactive)
REMARK    1  A    between atoms: C_1  and  C_2
REMARK    2  A    between atoms: C_2  and  N_3
REMARK    3  A    between atoms: N_3  and  O_4
REMARK    4  A    between atoms: C_5  and  C_7
REMARK    5  A    between atoms: C_7  and  O_8
REMARK    6  A    between atoms: O_8  and  C_9
REMARK    7  A    between atoms: C_9  and  C_10
REMARK    8  A    between atoms: C_9  and  P_16
REMARK    9  A    between atoms: P_16  and  O_18
REMARK   10  A    between atoms: P_16  and  O_19
REMARK                            x       y       z     vdW  Elec       q    Type
REMARK                         _______ _______ _______ _____ _____    ______ ____
ROOT
ATOM      1  C   UNL     1       6.237   5.920  17.730  0.00  0.00    +0.000 C 
ENDROOT
BRANCH   1   2
ATOM      2  C   UNL     1       4.815   5.407  17.970  0.00  0.00    +0.000 A 
ATOM      3  C   UNL     1       3.734   6.308  18.017  0.00  0.00    +0.000 A 
ATOM      4  C   UNL     1       2.434   5.844  18.195  0.00  0.00    +0.000 A 
ATOM      5  C   UNL     1       2.191   4.476  18.331  0.00  0.00    +0.000 A 
ATOM      6  C   UNL     1       3.256   3.574  18.288  0.00  0.00    +0.000 A 
ATOM      7  C   UNL     1       4.561   4.036  18.105  0.00  0.00    +0.000 A 
ENDBRANCH   1   2
BRANCH   1   8
ATOM      8  P   UNL     1       7.281   5.586  19.195  0.00  0.00    +0.000 P 
ATOM      9  O   UNL     1       8.008   4.426  18.502  0.00  0.00    +0.000 OA
BRANCH   8  10
ATOM     10  O   UNL     1       8.211   6.916  18.927  0.00  0.00    +0.000 OA
ATOM     11  H   UNL     1       8.623   7.257  19.744  0.00  0.00    +0.000 HD
ENDBRANCH   8  10
BRANCH   8  12
ATOM     12  O   UNL     1       8.268   5.270  20.581  0.00  0.00    +0.000 OA
ATOM     13  H   UNL     1       8.259   6.137  21.042  0.00  0.00    +0.000 HD
ENDBRANCH   8  12
ENDBRANCH   1   8
BRANCH   1  14
ATOM     14  O   UNL     1       6.785   5.211  16.596  0.00  0.00    +0.000 OA
BRANCH  14  15
ATOM     15  C   UNL     1       6.823   6.027  15.423  0.00  0.00    +0.000 C 
BRANCH  15  17
ATOM     16  N   UNL     1       6.181   4.291  13.789  0.00  0.00    +0.000 N 
ATOM     17  C   UNL     1       7.136   5.203  14.173  0.00  0.00    +0.000 C 
ATOM     18  O   UNL     1       8.184   5.370  13.543  0.00  0.00    +0.000 OA
BRANCH  16  20
ATOM     19  C   UNL     1       5.000   3.224  11.887  0.00  0.00    +0.000 C 
ATOM     20  C   UNL     1       6.313   3.414  12.630  0.00  0.00    +0.000 C 
ENDBRANCH  16  20
BRANCH  16  21
ATOM     21  O   UNL     1       5.139   3.987  14.685  0.00  0.00    +0.000 OA
ATOM     22  H   UNL     1       4.775   4.848  14.953  0.00  0.00    +0.000 HD
ENDBRANCH  16  21
ENDBRANCH  15  17
ENDBRANCH  14  15
ENDBRANCH   1  14
TORSDOF 9
ENDMDL
MODEL 9
REMARK VINA RESULT:      -6.3      2.397      3.478
REMARK  Name = 
REMARK  10 active torsions:
REMARK  status: ('A' for Active; 'I' for Inactive)
REMARK    1  A    between atoms: C_1  and  C_2
REMARK    2  A    between atoms: C_2  and  N_3
REMARK    3  A    between atoms: N_3  and  O_4
REMARK    4  A    between atoms: C_5  and  C_7
REMARK    5  A    between atoms: C_7  and  O_8
REMARK    6  A    between atoms: O_8  and  C_9
REMARK    7  A    between atoms: C_9  and  C_10
REMARK    8  A    between atoms: C_9  and  P_16
REMARK    9  A    between atoms: P_16  and  O_18
REMARK   10  A    between atoms: P_16  and  O_19
REMARK                            x       y       z     vdW  Elec       q    Type
REMARK                         _______ _______ _______ _____ _____    ______ ____
ROOT
ATOM      1  C   UNL     1       5.133   5.497  16.352  0.00  0.00    +0.000 C 
ENDROOT
BRANCH   1   2
ATOM      2  C   UNL     1       6.238   6.089  17.231  0.00  0.00    +0.000 A 
ATOM      3  C   UNL     1       6.800   5.328  18.272  0.00  0.00    +0.000 A 
ATOM      4  C   UNL     1       7.832   5.846  19.050  0.00  0.00    +0.000 A 
ATOM      5  C   UNL     1       8.317   7.131  18.801  0.00  0.00    +0.000 A 
ATOM      6  C   UNL     1       7.764   7.896  17.772  0.00  0.00    +0.000 A 
ATOM      7  C   UNL     1       6.732   7.377  16.988  0.00  0.00    +0.000 A 
ENDBRANCH   1   2
BRANCH   1   8
ATOM      8  P   UNL     1       5.868   4.510  14.997  0.00  0.00    +0.000 P 
ATOM      9  O   UNL     1       7.223   5.221  15.119  0.00  0.00    +0.000 OA
BRANCH   8  10
ATOM     10  O   UNL     1       5.986   3.168  15.940  0.00  0.00    +0.000 OA
ATOM     11  H   UNL     1       6.584   2.495  15.561  0.00  0.00    +0.000 HD
ENDBRANCH   8  10
BRANCH   8  12
ATOM     12  O   UNL     1       6.563   3.578  13.716  0.00  0.00    +0.000 OA
ATOM     13  H   UNL     1       7.507   3.532  13.984  0.00  0.00    +0.000 HD
ENDBRANCH   8  12
ENDBRANCH   1   8
BRANCH   1  14
ATOM     14  O   UNL     1       4.323   4.627  17.174  0.00  0.00    +0.000 OA
BRANCH  14  15
ATOM     15  C   UNL     1       3.157   5.292  17.669  0.00  0.00    +0.000 C 
BRANCH  15  17
ATOM     16  N   UNL     1       2.306   3.671  19.325  0.00  0.00    +0.000 N 
ATOM     17  C   UNL     1       2.088   4.294  18.119  0.00  0.00    +0.000 C 
ATOM     18  O   UNL     1       1.083   4.084  17.435  0.00  0.00    +0.000 OA
BRANCH  16  20
ATOM     19  C   UNL     1       1.378   2.734  21.426  0.00  0.00    +0.000 C 
ATOM     20  C   UNL     1       1.399   2.685  19.906  0.00  0.00    +0.000 C 
ENDBRANCH  16  20
BRANCH  16  21
ATOM     21  O   UNL     1       3.577   3.776  19.920  0.00  0.00    +0.000 OA
ATOM     22  H   UNL     1       4.183   3.984  19.189  0.00  0.00    +0.000 HD
ENDBRANCH  16  21
ENDBRANCH  15  17
ENDBRANCH  14  15
ENDBRANCH   1  14
TORSDOF 9
ENDMDL
