MODEL 1
REMARK VINA RESULT:      -6.7      0.000      0.000
REMARK  Name = 
REMARK  11 active torsions:
REMARK  status: ('A' for Active; 'I' for Inactive)
REMARK    1  A    between atoms: C_1  and  C_2
REMARK    2  A    between atoms: C_2  and  N_3
REMARK    3  A    between atoms: N_3  and  C_4
REMARK    4  A    between atoms: C_4  and  C_5
REMARK    5  A    between atoms: C_7  and  C_8
REMARK    6  A    between atoms: C_7  and  C_10
REMARK    7  A    between atoms: C_8  and  C_9
REMARK    8  A    between atoms: C_10  and  O_12
REMARK    9  A    between atoms: O_12  and  C_13
REMARK   10  A    between atoms: N_17  and  C_18
REMARK   11  A    between atoms: N_24  and  C_25
REMARK                            x       y       z     vdW  Elec       q    Type
REMARK                         _______ _______ _______ _____ _____    ______ ____
ROOT
ATOM      1  C   UNL     1      -3.934  12.801  21.886  0.00  0.00    +0.000 C 
ATOM      2  N   UNL     1      -2.748  13.351  21.159  0.00  0.00    +0.000 NA
ATOM      3  C   UNL     1      -1.565  13.107  22.077  0.00  0.00    +0.000 C 
ATOM      4  C   UNL     1      -2.154  13.266  23.489  0.00  0.00    +0.000 C 
ATOM      5  C   UNL     1      -1.944  14.568  24.260  0.00  0.00    +0.000 C 
ATOM      6  O   UNL     1      -0.881  14.898  24.766  0.00  0.00    +0.000 OA
ATOM      7  N   UNL     1      -3.112  15.258  24.306  0.00  0.00    +0.000 N 
ATOM      8  C   UNL     1      -3.357  16.506  24.988  0.00  0.00    +0.000 C 
ATOM      9  C   UNL     1      -4.104  14.654  23.605  0.00  0.00    +0.000 C 
ATOM     10  O   UNL     1      -5.173  15.161  23.314  0.00  0.00    +0.000 OA
ATOM     11  C   UNL     1      -3.669  13.252  23.305  0.00  0.00    +0.000 C 
ATOM     12  H   UNL     1      -2.839  14.359  21.003  0.00  0.00    +0.000 HD
ENDROOT
BRANCH   3  13
ATOM     13  C   UNL     1      -1.052  11.655  21.813  0.00  0.00    +0.000 C 
ATOM     14  C   UNL     1      -1.000  10.762  23.055  0.00  0.00    +0.000 C 
ENDBRANCH   3  13
BRANCH   3  15
ATOM     15  C   UNL     1      -0.390  14.095  21.875  0.00  0.00    +0.000 C 
ATOM     16  O   UNL     1       0.773  13.878  22.182  0.00  0.00    +0.000 OA
BRANCH  15  17
ATOM     17  O   UNL     1      -0.859  15.214  21.245  0.00  0.00    +0.000 OA
ATOM     18  C   UNL     1      -0.070  15.787  20.201  0.00  0.00    +0.000 C 
ENDBRANCH  15  17
ENDBRANCH   3  15
BRANCH   1  19
ATOM     19  C   UNL     1      -5.347  13.101  21.295  0.00  0.00    +0.000 C 
BRANCH  19  20
ATOM     20  N   UNL     1      -6.120  11.989  20.656  0.00  0.00    +0.000 N 
ATOM     21  C   UNL     1      -5.744  11.361  19.465  0.00  0.00    +0.000 C 
ATOM     22  O   UNL     1      -6.491  10.543  18.924  0.00  0.00    +0.000 OA
ATOM     23  N   UNL     1      -4.496  11.661  18.978  0.00  0.00    +0.000 N 
ATOM     24  H   UNL     1      -3.807  11.919  19.666  0.00  0.00    +0.000 HD
BRANCH  23  25
ATOM     25  C   UNL     1      -3.999  11.123  17.768  0.00  0.00    +0.000 A 
ATOM     26  C   UNL     1      -2.973  10.169  17.733  0.00  0.00    +0.000 A 
ATOM     27  C   UNL     1      -2.441   9.733  16.521  0.00  0.00    +0.000 A 
ATOM     28  C   UNL     1      -2.954  10.238  15.338  0.00  0.00    +0.000 A 
ATOM     29  F   UNL     1      -2.424   9.850  14.172  0.00  0.00    +0.000 F 
ATOM     30  C   UNL     1      -4.005  11.143  15.345  0.00  0.00    +0.000 A 
ATOM     31  C   UNL     1      -4.543  11.580  16.562  0.00  0.00    +0.000 A 
ENDBRANCH  23  25
BRANCH  20  33
ATOM     32  C   UNL     1      -7.821  12.059  22.539  0.00  0.00    +0.000 C 
ATOM     33  C   UNL     1      -7.432  11.541  21.150  0.00  0.00    +0.000 C 
ENDBRANCH  20  33
ENDBRANCH  19  20
ENDBRANCH   1  19
TORSDOF 7
ENDMDL
MODEL 2
REMARK VINA RESULT:      -6.4      5.185      7.228
REMARK  Name = 
REMARK  11 active torsions:
REMARK  status: ('A' for Active; 'I' for Inactive)
REMARK    1  A    between atoms: C_1  and  C_2
REMARK    2  A    between atoms: C_2  and  N_3
REMARK    3  A    between atoms: N_3  and  C_4
REMARK    4  A    between atoms: C_4  and  C_5
REMARK    5  A    between atoms: C_7  and  C_8
REMARK    6  A    between atoms: C_7  and  C_10
REMARK    7  A    between atoms: C_8  and  C_9
REMARK    8  A    between atoms: C_10  and  O_12
REMARK    9  A    between atoms: O_12  and  C_13
REMARK   10  A    between atoms: N_17  and  C_18
REMARK   11  A    between atoms: N_24  and  C_25
REMARK                            x       y       z     vdW  Elec       q    Type
REMARK                         _______ _______ _______ _____ _____    ______ ____
ROOT
ATOM      1  C   UNL     1       0.533  11.263  19.880  0.00  0.00    +0.000 C 
ATOM      2  N   UNL     1       0.859  11.945  21.170  0.00  0.00    +0.000 NA
ATOM      3  C   UNL     1       0.083  13.248  21.144  0.00  0.00    +0.000 C 
ATOM      4  C   UNL     1       0.089  13.652  19.660  0.00  0.00    +0.000 C 
ATOM      5  C   UNL     1       1.068  14.715  19.164  0.00  0.00    +0.000 C 
ATOM      6  O   UNL     1       0.952  15.911  19.394  0.00  0.00    +0.000 OA
ATOM      7  N   UNL     1       2.041  14.123  18.426  0.00  0.00    +0.000 N 
ATOM      8  C   UNL     1       3.122  14.778  17.730  0.00  0.00    +0.000 C 
ATOM      9  C   UNL     1       1.925  12.772  18.396  0.00  0.00    +0.000 C 
ATOM     10  O   UNL     1       2.773  11.999  17.987  0.00  0.00    +0.000 OA
ATOM     11  C   UNL     1       0.560  12.415  18.900  0.00  0.00    +0.000 C 
ATOM     12  H   UNL     1       1.858  12.161  21.238  0.00  0.00    +0.000 HD
ENDROOT
BRANCH   3  13
ATOM     13  C   UNL     1      -1.360  12.952  21.666  0.00  0.00    +0.000 C 
ATOM     14  C   UNL     1      -1.415  12.146  22.967  0.00  0.00    +0.000 C 
ENDBRANCH   3  13
BRANCH   3  15
ATOM     15  C   UNL     1       0.703  14.374  22.007  0.00  0.00    +0.000 C 
ATOM     16  O   UNL     1       1.895  14.500  22.250  0.00  0.00    +0.000 OA
BRANCH  15  17
ATOM     17  O   UNL     1      -0.290  15.230  22.394  0.00  0.00    +0.000 OA
ATOM     18  C   UNL     1       0.080  16.500  22.934  0.00  0.00    +0.000 C 
ENDBRANCH  15  17
ENDBRANCH   3  15
BRANCH   1  19
ATOM     19  C   UNL     1       1.356   9.991  19.506  0.00  0.00    +0.000 C 
BRANCH  19  20
ATOM     20  N   UNL     1       1.412   8.850  20.474  0.00  0.00    +0.000 N 
ATOM     21  C   UNL     1       1.810   7.555  20.131  0.00  0.00    +0.000 C 
ATOM     22  O   UNL     1       1.710   6.631  20.942  0.00  0.00    +0.000 OA
ATOM     23  N   UNL     1       2.361   7.389  18.884  0.00  0.00    +0.000 N 
ATOM     24  H   UNL     1       2.834   8.193  18.504  0.00  0.00    +0.000 HD
BRANCH  23  25
ATOM     25  C   UNL     1       2.778   6.129  18.395  0.00  0.00    +0.000 A 
ATOM     26  C   UNL     1       1.873   5.164  17.935  0.00  0.00    +0.000 A 
ATOM     27  C   UNL     1       2.310   3.897  17.552  0.00  0.00    +0.000 A 
ATOM     28  C   UNL     1       3.663   3.605  17.607  0.00  0.00    +0.000 A 
ATOM     29  F   UNL     1       4.086   2.379  17.273  0.00  0.00    +0.000 F 
ATOM     30  C   UNL     1       4.584   4.561  18.008  0.00  0.00    +0.000 A 
ATOM     31  C   UNL     1       4.147   5.835  18.391  0.00  0.00    +0.000 A 
ENDBRANCH  23  25
BRANCH  20  33
ATOM     32  C   UNL     1      -0.581   8.683  22.038  0.00  0.00    +0.000 C 
ATOM     33  C   UNL     1       0.918   8.949  21.856  0.00  0.00    +0.000 C 
ENDBRANCH  20  33
ENDBRANCH  19  20
ENDBRANCH   1  19
TORSDOF 7
ENDMDL
MODEL 3
REMARK VINA RESULT:      -6.4      7.219     10.152
REMARK  Name = 
REMARK  11 active torsions:
REMARK  status: ('A' for Active; 'I' for Inactive)
REMARK    1  A    between atoms: C_1  and  C_2
REMARK    2  A    between atoms: C_2  and  N_3
REMARK    3  A    between atoms: N_3  and  C_4
REMARK    4  A    between atoms: C_4  and  C_5
REMARK    5  A    between atoms: C_7  and  C_8
REMARK    6  A    between atoms: C_7  and  C_10
REMARK    7  A    between atoms: C_8  and  C_9
REMARK    8  A    between atoms: C_10  and  O_12
REMARK    9  A    between atoms: O_12  and  C_13
REMARK   10  A    between atoms: N_17  and  C_18
REMARK   11  A    between atoms: N_24  and  C_25
REMARK                            x       y       z     vdW  Elec       q    Type
REMARK                         _______ _______ _______ _____ _____    ______ ____
ROOT
ATOM      1  C   UNL     1       2.294   6.990  19.663  0.00  0.00    +0.000 C 
ATOM      2  N   UNL     1       1.637   5.718  19.233  0.00  0.00    +0.000 NA
ATOM      3  C   UNL     1       2.680   4.636  19.441  0.00  0.00    +0.000 C 
ATOM      4  C   UNL     1       4.012   5.341  19.130  0.00  0.00    +0.000 C 
ATOM      5  C   UNL     1       4.683   5.137  17.772  0.00  0.00    +0.000 C 
ATOM      6  O   UNL     1       5.257   4.109  17.442  0.00  0.00    +0.000 OA
ATOM      7  N   UNL     1       4.558   6.268  17.032  0.00  0.00    +0.000 N 
ATOM      8  C   UNL     1       5.102   6.511  15.719  0.00  0.00    +0.000 C 
ATOM      9  C   UNL     1       3.821   7.222  17.656  0.00  0.00    +0.000 C 
ATOM     10  O   UNL     1       3.388   8.234  17.134  0.00  0.00    +0.000 OA
ATOM     11  C   UNL     1       3.688   6.832  19.097  0.00  0.00    +0.000 C 
ATOM     12  H   UNL     1       1.386   5.743  18.240  0.00  0.00    +0.000 HD
ENDROOT
BRANCH   3  13
ATOM     13  C   UNL     1       2.595   4.174  20.931  0.00  0.00    +0.000 C 
ATOM     14  C   UNL     1       1.332   3.384  21.282  0.00  0.00    +0.000 C 
ENDBRANCH   3  13
BRANCH   3  15
ATOM     15  C   UNL     1       2.505   3.400  18.525  0.00  0.00    +0.000 C 
ATOM     16  O   UNL     1       1.904   3.391  17.460  0.00  0.00    +0.000 OA
BRANCH  15  17
ATOM     17  O   UNL     1       3.181   2.346  19.075  0.00  0.00    +0.000 OA
ATOM     18  C   UNL     1       3.608   1.289  18.212  0.00  0.00    +0.000 C 
ENDBRANCH  15  17
ENDBRANCH   3  15
BRANCH   1  19
ATOM     19  C   UNL     1       1.549   8.327  19.360  0.00  0.00    +0.000 C 
BRANCH  19  20
ATOM     20  N   UNL     1       1.180   9.229  20.497  0.00  0.00    +0.000 N 
ATOM     21  C   UNL     1       1.133  10.623  20.404  0.00  0.00    +0.000 C 
ATOM     22  O   UNL     1       0.949  11.314  21.408  0.00  0.00    +0.000 OA
ATOM     23  N   UNL     1       1.242  11.160  19.145  0.00  0.00    +0.000 N 
ATOM     24  H   UNL     1       0.912  10.580  18.390  0.00  0.00    +0.000 HD
BRANCH  23  25
ATOM     25  C   UNL     1       1.243  12.554  18.907  0.00  0.00    +0.000 A 
ATOM     26  C   UNL     1       2.425  13.291  18.753  0.00  0.00    +0.000 A 
ATOM     27  C   UNL     1       2.391  14.678  18.618  0.00  0.00    +0.000 A 
ATOM     28  C   UNL     1       1.168  15.326  18.614  0.00  0.00    +0.000 A 
ATOM     29  F   UNL     1       1.131  16.661  18.519  0.00  0.00    +0.000 F 
ATOM     30  C   UNL     1      -0.018  14.614  18.711  0.00  0.00    +0.000 A 
ATOM     31  C   UNL     1       0.013  13.220  18.844  0.00  0.00    +0.000 A 
ENDBRANCH  23  25
BRANCH  20  33
ATOM     32  C   UNL     1      -0.500   8.537  22.270  0.00  0.00    +0.000 C 
ATOM     33  C   UNL     1       0.965   8.740  21.868  0.00  0.00    +0.000 C 
ENDBRANCH  20  33
ENDBRANCH  19  20
ENDBRANCH   1  19
TORSDOF 7
ENDMDL
MODEL 4
REMARK VINA RESULT:      -6.4      2.708      4.126
REMARK  Name = 
REMARK  11 active torsions:
REMARK  status: ('A' for Active; 'I' for Inactive)
REMARK    1  A    between atoms: C_1  and  C_2
REMARK    2  A    between atoms: C_2  and  N_3
REMARK    3  A    between atoms: N_3  and  C_4
REMARK    4  A    between atoms: C_4  and  C_5
REMARK    5  A    between atoms: C_7  and  C_8
REMARK    6  A    between atoms: C_7  and  C_10
REMARK    7  A    between atoms: C_8  and  C_9
REMARK    8  A    between atoms: C_10  and  O_12
REMARK    9  A    between atoms: O_12  and  C_13
REMARK   10  A    between atoms: N_17  and  C_18
REMARK   11  A    between atoms: N_24  and  C_25
REMARK                            x       y       z     vdW  Elec       q    Type
REMARK                         _______ _______ _______ _____ _____    ______ ____
ROOT
ATOM      1  C   UNL     1      -5.953  13.644  21.178  0.00  0.00    +0.000 C 
ATOM      2  N   UNL     1      -5.290  12.566  21.974  0.00  0.00    +0.000 NA
ATOM      3  C   UNL     1      -5.439  12.987  23.424  0.00  0.00    +0.000 C 
ATOM      4  C   UNL     1      -5.352  14.522  23.374  0.00  0.00    +0.000 C 
ATOM      5  C   UNL     1      -4.047  15.224  23.744  0.00  0.00    +0.000 C 
ATOM      6  O   UNL     1      -3.629  15.331  24.888  0.00  0.00    +0.000 OA
ATOM      7  N   UNL     1      -3.465  15.717  22.621  0.00  0.00    +0.000 N 
ATOM      8  C   UNL     1      -2.253  16.496  22.540  0.00  0.00    +0.000 C 
ATOM      9  C   UNL     1      -4.147  15.391  21.493  0.00  0.00    +0.000 C 
ATOM     10  O   UNL     1      -3.734  15.525  20.355  0.00  0.00    +0.000 OA
ATOM     11  C   UNL     1      -5.500  14.893  21.901  0.00  0.00    +0.000 C 
ATOM     12  H   UNL     1      -4.292  12.498  21.754  0.00  0.00    +0.000 HD
ENDROOT
BRANCH   3  13
ATOM     13  C   UNL     1      -6.835  12.493  23.921  0.00  0.00    +0.000 C 
ATOM     14  C   UNL     1      -7.773  13.604  24.397  0.00  0.00    +0.000 C 
ENDBRANCH   3  13
BRANCH   3  15
ATOM     15  C   UNL     1      -4.346  12.422  24.365  0.00  0.00    +0.000 C 
ATOM     16  O   UNL     1      -4.380  12.463  25.587  0.00  0.00    +0.000 OA
BRANCH  15  17
ATOM     17  O   UNL     1      -3.379  11.823  23.607  0.00  0.00    +0.000 OA
ATOM     18  C   UNL     1      -2.091  12.439  23.541  0.00  0.00    +0.000 C 
ENDBRANCH  15  17
ENDBRANCH   3  15
BRANCH   1  19
ATOM     19  C   UNL     1      -5.774  13.612  19.628  0.00  0.00    +0.000 C 
BRANCH  19  20
ATOM     20  N   UNL     1      -5.350  12.336  18.970  0.00  0.00    +0.000 N 
ATOM     21  C   UNL     1      -4.017  11.951  18.800  0.00  0.00    +0.000 C 
ATOM     22  O   UNL     1      -3.731  10.953  18.135  0.00  0.00    +0.000 OA
ATOM     23  N   UNL     1      -3.070  12.702  19.454  0.00  0.00    +0.000 N 
ATOM     24  H   UNL     1      -3.375  13.148  20.304  0.00  0.00    +0.000 HD
BRANCH  23  25
ATOM     25  C   UNL     1      -1.684  12.444  19.346  0.00  0.00    +0.000 A 
ATOM     26  C   UNL     1      -1.041  11.457  20.104  0.00  0.00    +0.000 A 
ATOM     27  C   UNL     1       0.342  11.296  20.045  0.00  0.00    +0.000 A 
ATOM     28  C   UNL     1       1.081  12.113  19.206  0.00  0.00    +0.000 A 
ATOM     29  F   UNL     1       2.414  11.987  19.171  0.00  0.00    +0.000 F 
ATOM     30  C   UNL     1       0.462  13.062  18.408  0.00  0.00    +0.000 A 
ATOM     31  C   UNL     1      -0.928  13.223  18.463  0.00  0.00    +0.000 A 
ENDBRANCH  23  25
BRANCH  20  33
ATOM     32  C   UNL     1      -6.917  10.354  19.214  0.00  0.00    +0.000 C 
ATOM     33  C   UNL     1      -6.297  11.425  18.309  0.00  0.00    +0.000 C 
ENDBRANCH  20  33
ENDBRANCH  19  20
ENDBRANCH   1  19
TORSDOF 7
ENDMDL
MODEL 5
REMARK VINA RESULT:      -6.2      5.178      7.211
REMARK  Name = 
REMARK  11 active torsions:
REMARK  status: ('A' for Active; 'I' for Inactive)
REMARK    1  A    between atoms: C_1  and  C_2
REMARK    2  A    between atoms: C_2  and  N_3
REMARK    3  A    between atoms: N_3  and  C_4
REMARK    4  A    between atoms: C_4  and  C_5
REMARK    5  A    between atoms: C_7  and  C_8
REMARK    6  A    between atoms: C_7  and  C_10
REMARK    7  A    between atoms: C_8  and  C_9
REMARK    8  A    between atoms: C_10  and  O_12
REMARK    9  A    between atoms: O_12  and  C_13
REMARK   10  A    between atoms: N_17  and  C_18
REMARK   11  A    between atoms: N_24  and  C_25
REMARK                            x       y       z     vdW  Elec       q    Type
REMARK                         _______ _______ _______ _____ _____    ______ ____
ROOT
ATOM      1  C   UNL     1       0.376  10.838  18.947  0.00  0.00    +0.000 C 
ATOM      2  N   UNL     1      -0.978  10.688  19.563  0.00  0.00    +0.000 NA
ATOM      3  C   UNL     1      -1.799  11.841  19.018  0.00  0.00    +0.000 C 
ATOM      4  C   UNL     1      -0.781  12.985  18.877  0.00  0.00    +0.000 C 
ATOM      5  C   UNL     1      -0.719  14.084  19.937  0.00  0.00    +0.000 C 
ATOM      6  O   UNL     1      -1.556  14.968  20.055  0.00  0.00    +0.000 OA
ATOM      7  N   UNL     1       0.405  13.930  20.682  0.00  0.00    +0.000 N 
ATOM      8  C   UNL     1       0.867  14.789  21.745  0.00  0.00    +0.000 C 
ATOM      9  C   UNL     1       1.110  12.822  20.341  0.00  0.00    +0.000 C 
ATOM     10  O   UNL     1       2.029  12.344  20.982  0.00  0.00    +0.000 OA
ATOM     11  C   UNL     1       0.591  12.334  19.022  0.00  0.00    +0.000 C 
ATOM     12  H   UNL     1      -0.937  10.770  20.584  0.00  0.00    +0.000 HD
ENDROOT
BRANCH   3  13
ATOM     13  C   UNL     1      -2.381  11.399  17.637  0.00  0.00    +0.000 C 
ATOM     14  C   UNL     1      -2.877   9.952  17.588  0.00  0.00    +0.000 C 
ENDBRANCH   3  13
BRANCH   3  15
ATOM     15  C   UNL     1      -2.969  12.278  19.934  0.00  0.00    +0.000 C 
ATOM     16  O   UNL     1      -4.052  12.690  19.544  0.00  0.00    +0.000 OA
BRANCH  15  17
ATOM     17  O   UNL     1      -2.610  12.068  21.236  0.00  0.00    +0.000 OA
ATOM     18  C   UNL     1      -3.412  12.653  22.264  0.00  0.00    +0.000 C 
ENDBRANCH  15  17
ENDBRANCH   3  15
BRANCH   1  19
ATOM     19  C   UNL     1       1.520   9.925  19.485  0.00  0.00    +0.000 C 
BRANCH  19  20
ATOM     20  N   UNL     1       1.180   8.800  20.413  0.00  0.00    +0.000 N 
ATOM     21  C   UNL     1       1.548   7.470  20.194  0.00  0.00    +0.000 C 
ATOM     22  O   UNL     1       1.126   6.572  20.928  0.00  0.00    +0.000 OA
ATOM     23  N   UNL     1       2.436   7.236  19.173  0.00  0.00    +0.000 N 
ATOM     24  H   UNL     1       3.070   7.989  18.962  0.00  0.00    +0.000 HD
BRANCH  23  25
ATOM     25  C   UNL     1       2.870   5.936  18.820  0.00  0.00    +0.000 A 
ATOM     26  C   UNL     1       2.149   5.114  17.944  0.00  0.00    +0.000 A 
ATOM     27  C   UNL     1       2.554   3.804  17.695  0.00  0.00    +0.000 A 
ATOM     28  C   UNL     1       3.698   3.323  18.310  0.00  0.00    +0.000 A 
ATOM     29  F   UNL     1       4.073   2.055  18.102  0.00  0.00    +0.000 F 
ATOM     30  C   UNL     1       4.456   4.134  19.140  0.00  0.00    +0.000 A 
ATOM     31  C   UNL     1       4.053   5.452  19.389  0.00  0.00    +0.000 A 
ENDBRANCH  23  25
BRANCH  20  33
ATOM     32  C   UNL     1       0.978   9.517  22.840  0.00  0.00    +0.000 C 
ATOM     33  C   UNL     1       0.300   8.966  21.580  0.00  0.00    +0.000 C 
ENDBRANCH  20  33
ENDBRANCH  19  20
ENDBRANCH   1  19
TORSDOF 7
ENDMDL
MODEL 6
REMARK VINA RESULT:      -6.1      1.717      2.520
REMARK  Name = 
REMARK  11 active torsions:
REMARK  status: ('A' for Active; 'I' for Inactive)
REMARK    1  A    between atoms: C_1  and  C_2
REMARK    2  A    between atoms: C_2  and  N_3
REMARK    3  A    between atoms: N_3  and  C_4
REMARK    4  A    between atoms: C_4  and  C_5
REMARK    5  A    between atoms: C_7  and  C_8
REMARK    6  A    between atoms: C_7  and  C_10
REMARK    7  A    between atoms: C_8  and  C_9
REMARK    8  A    between atoms: C_10  and  O_12
REMARK    9  A    between atoms: O_12  and  C_13
REMARK   10  A    between atoms: N_17  and  C_18
REMARK   11  A    between atoms: N_24  and  C_25
REMARK                            x       y       z     vdW  Elec       q    Type
REMARK                         _______ _______ _______ _____ _____    ______ ____
ROOT
ATOM      1  C   UNL     1      -2.999  13.038  21.897  0.00  0.00    +0.000 C 
ATOM      2  N   UNL     1      -2.096  12.125  21.130  0.00  0.00    +0.000 NA
ATOM      3  C   UNL     1      -0.830  12.022  21.958  0.00  0.00    +0.000 C 
ATOM      4  C   UNL     1      -0.692  13.413  22.599  0.00  0.00    +0.000 C 
ATOM      5  C   UNL     1       0.281  14.432  22.009  0.00  0.00    +0.000 C 
ATOM      6  O   UNL     1       1.497  14.361  22.123  0.00  0.00    +0.000 OA
ATOM      7  N   UNL     1      -0.416  15.411  21.378  0.00  0.00    +0.000 N 
ATOM      8  C   UNL     1       0.122  16.588  20.742  0.00  0.00    +0.000 C 
ATOM      9  C   UNL     1      -1.754  15.182  21.378  0.00  0.00    +0.000 C 
ATOM     10  O   UNL     1      -2.574  15.785  20.709  0.00  0.00    +0.000 OA
ATOM     11  C   UNL     1      -2.037  14.101  22.377  0.00  0.00    +0.000 C 
ATOM     12  H   UNL     1      -1.857  12.518  20.214  0.00  0.00    +0.000 HD
ENDROOT
BRANCH   3  13
ATOM     13  C   UNL     1      -1.051  10.902  23.025  0.00  0.00    +0.000 C 
ATOM     14  C   UNL     1      -0.617   9.503  22.583  0.00  0.00    +0.000 C 
ENDBRANCH   3  13
BRANCH   3  15
ATOM     15  C   UNL     1       0.440  11.685  21.139  0.00  0.00    +0.000 C 
ATOM     16  O   UNL     1       1.498  11.290  21.609  0.00  0.00    +0.000 OA
BRANCH  15  17
ATOM     17  O   UNL     1       0.161  11.842  19.810  0.00  0.00    +0.000 OA
ATOM     18  C   UNL     1       0.846  11.012  18.869  0.00  0.00    +0.000 C 
ENDBRANCH  15  17
ENDBRANCH   3  15
BRANCH   1  19
ATOM     19  C   UNL     1      -4.304  13.523  21.194  0.00  0.00    +0.000 C 
BRANCH  19  20
ATOM     20  N   UNL     1      -5.256  12.506  20.642  0.00  0.00    +0.000 N 
ATOM     21  C   UNL     1      -5.066  11.838  19.429  0.00  0.00    +0.000 C 
ATOM     22  O   UNL     1      -5.948  11.110  18.968  0.00  0.00    +0.000 OA
ATOM     23  N   UNL     1      -3.841  11.991  18.826  0.00  0.00    +0.000 N 
ATOM     24  H   UNL     1      -3.067  12.168  19.445  0.00  0.00    +0.000 HD
BRANCH  23  25
ATOM     25  C   UNL     1      -3.523  11.397  17.582  0.00  0.00    +0.000 A 
ATOM     26  C   UNL     1      -4.247  11.667  16.413  0.00  0.00    +0.000 A 
ATOM     27  C   UNL     1      -3.969  10.991  15.226  0.00  0.00    +0.000 A 
ATOM     28  C   UNL     1      -2.947  10.057  15.206  0.00  0.00    +0.000 A 
ATOM     29  F   UNL     1      -2.697   9.380  14.078  0.00  0.00    +0.000 F 
ATOM     30  C   UNL     1      -2.182   9.811  16.336  0.00  0.00    +0.000 A 
ATOM     31  C   UNL     1      -2.458  10.491  17.528  0.00  0.00    +0.000 A 
ENDBRANCH  23  25
BRANCH  20  33
ATOM     32  C   UNL     1      -7.494  13.418  21.416  0.00  0.00    +0.000 C 
ATOM     33  C   UNL     1      -6.559  12.214  21.259  0.00  0.00    +0.000 C 
ENDBRANCH  20  33
ENDBRANCH  19  20
ENDBRANCH   1  19
TORSDOF 7
ENDMDL
MODEL 7
REMARK VINA RESULT:      -6.1      0.994      1.195
REMARK  Name = 
REMARK  11 active torsions:
REMARK  status: ('A' for Active; 'I' for Inactive)
REMARK    1  A    between atoms: C_1  and  C_2
REMARK    2  A    between atoms: C_2  and  N_3
REMARK    3  A    between atoms: N_3  and  C_4
REMARK    4  A    between atoms: C_4  and  C_5
REMARK    5  A    between atoms: C_7  and  C_8
REMARK    6  A    between atoms: C_7  and  C_10
REMARK    7  A    between atoms: C_8  and  C_9
REMARK    8  A    between atoms: C_10  and  O_12
REMARK    9  A    between atoms: O_12  and  C_13
REMARK   10  A    between atoms: N_17  and  C_18
REMARK   11  A    between atoms: N_24  and  C_25
REMARK                            x       y       z     vdW  Elec       q    Type
REMARK                         _______ _______ _______ _____ _____    ______ ____
ROOT
ATOM      1  C   UNL     1      -3.989  13.081  21.203  0.00  0.00    +0.000 C 
ATOM      2  N   UNL     1      -3.093  14.027  20.470  0.00  0.00    +0.000 NA
ATOM      3  C   UNL     1      -1.699  13.755  21.003  0.00  0.00    +0.000 C 
ATOM      4  C   UNL     1      -1.931  13.388  22.478  0.00  0.00    +0.000 C 
ATOM      5  C   UNL     1      -1.687  14.429  23.570  0.00  0.00    +0.000 C 
ATOM      6  O   UNL     1      -0.576  14.792  23.931  0.00  0.00    +0.000 OA
ATOM      7  N   UNL     1      -2.878  14.846  24.070  0.00  0.00    +0.000 N 
ATOM      8  C   UNL     1      -3.087  15.777  25.152  0.00  0.00    +0.000 C 
ATOM      9  C   UNL     1      -3.937  14.295  23.425  0.00  0.00    +0.000 C 
ATOM     10  O   UNL     1      -5.096  14.655  23.535  0.00  0.00    +0.000 OA
ATOM     11  C   UNL     1      -3.432  13.145  22.608  0.00  0.00    +0.000 C 
ATOM     12  H   UNL     1      -3.334  15.002  20.670  0.00  0.00    +0.000 HD
ENDROOT
BRANCH   3  13
ATOM     13  C   UNL     1      -1.104  12.562  20.187  0.00  0.00    +0.000 C 
ATOM     14  C   UNL     1      -0.921  12.838  18.693  0.00  0.00    +0.000 C 
ENDBRANCH   3  13
BRANCH   3  15
ATOM     15  C   UNL     1      -0.732  14.960  20.899  0.00  0.00    +0.000 C 
ATOM     16  O   UNL     1       0.485  14.898  20.999  0.00  0.00    +0.000 OA
BRANCH  15  17
ATOM     17  O   UNL     1      -1.458  16.084  20.618  0.00  0.00    +0.000 OA
ATOM     18  C   UNL     1      -1.108  16.848  19.462  0.00  0.00    +0.000 C 
ENDBRANCH  15  17
ENDBRANCH   3  15
BRANCH   1  19
ATOM     19  C   UNL     1      -5.529  13.268  21.038  0.00  0.00    +0.000 C 
BRANCH  19  20
ATOM     20  N   UNL     1      -6.327  12.189  20.374  0.00  0.00    +0.000 N 
ATOM     21  C   UNL     1      -5.913  11.505  19.228  0.00  0.00    +0.000 C 
ATOM     22  O   UNL     1      -6.672  10.720  18.656  0.00  0.00    +0.000 OA
ATOM     23  N   UNL     1      -4.617  11.711  18.821  0.00  0.00    +0.000 N 
ATOM     24  H   UNL     1      -3.961  11.945  19.549  0.00  0.00    +0.000 HD
BRANCH  23  25
ATOM     25  C   UNL     1      -4.075  11.108  17.662  0.00  0.00    +0.000 A 
ATOM     26  C   UNL     1      -3.134  10.072  17.723  0.00  0.00    +0.000 A 
ATOM     27  C   UNL     1      -2.548   9.568  16.564  0.00  0.00    +0.000 A 
ATOM     28  C   UNL     1      -2.923  10.089  15.337  0.00  0.00    +0.000 A 
ATOM     29  F   UNL     1      -2.339   9.633  14.221  0.00  0.00    +0.000 F 
ATOM     30  C   UNL     1      -3.891  11.078  15.247  0.00  0.00    +0.000 A 
ATOM     31  C   UNL     1      -4.483  11.584  16.411  0.00  0.00    +0.000 A 
ENDBRANCH  23  25
BRANCH  20  33
ATOM     32  C   UNL     1      -7.916  11.727  22.298  0.00  0.00    +0.000 C 
ATOM     33  C   UNL     1      -7.695  11.839  20.786  0.00  0.00    +0.000 C 
ENDBRANCH  20  33
ENDBRANCH  19  20
ENDBRANCH   1  19
TORSDOF 7
ENDMDL
MODEL 8
REMARK VINA RESULT:      -6.0      9.049     12.196
REMARK  Name = 
REMARK  11 active torsions:
REMARK  status: ('A' for Active; 'I' for Inactive)
REMARK    1  A    between atoms: C_1  and  C_2
REMARK    2  A    between atoms: C_2  and  N_3
REMARK    3  A    between atoms: N_3  and  C_4
REMARK    4  A    between atoms: C_4  and  C_5
REMARK    5  A    between atoms: C_7  and  C_8
REMARK    6  A    between atoms: C_7  and  C_10
REMARK    7  A    between atoms: C_8  and  C_9
REMARK    8  A    between atoms: C_10  and  O_12
REMARK    9  A    between atoms: O_12  and  C_13
REMARK   10  A    between atoms: N_17  and  C_18
REMARK   11  A    between atoms: N_24  and  C_25
REMARK                            x       y       z     vdW  Elec       q    Type
REMARK                         _______ _______ _______ _____ _____    ______ ____
ROOT
ATOM      1  C   UNL     1       9.268  13.991  21.890  0.00  0.00    +0.000 C 
ATOM      2  N   UNL     1       8.782  13.166  20.741  0.00  0.00    +0.000 NA
ATOM      3  C   UNL     1       9.968  13.046  19.803  0.00  0.00    +0.000 C 
ATOM      4  C   UNL     1      10.698  14.391  19.954  0.00  0.00    +0.000 C 
ATOM      5  C   UNL     1      10.514  15.481  18.899  0.00  0.00    +0.000 C 
ATOM      6  O   UNL     1      11.011  15.442  17.782  0.00  0.00    +0.000 OA
ATOM      7  N   UNL     1       9.749  16.479  19.410  0.00  0.00    +0.000 N 
ATOM      8  C   UNL     1       9.389  17.716  18.761  0.00  0.00    +0.000 C 
ATOM      9  C   UNL     1       9.303  16.206  20.663  0.00  0.00    +0.000 C 
ATOM     10  O   UNL     1       8.441  16.829  21.256  0.00  0.00    +0.000 OA
ATOM     11  C   UNL     1      10.094  15.048  21.191  0.00  0.00    +0.000 C 
ATOM     12  H   UNL     1       8.018  13.632  20.242  0.00  0.00    +0.000 HD
ENDROOT
BRANCH   3  13
ATOM     13  C   UNL     1      10.841  11.846  20.293  0.00  0.00    +0.000 C 
ATOM     14  C   UNL     1      12.333  11.971  19.979  0.00  0.00    +0.000 C 
ENDBRANCH   3  13
BRANCH   3  15
ATOM     15  C   UNL     1       9.586  12.810  18.321  0.00  0.00    +0.000 C 
ATOM     16  O   UNL     1      10.277  12.224  17.499  0.00  0.00    +0.000 OA
BRANCH  15  17
ATOM     17  O   UNL     1       8.332  13.310  18.105  0.00  0.00    +0.000 OA
ATOM     18  C   UNL     1       7.542  12.736  17.062  0.00  0.00    +0.000 C 
ENDBRANCH  15  17
ENDBRANCH   3  15
BRANCH   1  19
ATOM     19  C   UNL     1       8.209  14.482  22.925  0.00  0.00    +0.000 C 
BRANCH  19  20
ATOM     20  N   UNL     1       6.869  13.815  22.970  0.00  0.00    +0.000 N 
ATOM     21  C   UNL     1       5.808  14.140  22.121  0.00  0.00    +0.000 C 
ATOM     22  O   UNL     1       4.691  13.646  22.294  0.00  0.00    +0.000 OA
ATOM     23  N   UNL     1       6.092  14.978  21.070  0.00  0.00    +0.000 N 
ATOM     24  H   UNL     1       7.038  14.942  20.725  0.00  0.00    +0.000 HD
BRANCH  23  25
ATOM     25  C   UNL     1       5.108  15.413  20.152  0.00  0.00    +0.000 A 
ATOM     26  C   UNL     1       4.943  14.825  18.892  0.00  0.00    +0.000 A 
ATOM     27  C   UNL     1       4.029  15.342  17.974  0.00  0.00    +0.000 A 
ATOM     28  C   UNL     1       3.263  16.439  18.331  0.00  0.00    +0.000 A 
ATOM     29  F   UNL     1       2.409  16.962  17.442  0.00  0.00    +0.000 F 
ATOM     30  C   UNL     1       3.372  17.006  19.591  0.00  0.00    +0.000 A 
ATOM     31  C   UNL     1       4.287  16.486  20.515  0.00  0.00    +0.000 A 
ENDBRANCH  23  25
BRANCH  20  33
ATOM     32  C   UNL     1       7.647  12.347  24.888  0.00  0.00    +0.000 C 
ATOM     33  C   UNL     1       6.494  12.845  24.010  0.00  0.00    +0.000 C 
ENDBRANCH  20  33
ENDBRANCH  19  20
ENDBRANCH   1  19
TORSDOF 7
ENDMDL
MODEL 9
REMARK VINA RESULT:      -6.0      4.456      6.812
REMARK  Name = 
REMARK  11 active torsions:
REMARK  status: ('A' for Active; 'I' for Inactive)
REMARK    1  A    between atoms: C_1  and  C_2
REMARK    2  A    between atoms: C_2  and  N_3
REMARK    3  A    between atoms: N_3  and  C_4
REMARK    4  A    between atoms: C_4  and  C_5
REMARK    5  A    between atoms: C_7  and  C_8
REMARK    6  A    between atoms: C_7  and  C_10
REMARK    7  A    between atoms: C_8  and  C_9
REMARK    8  A    between atoms: C_10  and  O_12
REMARK    9  A    between atoms: O_12  and  C_13
REMARK   10  A    between atoms: N_17  and  C_18
REMARK   11  A    between atoms: N_24  and  C_25
REMARK                            x       y       z     vdW  Elec       q    Type
REMARK                         _______ _______ _______ _____ _____    ______ ____
ROOT
ATOM      1  C   UNL     1       0.091  14.082  19.598  0.00  0.00    +0.000 C 
ATOM      2  N   UNL     1       0.449  15.033  20.696  0.00  0.00    +0.000 NA
ATOM      3  C   UNL     1       0.649  16.374  20.017  0.00  0.00    +0.000 C 
ATOM      4  C   UNL     1       1.245  16.010  18.647  0.00  0.00    +0.000 C 
ATOM      5  C   UNL     1       2.749  16.141  18.411  0.00  0.00    +0.000 C 
ATOM      6  O   UNL     1       3.329  17.210  18.275  0.00  0.00    +0.000 OA
ATOM      7  N   UNL     1       3.307  14.905  18.353  0.00  0.00    +0.000 N 
ATOM      8  C   UNL     1       4.689  14.587  18.087  0.00  0.00    +0.000 C 
ATOM      9  C   UNL     1       2.410  13.916  18.592  0.00  0.00    +0.000 C 
ATOM     10  O   UNL     1       2.686  12.748  18.805  0.00  0.00    +0.000 OA
ATOM     11  C   UNL     1       1.036  14.506  18.495  0.00  0.00    +0.000 C 
ATOM     12  H   UNL     1       1.324  14.764  21.154  0.00  0.00    +0.000 HD
ENDROOT
BRANCH   3  13
ATOM     13  C   UNL     1      -0.751  17.055  19.886  0.00  0.00    +0.000 C 
ATOM     14  C   UNL     1      -1.079  17.578  18.486  0.00  0.00    +0.000 C 
ENDBRANCH   3  13
BRANCH   3  15
ATOM     15  C   UNL     1       1.600  17.334  20.774  0.00  0.00    +0.000 C 
ATOM     16  O   UNL     1       1.604  18.552  20.667  0.00  0.00    +0.000 OA
BRANCH  15  17
ATOM     17  O   UNL     1       2.385  16.600  21.619  0.00  0.00    +0.000 OA
ATOM     18  C   UNL     1       3.691  17.090  21.930  0.00  0.00    +0.000 C 
ENDBRANCH  15  17
ENDBRANCH   3  15
BRANCH   1  19
ATOM     19  C   UNL     1       0.038  12.563  19.947  0.00  0.00    +0.000 C 
BRANCH  19  20
ATOM     20  N   UNL     1      -0.551  11.608  18.954  0.00  0.00    +0.000 N 
ATOM     21  C   UNL     1       0.035  10.389  18.601  0.00  0.00    +0.000 C 
ATOM     22  O   UNL     1      -0.431   9.710  17.684  0.00  0.00    +0.000 OA
ATOM     23  N   UNL     1       1.102   9.976  19.361  0.00  0.00    +0.000 N 
ATOM     24  H   UNL     1       1.112  10.297  20.315  0.00  0.00    +0.000 HD
BRANCH  23  25
ATOM     25  C   UNL     1       1.810   8.780  19.097  0.00  0.00    +0.000 A 
ATOM     26  C   UNL     1       2.530   8.578  17.912  0.00  0.00    +0.000 A 
ATOM     27  C   UNL     1       3.134   7.351  17.641  0.00  0.00    +0.000 A 
ATOM     28  C   UNL     1       3.034   6.330  18.572  0.00  0.00    +0.000 A 
ATOM     29  F   UNL     1       3.583   5.139  18.303  0.00  0.00    +0.000 F 
ATOM     30  C   UNL     1       2.371   6.523  19.774  0.00  0.00    +0.000 A 
ATOM     31  C   UNL     1       1.767   7.755  20.049  0.00  0.00    +0.000 A 
ENDBRANCH  23  25
BRANCH  20  33
ATOM     32  C   UNL     1      -3.071  11.909  18.906  0.00  0.00    +0.000 C 
ATOM     33  C   UNL     1      -1.739  11.927  18.147  0.00  0.00    +0.000 C 
ENDBRANCH  20  33
ENDBRANCH  19  20
ENDBRANCH   1  19
TORSDOF 7
ENDMDL
