MODEL 1
REMARK VINA RESULT:      -7.0      0.000      0.000
REMARK  Name = 
REMARK  5 active torsions:
REMARK  status: ('A' for Active; 'I' for Inactive)
REMARK    1  A    between atoms: C_1  and  O_2
REMARK    2  A    between atoms: O_2  and  C_3
REMARK    3  A    between atoms: C_6  and  O_7
REMARK    4  A    between atoms: C_8  and  C_9
REMARK    5  A    between atoms: N_11  and  C_12
REMARK                            x       y       z     vdW  Elec       q    Type
REMARK                         _______ _______ _______ _____ _____    ______ ____
ROOT
ATOM      1  C   UNL     1       5.091   4.602  15.911  0.00  0.00    +0.000 C 
ATOM      2  O   UNL     1       5.009   5.733  16.386  0.00  0.00    +0.000 OA
ATOM      3  N   UNL     1       4.587   3.456  16.495  0.00  0.00    +0.000 N 
ATOM      4  H   UNL     1       4.829   2.579  16.037  0.00  0.00    +0.000 HD
ENDROOT
BRANCH   3   5
ATOM      5  C   UNL     1       3.885   3.373  17.715  0.00  0.00    +0.000 A 
ATOM      6  C   UNL     1       4.518   3.139  18.938  0.00  0.00    +0.000 A 
ATOM      7  C   UNL     1       3.774   2.983  20.111  0.00  0.00    +0.000 A 
ATOM      8  C   UNL     1       2.387   3.068  20.063  0.00  0.00    +0.000 A 
ATOM      9 BR   UNL     1       1.381   2.786  21.636  0.00  0.00    +0.000 Br
ATOM     10  C   UNL     1       1.742   3.347  18.860  0.00  0.00    +0.000 A 
ATOM     11  C   UNL     1       2.491   3.515  17.689  0.00  0.00    +0.000 A 
ENDBRANCH   3   5
BRANCH   1  16
ATOM     12  C   UNL     1       5.868   3.413  12.408  0.00  0.00    +0.000 A 
ATOM     13  C   UNL     1       7.100   4.017  12.160  0.00  0.00    +0.000 A 
ATOM     14  C   UNL     1       7.708   4.826  13.123  0.00  0.00    +0.000 A 
ATOM     15  C   UNL     1       7.078   5.040  14.349  0.00  0.00    +0.000 A 
ATOM     16  C   UNL     1       5.840   4.440  14.623  0.00  0.00    +0.000 A 
ATOM     17  C   UNL     1       5.243   3.624  13.636  0.00  0.00    +0.000 A 
BRANCH  12  19
ATOM     18  C   UNL     1       5.961   1.355  11.212  0.00  0.00    +0.000 C 
ATOM     19  O   UNL     1       5.392   2.649  11.379  0.00  0.00    +0.000 OA
ENDBRANCH  12  19
BRANCH  15  20
ATOM     20  O   UNL     1       7.691   5.846  15.273  0.00  0.00    +0.000 OA
ATOM     21  H   UNL     1       7.130   6.629  15.423  0.00  0.00    +0.000 HD
ENDBRANCH  15  20
ENDBRANCH   1  16
TORSDOF 4
ENDMDL
MODEL 2
REMARK VINA RESULT:      -7.0      1.035      1.175
REMARK  Name = 
REMARK  5 active torsions:
REMARK  status: ('A' for Active; 'I' for Inactive)
REMARK    1  A    between atoms: C_1  and  O_2
REMARK    2  A    between atoms: O_2  and  C_3
REMARK    3  A    between atoms: C_6  and  O_7
REMARK    4  A    between atoms: C_8  and  C_9
REMARK    5  A    between atoms: N_11  and  C_12
REMARK                            x       y       z     vdW  Elec       q    Type
REMARK                         _______ _______ _______ _____ _____    ______ ____
ROOT
ATOM      1  C   UNL     1       5.466   4.133  16.202  0.00  0.00    +0.000 C 
ATOM      2  O   UNL     1       6.243   4.308  17.138  0.00  0.00    +0.000 OA
ATOM      3  N   UNL     1       4.130   3.803  16.327  0.00  0.00    +0.000 N 
ATOM      4  H   UNL     1       3.642   3.583  15.461  0.00  0.00    +0.000 HD
ENDROOT
BRANCH   3   5
ATOM      5  C   UNL     1       3.419   3.621  17.532  0.00  0.00    +0.000 A 
ATOM      6  C   UNL     1       3.004   4.686  18.334  0.00  0.00    +0.000 A 
ATOM      7  C   UNL     1       2.375   4.456  19.560  0.00  0.00    +0.000 A 
ATOM      8  C   UNL     1       2.152   3.151  19.986  0.00  0.00    +0.000 A 
ATOM      9 BR   UNL     1       1.367   2.842  21.675  0.00  0.00    +0.000 Br
ATOM     10  C   UNL     1       2.518   2.076  19.178  0.00  0.00    +0.000 A 
ATOM     11  C   UNL     1       3.137   2.311  17.944  0.00  0.00    +0.000 A 
ENDBRANCH   3   5
BRANCH   1  16
ATOM     12  C   UNL     1       5.845   3.469  12.500  0.00  0.00    +0.000 A 
ATOM     13  C   UNL     1       6.920   4.293  12.163  0.00  0.00    +0.000 A 
ATOM     14  C   UNL     1       7.546   5.083  13.130  0.00  0.00    +0.000 A 
ATOM     15  C   UNL     1       7.094   5.057  14.449  0.00  0.00    +0.000 A 
ATOM     16  C   UNL     1       6.017   4.236  14.812  0.00  0.00    +0.000 A 
ATOM     17  C   UNL     1       5.398   3.443  13.820  0.00  0.00    +0.000 A 
BRANCH  12  19
ATOM     18  C   UNL     1       3.989   3.034  11.072  0.00  0.00    +0.000 C 
ATOM     19  O   UNL     1       5.330   2.752  11.457  0.00  0.00    +0.000 OA
ENDBRANCH  12  19
BRANCH  15  20
ATOM     20  O   UNL     1       7.719   5.851  15.375  0.00  0.00    +0.000 OA
ATOM     21  H   UNL     1       8.221   6.542  14.904  0.00  0.00    +0.000 HD
ENDBRANCH  15  20
ENDBRANCH   1  16
TORSDOF 4
ENDMDL
MODEL 3
REMARK VINA RESULT:      -6.7      4.965      6.651
REMARK  Name = 
REMARK  5 active torsions:
REMARK  status: ('A' for Active; 'I' for Inactive)
REMARK    1  A    between atoms: C_1  and  O_2
REMARK    2  A    between atoms: O_2  and  C_3
REMARK    3  A    between atoms: C_6  and  O_7
REMARK    4  A    between atoms: C_8  and  C_9
REMARK    5  A    between atoms: N_11  and  C_12
REMARK                            x       y       z     vdW  Elec       q    Type
REMARK                         _______ _______ _______ _____ _____    ______ ____
ROOT
ATOM      1  C   UNL     1       2.136   6.065  19.906  0.00  0.00    +0.000 C 
ATOM      2  O   UNL     1       1.297   5.470  20.579  0.00  0.00    +0.000 OA
ATOM      3  N   UNL     1       2.283   7.438  19.851  0.00  0.00    +0.000 N 
ATOM      4  H   UNL     1       2.950   7.787  19.164  0.00  0.00    +0.000 HD
ENDROOT
BRANCH   3   5
ATOM      5  C   UNL     1       1.521   8.394  20.554  0.00  0.00    +0.000 A 
ATOM      6  C   UNL     1       1.455   8.432  21.949  0.00  0.00    +0.000 A 
ATOM      7  C   UNL     1       0.622   9.344  22.602  0.00  0.00    +0.000 A 
ATOM      8  C   UNL     1      -0.147  10.230  21.855  0.00  0.00    +0.000 A 
ATOM      9 BR   UNL     1      -1.326  11.414  22.737  0.00  0.00    +0.000 Br
ATOM     10  C   UNL     1      -0.059  10.237  20.464  0.00  0.00    +0.000 A 
ATOM     11  C   UNL     1       0.787   9.330  19.815  0.00  0.00    +0.000 A 
ENDBRANCH   3   5
BRANCH   1  16
ATOM     12  C   UNL     1       5.335   4.544  18.588  0.00  0.00    +0.000 A 
ATOM     13  C   UNL     1       4.877   3.783  17.512  0.00  0.00    +0.000 A 
ATOM     14  C   UNL     1       3.518   3.744  17.190  0.00  0.00    +0.000 A 
ATOM     15  C   UNL     1       2.603   4.470  17.952  0.00  0.00    +0.000 A 
ATOM     16  C   UNL     1       3.040   5.245  19.036  0.00  0.00    +0.000 A 
ATOM     17  C   UNL     1       4.418   5.272  19.344  0.00  0.00    +0.000 A 
BRANCH  12  19
ATOM     18  C   UNL     1       7.520   4.660  17.646  0.00  0.00    +0.000 C 
ATOM     19  O   UNL     1       6.687   4.490  18.787  0.00  0.00    +0.000 OA
ENDBRANCH  12  19
BRANCH  15  20
ATOM     20  O   UNL     1       1.274   4.406  17.621  0.00  0.00    +0.000 OA
ATOM     21  H   UNL     1       1.126   4.947  16.823  0.00  0.00    +0.000 HD
ENDBRANCH  15  20
ENDBRANCH   1  16
TORSDOF 4
ENDMDL
MODEL 4
REMARK VINA RESULT:      -6.4      5.019      6.805
REMARK  Name = 
REMARK  5 active torsions:
REMARK  status: ('A' for Active; 'I' for Inactive)
REMARK    1  A    between atoms: C_1  and  O_2
REMARK    2  A    between atoms: O_2  and  C_3
REMARK    3  A    between atoms: C_6  and  O_7
REMARK    4  A    between atoms: C_8  and  C_9
REMARK    5  A    between atoms: N_11  and  C_12
REMARK                            x       y       z     vdW  Elec       q    Type
REMARK                         _______ _______ _______ _____ _____    ______ ____
ROOT
ATOM      1  C   UNL     1       2.178   6.117  19.822  0.00  0.00    +0.000 C 
ATOM      2  O   UNL     1       1.428   5.511  20.586  0.00  0.00    +0.000 OA
ATOM      3  N   UNL     1       2.196   7.487  19.645  0.00  0.00    +0.000 N 
ATOM      4  H   UNL     1       2.796   7.832  18.898  0.00  0.00    +0.000 HD
ENDROOT
BRANCH   3   5
ATOM      5  C   UNL     1       1.381   8.430  20.305  0.00  0.00    +0.000 A 
ATOM      6  C   UNL     1       0.685   9.434  19.628  0.00  0.00    +0.000 A 
ATOM      7  C   UNL     1      -0.045  10.397  20.329  0.00  0.00    +0.000 A 
ATOM      8  C   UNL     1      -0.085  10.354  21.718  0.00  0.00    +0.000 A 
ATOM      9 BR   UNL     1      -1.013  11.697  22.668  0.00  0.00    +0.000 Br
ATOM     10  C   UNL     1       0.565   9.332  22.408  0.00  0.00    +0.000 A 
ATOM     11  C   UNL     1       1.285   8.361  21.701  0.00  0.00    +0.000 A 
ENDBRANCH   3   5
BRANCH   1  16
ATOM     12  C   UNL     1       5.428   4.628  18.595  0.00  0.00    +0.000 A 
ATOM     13  C   UNL     1       5.007   3.863  17.506  0.00  0.00    +0.000 A 
ATOM     14  C   UNL     1       3.659   3.811  17.146  0.00  0.00    +0.000 A 
ATOM     15  C   UNL     1       2.715   4.528  17.882  0.00  0.00    +0.000 A 
ATOM     16  C   UNL     1       3.114   5.306  18.978  0.00  0.00    +0.000 A 
ATOM     17  C   UNL     1       4.483   5.347  19.324  0.00  0.00    +0.000 A 
BRANCH  12  19
ATOM     18  C   UNL     1       7.473   5.826  18.825  0.00  0.00    +0.000 C 
ATOM     19  O   UNL     1       6.774   4.587  18.832  0.00  0.00    +0.000 OA
ENDBRANCH  12  19
BRANCH  15  20
ATOM     20  O   UNL     1       1.397   4.451  17.514  0.00  0.00    +0.000 OA
ATOM     21  H   UNL     1       1.321   4.701  16.575  0.00  0.00    +0.000 HD
ENDBRANCH  15  20
ENDBRANCH   1  16
TORSDOF 4
ENDMDL
MODEL 5
REMARK VINA RESULT:      -6.4      4.610      5.980
REMARK  Name = 
REMARK  5 active torsions:
REMARK  status: ('A' for Active; 'I' for Inactive)
REMARK    1  A    between atoms: C_1  and  O_2
REMARK    2  A    between atoms: O_2  and  C_3
REMARK    3  A    between atoms: C_6  and  O_7
REMARK    4  A    between atoms: C_8  and  C_9
REMARK    5  A    between atoms: N_11  and  C_12
REMARK                            x       y       z     vdW  Elec       q    Type
REMARK                         _______ _______ _______ _____ _____    ______ ____
ROOT
ATOM      1  C   UNL     1       2.973   6.377  17.932  0.00  0.00    +0.000 C 
ATOM      2  O   UNL     1       1.984   5.656  18.041  0.00  0.00    +0.000 OA
ATOM      3  N   UNL     1       3.014   7.724  18.236  0.00  0.00    +0.000 N 
ATOM      4  H   UNL     1       3.874   8.211  17.989  0.00  0.00    +0.000 HD
ENDROOT
BRANCH   3   5
ATOM      5  C   UNL     1       1.950   8.505  18.734  0.00  0.00    +0.000 A 
ATOM      6  C   UNL     1       1.206   9.371  17.929  0.00  0.00    +0.000 A 
ATOM      7  C   UNL     1       0.215  10.187  18.480  0.00  0.00    +0.000 A 
ATOM      8  C   UNL     1      -0.039  10.134  19.846  0.00  0.00    +0.000 A 
ATOM      9 BR   UNL     1      -1.329  11.289  20.601  0.00  0.00    +0.000 Br
ATOM     10  C   UNL     1       0.662   9.243  20.657  0.00  0.00    +0.000 A 
ATOM     11  C   UNL     1       1.645   8.418  20.098  0.00  0.00    +0.000 A 
ENDBRANCH   3   5
BRANCH   1  16
ATOM     12  C   UNL     1       6.570   6.111  16.802  0.00  0.00    +0.000 A 
ATOM     13  C   UNL     1       6.642   4.790  16.359  0.00  0.00    +0.000 A 
ATOM     14  C   UNL     1       5.524   3.954  16.417  0.00  0.00    +0.000 A 
ATOM     15  C   UNL     1       4.320   4.438  16.928  0.00  0.00    +0.000 A 
ATOM     16  C   UNL     1       4.223   5.763  17.377  0.00  0.00    +0.000 A 
ATOM     17  C   UNL     1       5.364   6.593  17.307  0.00  0.00    +0.000 A 
BRANCH  12  19
ATOM     18  C   UNL     1       7.899   7.951  17.525  0.00  0.00    +0.000 C 
ATOM     19  O   UNL     1       7.737   6.813  16.685  0.00  0.00    +0.000 OA
ENDBRANCH  12  19
BRANCH  15  20
ATOM     20  O   UNL     1       3.241   3.594  16.984  0.00  0.00    +0.000 OA
ATOM     21  H   UNL     1       2.929   3.428  16.076  0.00  0.00    +0.000 HD
ENDBRANCH  15  20
ENDBRANCH   1  16
TORSDOF 4
ENDMDL
MODEL 6
REMARK VINA RESULT:      -6.4      5.550      6.684
REMARK  Name = 
REMARK  5 active torsions:
REMARK  status: ('A' for Active; 'I' for Inactive)
REMARK    1  A    between atoms: C_1  and  O_2
REMARK    2  A    between atoms: O_2  and  C_3
REMARK    3  A    between atoms: C_6  and  O_7
REMARK    4  A    between atoms: C_8  and  C_9
REMARK    5  A    between atoms: N_11  and  C_12
REMARK                            x       y       z     vdW  Elec       q    Type
REMARK                         _______ _______ _______ _____ _____    ______ ____
ROOT
ATOM      1  C   UNL     1       2.608   7.562  18.437  0.00  0.00    +0.000 C 
ATOM      2  O   UNL     1       2.351   7.476  19.636  0.00  0.00    +0.000 OA
ATOM      3  N   UNL     1       2.242   8.614  17.618  0.00  0.00    +0.000 N 
ATOM      4  H   UNL     1       2.430   8.492  16.625  0.00  0.00    +0.000 HD
ENDROOT
BRANCH   3   5
ATOM      5  C   UNL     1       1.531   9.770  18.003  0.00  0.00    +0.000 A 
ATOM      6  C   UNL     1       2.159  10.982  18.298  0.00  0.00    +0.000 A 
ATOM      7  C   UNL     1       1.422  12.078  18.754  0.00  0.00    +0.000 A 
ATOM      8  C   UNL     1       0.045  11.964  18.910  0.00  0.00    +0.000 A 
ATOM      9 BR   UNL     1      -0.940  13.423  19.595  0.00  0.00    +0.000 Br
ATOM     10  C   UNL     1      -0.604  10.777  18.577  0.00  0.00    +0.000 A 
ATOM     11  C   UNL     1       0.137   9.685  18.108  0.00  0.00    +0.000 A 
ENDBRANCH   3   5
BRANCH   1  16
ATOM     12  C   UNL     1       5.197   5.733  16.379  0.00  0.00    +0.000 A 
ATOM     13  C   UNL     1       4.796   4.404  16.516  0.00  0.00    +0.000 A 
ATOM     14  C   UNL     1       3.675   4.070  17.280  0.00  0.00    +0.000 A 
ATOM     15  C   UNL     1       2.947   5.073  17.921  0.00  0.00    +0.000 A 
ATOM     16  C   UNL     1       3.330   6.416  17.796  0.00  0.00    +0.000 A 
ATOM     17  C   UNL     1       4.465   6.733  17.017  0.00  0.00    +0.000 A 
BRANCH  12  19
ATOM     18  C   UNL     1       6.980   4.745  15.148  0.00  0.00    +0.000 C 
ATOM     19  O   UNL     1       6.308   5.914  15.603  0.00  0.00    +0.000 OA
ENDBRANCH  12  19
BRANCH  15  20
ATOM     20  O   UNL     1       1.858   4.717  18.674  0.00  0.00    +0.000 OA
ATOM     21  H   UNL     1       2.166   4.442  19.557  0.00  0.00    +0.000 HD
ENDBRANCH  15  20
ENDBRANCH   1  16
TORSDOF 4
ENDMDL
MODEL 7
REMARK VINA RESULT:      -6.3      5.658      7.082
REMARK  Name = 
REMARK  5 active torsions:
REMARK  status: ('A' for Active; 'I' for Inactive)
REMARK    1  A    between atoms: C_1  and  O_2
REMARK    2  A    between atoms: O_2  and  C_3
REMARK    3  A    between atoms: C_6  and  O_7
REMARK    4  A    between atoms: C_8  and  C_9
REMARK    5  A    between atoms: N_11  and  C_12
REMARK                            x       y       z     vdW  Elec       q    Type
REMARK                         _______ _______ _______ _____ _____    ______ ____
ROOT
ATOM      1  C   UNL     1       2.378   7.448  18.648  0.00  0.00    +0.000 C 
ATOM      2  O   UNL     1       2.251   7.487  19.870  0.00  0.00    +0.000 OA
ATOM      3  N   UNL     1       2.017   8.459  17.778  0.00  0.00    +0.000 N 
ATOM      4  H   UNL     1       2.080   8.238  16.786  0.00  0.00    +0.000 HD
ENDROOT
BRANCH   3   5
ATOM      5  C   UNL     1       1.457   9.707  18.126  0.00  0.00    +0.000 A 
ATOM      6  C   UNL     1       0.092   9.886  18.359  0.00  0.00    +0.000 A 
ATOM      7  C   UNL     1      -0.430  11.155  18.620  0.00  0.00    +0.000 A 
ATOM      8  C   UNL     1       0.420  12.255  18.654  0.00  0.00    +0.000 A 
ATOM      9 BR   UNL     1      -0.296  13.980  18.936  0.00  0.00    +0.000 Br
ATOM     10  C   UNL     1       1.792  12.089  18.470  0.00  0.00    +0.000 A 
ATOM     11  C   UNL     1       2.312  10.813  18.221  0.00  0.00    +0.000 A 
ENDBRANCH   3   5
BRANCH   1  16
ATOM     12  C   UNL     1       2.548   3.810  17.640  0.00  0.00    +0.000 A 
ATOM     13  C   UNL     1       3.778   3.744  16.985  0.00  0.00    +0.000 A 
ATOM     14  C   UNL     1       4.581   4.879  16.855  0.00  0.00    +0.000 A 
ATOM     15  C   UNL     1       4.152   6.098  17.380  0.00  0.00    +0.000 A 
ATOM     16  C   UNL     1       2.920   6.188  18.044  0.00  0.00    +0.000 A 
ATOM     17  C   UNL     1       2.124   5.028  18.167  0.00  0.00    +0.000 A 
BRANCH  12  19
ATOM     18  C   UNL     1       0.888   2.483  18.716  0.00  0.00    +0.000 C 
ATOM     19  O   UNL     1       1.869   2.624  17.694  0.00  0.00    +0.000 OA
ENDBRANCH  12  19
BRANCH  15  20
ATOM     20  O   UNL     1       4.954   7.199  17.228  0.00  0.00    +0.000 OA
ATOM     21  H   UNL     1       4.523   7.960  17.659  0.00  0.00    +0.000 HD
ENDBRANCH  15  20
ENDBRANCH   1  16
TORSDOF 4
ENDMDL
MODEL 8
REMARK VINA RESULT:      -6.3      5.639      6.995
REMARK  Name = 
REMARK  5 active torsions:
REMARK  status: ('A' for Active; 'I' for Inactive)
REMARK    1  A    between atoms: C_1  and  O_2
REMARK    2  A    between atoms: O_2  and  C_3
REMARK    3  A    between atoms: C_6  and  O_7
REMARK    4  A    between atoms: C_8  and  C_9
REMARK    5  A    between atoms: N_11  and  C_12
REMARK                            x       y       z     vdW  Elec       q    Type
REMARK                         _______ _______ _______ _____ _____    ______ ____
ROOT
ATOM      1  C   UNL     1       2.430   7.522  18.593  0.00  0.00    +0.000 C 
ATOM      2  O   UNL     1       2.248   7.566  19.808  0.00  0.00    +0.000 OA
ATOM      3  N   UNL     1       2.130   8.538  17.706  0.00  0.00    +0.000 N 
ATOM      4  H   UNL     1       2.234   8.312  16.718  0.00  0.00    +0.000 HD
ENDROOT
BRANCH   3   5
ATOM      5  C   UNL     1       1.583   9.798  18.025  0.00  0.00    +0.000 A 
ATOM      6  C   UNL     1       2.354  10.959  18.110  0.00  0.00    +0.000 A 
ATOM      7  C   UNL     1       1.784  12.170  18.510  0.00  0.00    +0.000 A 
ATOM      8  C   UNL     1       0.430  12.223  18.823  0.00  0.00    +0.000 A 
ATOM      9 BR   UNL     1      -0.324  13.844  19.432  0.00  0.00    +0.000 Br
ATOM     10  C   UNL     1      -0.365  11.085  18.700  0.00  0.00    +0.000 A 
ATOM     11  C   UNL     1       0.208   9.876  18.286  0.00  0.00    +0.000 A 
ENDBRANCH   3   5
BRANCH   1  16
ATOM     12  C   UNL     1       2.576   3.873  17.618  0.00  0.00    +0.000 A 
ATOM     13  C   UNL     1       3.826   3.783  17.005  0.00  0.00    +0.000 A 
ATOM     14  C   UNL     1       4.651   4.904  16.893  0.00  0.00    +0.000 A 
ATOM     15  C   UNL     1       4.223   6.134  17.395  0.00  0.00    +0.000 A 
ATOM     16  C   UNL     1       2.972   6.249  18.017  0.00  0.00    +0.000 A 
ATOM     17  C   UNL     1       2.154   5.102  18.122  0.00  0.00    +0.000 A 
BRANCH  12  19
ATOM     18  C   UNL     1       0.914   2.550  18.696  0.00  0.00    +0.000 C 
ATOM     19  O   UNL     1       1.877   2.699  17.659  0.00  0.00    +0.000 OA
ENDBRANCH  12  19
BRANCH  15  20
ATOM     20  O   UNL     1       5.048   7.221  17.262  0.00  0.00    +0.000 OA
ATOM     21  H   UNL     1       5.581   7.308  18.073  0.00  0.00    +0.000 HD
ENDBRANCH  15  20
ENDBRANCH   1  16
TORSDOF 4
ENDMDL
MODEL 9
REMARK VINA RESULT:      -6.3      4.962      6.243
REMARK  Name = 
REMARK  5 active torsions:
REMARK  status: ('A' for Active; 'I' for Inactive)
REMARK    1  A    between atoms: C_1  and  O_2
REMARK    2  A    between atoms: O_2  and  C_3
REMARK    3  A    between atoms: C_6  and  O_7
REMARK    4  A    between atoms: C_8  and  C_9
REMARK    5  A    between atoms: N_11  and  C_12
REMARK                            x       y       z     vdW  Elec       q    Type
REMARK                         _______ _______ _______ _____ _____    ______ ____
ROOT
ATOM      1  C   UNL     1       2.581   7.665  18.200  0.00  0.00    +0.000 C 
ATOM      2  O   UNL     1       2.428   8.619  17.440  0.00  0.00    +0.000 OA
ATOM      3  N   UNL     1       2.093   7.590  19.490  0.00  0.00    +0.000 N 
ATOM      4  H   UNL     1       2.395   6.784  20.035  0.00  0.00    +0.000 HD
ENDROOT
BRANCH   3   5
ATOM      5  C   UNL     1       1.328   8.569  20.158  0.00  0.00    +0.000 A 
ATOM      6  C   UNL     1       0.718   9.636  19.493  0.00  0.00    +0.000 A 
ATOM      7  C   UNL     1       0.039  10.628  20.205  0.00  0.00    +0.000 A 
ATOM      8  C   UNL     1      -0.036  10.552  21.591  0.00  0.00    +0.000 A 
ATOM      9 BR   UNL     1      -0.892  11.932  22.556  0.00  0.00    +0.000 Br
ATOM     10  C   UNL     1       0.528   9.472  22.267  0.00  0.00    +0.000 A 
ATOM     11  C   UNL     1       1.196   8.472  21.549  0.00  0.00    +0.000 A 
ENDBRANCH   3   5
BRANCH   1  16
ATOM     12  C   UNL     1       5.401   5.820  16.488  0.00  0.00    +0.000 A 
ATOM     13  C   UNL     1       5.061   4.486  16.718  0.00  0.00    +0.000 A 
ATOM     14  C   UNL     1       3.910   4.155  17.435  0.00  0.00    +0.000 A 
ATOM     15  C   UNL     1       3.087   5.165  17.934  0.00  0.00    +0.000 A 
ATOM     16  C   UNL     1       3.406   6.512  17.713  0.00  0.00    +0.000 A 
ATOM     17  C   UNL     1       4.574   6.826  16.984  0.00  0.00    +0.000 A 
BRANCH  12  19
ATOM     18  C   UNL     1       6.998   4.907  14.976  0.00  0.00    +0.000 C 
ATOM     19  O   UNL     1       6.552   5.998  15.773  0.00  0.00    +0.000 OA
ENDBRANCH  12  19
BRANCH  15  20
ATOM     20  O   UNL     1       1.968   4.812  18.644  0.00  0.00    +0.000 OA
ATOM     21  H   UNL     1       1.265   4.565  18.014  0.00  0.00    +0.000 HD
ENDBRANCH  15  20
ENDBRANCH   1  16
TORSDOF 4
ENDMDL
