MODEL 1
REMARK VINA RESULT:      -8.9      0.000      0.000
REMARK  Name = 
REMARK  10 active torsions:
REMARK  status: ('A' for Active; 'I' for Inactive)
REMARK    1  A    between atoms: C_1  and  C_2
REMARK    2  A    between atoms: N_4  and  C_5
REMARK    3  A    between atoms: C_5  and  C_6
REMARK    4  A    between atoms: C_6  and  C_7
REMARK    5  A    between atoms: C_7  and  N_8
REMARK    6  A    between atoms: C_13  and  O_14
REMARK    7  A    between atoms: O_14  and  C_15
REMARK    8  A    between atoms: C_15  and  C_16
REMARK    9  A    between atoms: C_20  and  C_21
REMARK   10  A    between atoms: C_27  and  C_28
REMARK                            x       y       z     vdW  Elec       q    Type
REMARK                         _______ _______ _______ _____ _____    ______ ____
ROOT
ATOM      1  N   UNL     1       7.942   8.741  17.760  0.00  0.00    +0.000 N 
ATOM      2  C   UNL     1       7.874   7.368  17.946  0.00  0.00    +0.000 A 
ATOM      3  N   UNL     1       8.169   6.842  19.132  0.00  0.00    +0.000 NA
ATOM      4  C   UNL     1       8.016   5.522  19.217  0.00  0.00    +0.000 A 
ATOM      5  N   UNL     1       7.615   4.716  18.244  0.00  0.00    +0.000 NA
ATOM      6  C   UNL     1       7.369   5.346  17.103  0.00  0.00    +0.000 A 
ATOM      7  N   UNL     1       7.484   6.658  16.893  0.00  0.00    +0.000 NA
ATOM      8  H   UNL     1       8.010   8.913  16.762  0.00  0.00    +0.000 HD
ENDROOT
BRANCH   1   9
ATOM      9  C   UNL     1       8.888   9.454  18.600  0.00  0.00    +0.000 C 
BRANCH   9  10
ATOM     10  C   UNL     1       9.182  10.831  18.004  0.00  0.00    +0.000 C 
BRANCH  10  11
ATOM     11  C   UNL     1      10.261  11.545  18.813  0.00  0.00    +0.000 C 
BRANCH  11  15
ATOM     12  C   UNL     1      10.085  15.293  18.314  0.00  0.00    +0.000 C 
ATOM     13  C   UNL     1      10.431  13.866  17.985  0.00  0.00    +0.000 C 
ATOM     14  O   UNL     1      11.032  13.547  16.966  0.00  0.00    +0.000 OA
ATOM     15  N   UNL     1      10.008  12.966  18.938  0.00  0.00    +0.000 N 
ATOM     16  H   UNL     1       9.446  13.294  19.713  0.00  0.00    +0.000 HD
ENDBRANCH  11  15
ENDBRANCH  10  11
ENDBRANCH   9  10
ENDBRANCH   1   9
BRANCH   6  17
ATOM     17  O   UNL     1       6.817   4.561  16.115  0.00  0.00    +0.000 OA
BRANCH  17  18
ATOM     18  C   UNL     1       5.760   5.219  15.425  0.00  0.00    +0.000 C 
BRANCH  18  19
ATOM     19  C   UNL     1       4.701   5.662  16.426  0.00  0.00    +0.000 A 
ATOM     20  C   UNL     1       4.444   7.036  16.542  0.00  0.00    +0.000 A 
ATOM     21  C   UNL     1       3.554   7.509  17.496  0.00  0.00    +0.000 A 
ATOM     22  C   UNL     1       2.944   6.619  18.381  0.00  0.00    +0.000 A 
ATOM     23  C   UNL     1       3.144   5.222  18.306  0.00  0.00    +0.000 A 
ATOM     24  C   UNL     1       3.985   4.744  17.251  0.00  0.00    +0.000 A 
ATOM     25  C   UNL     1       4.146   3.268  16.962  0.00  0.00    +0.000 C 
BRANCH  23  26
ATOM     26  C   UNL     1       2.475   4.335  19.313  0.00  0.00    +0.000 A 
ATOM     27  C   UNL     1       2.942   4.225  20.638  0.00  0.00    +0.000 A 
ATOM     28  C   UNL     1       2.274   3.446  21.595  0.00  0.00    +0.000 A 
ATOM     29  C   UNL     1       1.100   2.782  21.259  0.00  0.00    +0.000 A 
ATOM     30  C   UNL     1       0.639   2.832  19.951  0.00  0.00    +0.000 A 
ATOM     31  C   UNL     1       1.349   3.557  18.988  0.00  0.00    +0.000 A 
ENDBRANCH  23  26
ENDBRANCH  18  19
ENDBRANCH  17  18
ENDBRANCH   6  17
TORSDOF 8
ENDMDL
MODEL 2
REMARK VINA RESULT:      -8.6      1.689      2.950
REMARK  Name = 
REMARK  10 active torsions:
REMARK  status: ('A' for Active; 'I' for Inactive)
REMARK    1  A    between atoms: C_1  and  C_2
REMARK    2  A    between atoms: N_4  and  C_5
REMARK    3  A    between atoms: C_5  and  C_6
REMARK    4  A    between atoms: C_6  and  C_7
REMARK    5  A    between atoms: C_7  and  N_8
REMARK    6  A    between atoms: C_13  and  O_14
REMARK    7  A    between atoms: O_14  and  C_15
REMARK    8  A    between atoms: C_15  and  C_16
REMARK    9  A    between atoms: C_20  and  C_21
REMARK   10  A    between atoms: C_27  and  C_28
REMARK                            x       y       z     vdW  Elec       q    Type
REMARK                         _______ _______ _______ _____ _____    ______ ____
ROOT
ATOM      1  N   UNL     1       7.871   8.649  17.631  0.00  0.00    +0.000 N 
ATOM      2  C   UNL     1       7.815   7.278  17.838  0.00  0.00    +0.000 A 
ATOM      3  N   UNL     1       8.130   6.772  19.028  0.00  0.00    +0.000 NA
ATOM      4  C   UNL     1       7.987   5.453  19.135  0.00  0.00    +0.000 A 
ATOM      5  N   UNL     1       7.578   4.630  18.180  0.00  0.00    +0.000 NA
ATOM      6  C   UNL     1       7.312   5.240  17.033  0.00  0.00    +0.000 A 
ATOM      7  N   UNL     1       7.414   6.549  16.802  0.00  0.00    +0.000 NA
ATOM      8  H   UNL     1       7.923   8.806  16.629  0.00  0.00    +0.000 HD
ENDROOT
BRANCH   1   9
ATOM      9  C   UNL     1       8.823   9.381  18.446  0.00  0.00    +0.000 C 
BRANCH   9  10
ATOM     10  C   UNL     1       8.852  10.850  18.025  0.00  0.00    +0.000 C 
BRANCH  10  11
ATOM     11  C   UNL     1      10.278  11.391  18.065  0.00  0.00    +0.000 C 
BRANCH  11  15
ATOM     12  C   UNL     1      10.661  14.173  20.603  0.00  0.00    +0.000 C 
ATOM     13  C   UNL     1      10.632  12.758  20.091  0.00  0.00    +0.000 C 
ATOM     14  O   UNL     1      10.825  11.787  20.814  0.00  0.00    +0.000 OA
ATOM     15  N   UNL     1      10.367  12.668  18.743  0.00  0.00    +0.000 N 
ATOM     16  H   UNL     1      10.299  13.516  18.195  0.00  0.00    +0.000 HD
ENDBRANCH  11  15
ENDBRANCH  10  11
ENDBRANCH   9  10
ENDBRANCH   1   9
BRANCH   6  17
ATOM     17  O   UNL     1       6.751   4.437  16.065  0.00  0.00    +0.000 OA
BRANCH  17  18
ATOM     18  C   UNL     1       5.501   4.935  15.602  0.00  0.00    +0.000 C 
BRANCH  18  19
ATOM     19  C   UNL     1       4.497   4.927  16.748  0.00  0.00    +0.000 A 
ATOM     20  C   UNL     1       4.086   3.684  17.250  0.00  0.00    +0.000 A 
ATOM     21  C   UNL     1       3.110   3.609  18.234  0.00  0.00    +0.000 A 
ATOM     22  C   UNL     1       2.495   4.774  18.695  0.00  0.00    +0.000 A 
ATOM     23  C   UNL     1       2.875   6.058  18.245  0.00  0.00    +0.000 A 
ATOM     24  C   UNL     1       3.954   6.122  17.306  0.00  0.00    +0.000 A 
ATOM     25  C   UNL     1       4.562   7.439  16.876  0.00  0.00    +0.000 C 
BRANCH  23  26
ATOM     26  C   UNL     1       2.146   7.259  18.768  0.00  0.00    +0.000 A 
ATOM     27  C   UNL     1       1.876   7.430  20.141  0.00  0.00    +0.000 A 
ATOM     28  C   UNL     1       1.253   8.585  20.634  0.00  0.00    +0.000 A 
ATOM     29  C   UNL     1       0.912   9.619  19.769  0.00  0.00    +0.000 A 
ATOM     30  C   UNL     1       1.122   9.463  18.406  0.00  0.00    +0.000 A 
ATOM     31  C   UNL     1       1.682   8.279  17.916  0.00  0.00    +0.000 A 
ENDBRANCH  23  26
ENDBRANCH  18  19
ENDBRANCH  17  18
ENDBRANCH   6  17
TORSDOF 8
ENDMDL
MODEL 3
REMARK VINA RESULT:      -8.4      4.494      7.213
REMARK  Name = 
REMARK  10 active torsions:
REMARK  status: ('A' for Active; 'I' for Inactive)
REMARK    1  A    between atoms: C_1  and  C_2
REMARK    2  A    between atoms: N_4  and  C_5
REMARK    3  A    between atoms: C_5  and  C_6
REMARK    4  A    between atoms: C_6  and  C_7
REMARK    5  A    between atoms: C_7  and  N_8
REMARK    6  A    between atoms: C_13  and  O_14
REMARK    7  A    between atoms: O_14  and  C_15
REMARK    8  A    between atoms: C_15  and  C_16
REMARK    9  A    between atoms: C_20  and  C_21
REMARK   10  A    between atoms: C_27  and  C_28
REMARK                            x       y       z     vdW  Elec       q    Type
REMARK                         _______ _______ _______ _____ _____    ______ ____
ROOT
ATOM      1  N   UNL     1       6.478   5.601  15.324  0.00  0.00    +0.000 N 
ATOM      2  C   UNL     1       6.577   5.430  16.698  0.00  0.00    +0.000 A 
ATOM      3  N   UNL     1       7.770   5.260  17.262  0.00  0.00    +0.000 NA
ATOM      4  C   UNL     1       7.757   5.164  18.590  0.00  0.00    +0.000 A 
ATOM      5  N   UNL     1       6.685   5.214  19.368  0.00  0.00    +0.000 NA
ATOM      6  C   UNL     1       5.550   5.365  18.696  0.00  0.00    +0.000 A 
ATOM      7  N   UNL     1       5.433   5.475  17.373  0.00  0.00    +0.000 NA
ATOM      8  H   UNL     1       5.521   5.387  15.057  0.00  0.00    +0.000 HD
ENDROOT
BRANCH   1   9
ATOM      9  C   UNL     1       7.521   4.984  14.526  0.00  0.00    +0.000 C 
BRANCH   9  10
ATOM     10  C   UNL     1       6.918   4.369  13.262  0.00  0.00    +0.000 C 
BRANCH  10  11
ATOM     11  C   UNL     1       5.612   3.650  13.588  0.00  0.00    +0.000 C 
BRANCH  11  15
ATOM     12  C   UNL     1       3.455   3.293  10.498  0.00  0.00    +0.000 C 
ATOM     13  C   UNL     1       4.541   2.941  11.478  0.00  0.00    +0.000 C 
ATOM     14  O   UNL     1       5.279   1.973  11.330  0.00  0.00    +0.000 OA
ATOM     15  N   UNL     1       4.619   3.809  12.544  0.00  0.00    +0.000 N 
ATOM     16  H   UNL     1       3.924   4.537  12.641  0.00  0.00    +0.000 HD
ENDBRANCH  11  15
ENDBRANCH  10  11
ENDBRANCH   9  10
ENDBRANCH   1   9
BRANCH   6  17
ATOM     17  O   UNL     1       4.435   5.563  19.481  0.00  0.00    +0.000 OA
BRANCH  17  18
ATOM     18  C   UNL     1       3.228   5.537  18.727  0.00  0.00    +0.000 C 
BRANCH  18  19
ATOM     19  C   UNL     1       2.604   6.927  18.724  0.00  0.00    +0.000 A 
ATOM     20  C   UNL     1       2.882   7.767  17.636  0.00  0.00    +0.000 A 
ATOM     21  C   UNL     1       2.414   9.073  17.616  0.00  0.00    +0.000 A 
ATOM     22  C   UNL     1       1.703   9.575  18.707  0.00  0.00    +0.000 A 
ATOM     23  C   UNL     1       1.373   8.777  19.825  0.00  0.00    +0.000 A 
ATOM     24  C   UNL     1       1.775   7.404  19.782  0.00  0.00    +0.000 A 
ATOM     25  C   UNL     1       1.341   6.410  20.837  0.00  0.00    +0.000 C 
BRANCH  23  26
ATOM     26  C   UNL     1       0.632   9.399  20.970  0.00  0.00    +0.000 A 
ATOM     27  C   UNL     1      -0.360  10.382  20.773  0.00  0.00    +0.000 A 
ATOM     28  C   UNL     1      -1.097  10.912  21.841  0.00  0.00    +0.000 A 
ATOM     29  C   UNL     1      -0.887  10.448  23.135  0.00  0.00    +0.000 A 
ATOM     30  C   UNL     1       0.112   9.514  23.369  0.00  0.00    +0.000 A 
ATOM     31  C   UNL     1       0.889   9.041  22.307  0.00  0.00    +0.000 A 
ENDBRANCH  23  26
ENDBRANCH  18  19
ENDBRANCH  17  18
ENDBRANCH   6  17
TORSDOF 8
ENDMDL
MODEL 4
REMARK VINA RESULT:      -8.3      4.320      7.102
REMARK  Name = 
REMARK  10 active torsions:
REMARK  status: ('A' for Active; 'I' for Inactive)
REMARK    1  A    between atoms: C_1  and  C_2
REMARK    2  A    between atoms: N_4  and  C_5
REMARK    3  A    between atoms: C_5  and  C_6
REMARK    4  A    between atoms: C_6  and  C_7
REMARK    5  A    between atoms: C_7  and  N_8
REMARK    6  A    between atoms: C_13  and  O_14
REMARK    7  A    between atoms: O_14  and  C_15
REMARK    8  A    between atoms: C_15  and  C_16
REMARK    9  A    between atoms: C_20  and  C_21
REMARK   10  A    between atoms: C_27  and  C_28
REMARK                            x       y       z     vdW  Elec       q    Type
REMARK                         _______ _______ _______ _____ _____    ______ ____
ROOT
ATOM      1  N   UNL     1       5.201   3.789  17.776  0.00  0.00    +0.000 N 
ATOM      2  C   UNL     1       3.840   3.806  18.047  0.00  0.00    +0.000 A 
ATOM      3  N   UNL     1       3.029   2.945  17.436  0.00  0.00    +0.000 NA
ATOM      4  C   UNL     1       1.754   3.008  17.811  0.00  0.00    +0.000 A 
ATOM      5  N   UNL     1       1.242   3.839  18.709  0.00  0.00    +0.000 NA
ATOM      6  C   UNL     1       2.137   4.664  19.237  0.00  0.00    +0.000 A 
ATOM      7  N   UNL     1       3.437   4.697  18.946  0.00  0.00    +0.000 NA
ATOM      8  H   UNL     1       5.581   4.686  18.061  0.00  0.00    +0.000 HD
ENDROOT
BRANCH   1   9
ATOM      9  C   UNL     1       5.585   3.318  16.457  0.00  0.00    +0.000 C 
BRANCH   9  10
ATOM     10  C   UNL     1       5.755   4.504  15.507  0.00  0.00    +0.000 C 
BRANCH  10  11
ATOM     11  C   UNL     1       7.215   4.944  15.457  0.00  0.00    +0.000 C 
BRANCH  11  15
ATOM     12  C   UNL     1       7.653   8.025  17.611  0.00  0.00    +0.000 C 
ATOM     13  C   UNL     1       7.473   6.563  17.304  0.00  0.00    +0.000 C 
ATOM     14  O   UNL     1       7.394   5.707  18.177  0.00  0.00    +0.000 OA
ATOM     15  N   UNL     1       7.405   6.291  15.956  0.00  0.00    +0.000 N 
ATOM     16  H   UNL     1       7.559   7.039  15.292  0.00  0.00    +0.000 HD
ENDBRANCH  11  15
ENDBRANCH  10  11
ENDBRANCH   9  10
ENDBRANCH   1   9
BRANCH   6  17
ATOM     17  O   UNL     1       1.668   5.441  20.273  0.00  0.00    +0.000 OA
BRANCH  17  18
ATOM     18  C   UNL     1       2.493   6.574  20.520  0.00  0.00    +0.000 C 
BRANCH  18  19
ATOM     19  C   UNL     1       1.963   7.766  19.733  0.00  0.00    +0.000 A 
ATOM     20  C   UNL     1       2.374   7.904  18.399  0.00  0.00    +0.000 A 
ATOM     21  C   UNL     1       1.996   9.013  17.656  0.00  0.00    +0.000 A 
ATOM     22  C   UNL     1       1.243  10.026  18.251  0.00  0.00    +0.000 A 
ATOM     23  C   UNL     1       0.781   9.941  19.583  0.00  0.00    +0.000 A 
ATOM     24  C   UNL     1       1.094   8.743  20.302  0.00  0.00    +0.000 A 
ATOM     25  C   UNL     1       0.519   8.459  21.673  0.00  0.00    +0.000 C 
BRANCH  23  26
ATOM     26  C   UNL     1       0.001  11.085  20.159  0.00  0.00    +0.000 A 
ATOM     27  C   UNL     1      -1.343  11.324  19.809  0.00  0.00    +0.000 A 
ATOM     28  C   UNL     1      -2.089  12.354  20.400  0.00  0.00    +0.000 A 
ATOM     29  C   UNL     1      -1.519  13.154  21.384  0.00  0.00    +0.000 A 
ATOM     30  C   UNL     1      -0.184  12.975  21.718  0.00  0.00    +0.000 A 
ATOM     31  C   UNL     1       0.571  11.989  21.075  0.00  0.00    +0.000 A 
ENDBRANCH  23  26
ENDBRANCH  18  19
ENDBRANCH  17  18
ENDBRANCH   6  17
TORSDOF 8
ENDMDL
MODEL 5
REMARK VINA RESULT:      -8.3      6.819      9.635
REMARK  Name = 
REMARK  10 active torsions:
REMARK  status: ('A' for Active; 'I' for Inactive)
REMARK    1  A    between atoms: C_1  and  C_2
REMARK    2  A    between atoms: N_4  and  C_5
REMARK    3  A    between atoms: C_5  and  C_6
REMARK    4  A    between atoms: C_6  and  C_7
REMARK    5  A    between atoms: C_7  and  N_8
REMARK    6  A    between atoms: C_13  and  O_14
REMARK    7  A    between atoms: O_14  and  C_15
REMARK    8  A    between atoms: C_15  and  C_16
REMARK    9  A    between atoms: C_20  and  C_21
REMARK   10  A    between atoms: C_27  and  C_28
REMARK                            x       y       z     vdW  Elec       q    Type
REMARK                         _______ _______ _______ _____ _____    ______ ____
ROOT
ATOM      1  N   UNL     1      -2.764   9.987  17.698  0.00  0.00    +0.000 N 
ATOM      2  C   UNL     1      -1.691  10.751  18.135  0.00  0.00    +0.000 A 
ATOM      3  N   UNL     1      -1.660  12.058  17.886  0.00  0.00    +0.000 NA
ATOM      4  C   UNL     1      -0.616  12.705  18.399  0.00  0.00    +0.000 A 
ATOM      5  N   UNL     1       0.368  12.167  19.106  0.00  0.00    +0.000 NA
ATOM      6  C   UNL     1       0.244  10.857  19.273  0.00  0.00    +0.000 A 
ATOM      7  N   UNL     1      -0.752  10.100  18.813  0.00  0.00    +0.000 NA
ATOM      8  H   UNL     1      -2.464   9.017  17.683  0.00  0.00    +0.000 HD
ENDROOT
BRANCH   1   9
ATOM      9  C   UNL     1      -3.449  10.466  16.511  0.00  0.00    +0.000 C 
BRANCH   9  10
ATOM     10  C   UNL     1      -3.262   9.473  15.363  0.00  0.00    +0.000 C 
BRANCH  10  11
ATOM     11  C   UNL     1      -3.288  10.198  14.020  0.00  0.00    +0.000 C 
BRANCH  11  15
ATOM     12  C   UNL     1      -6.052   9.622  11.499  0.00  0.00    +0.000 C 
ATOM     13  C   UNL     1      -4.641   9.689  12.017  0.00  0.00    +0.000 C 
ATOM     14  O   UNL     1      -3.665   9.440  11.318  0.00  0.00    +0.000 OA
ATOM     15  N   UNL     1      -4.560  10.058  13.341  0.00  0.00    +0.000 N 
ATOM     16  H   UNL     1      -5.412  10.169  13.876  0.00  0.00    +0.000 HD
ENDBRANCH  11  15
ENDBRANCH  10  11
ENDBRANCH   9  10
ENDBRANCH   1   9
BRANCH   6  17
ATOM     17  O   UNL     1       1.171  10.291  20.121  0.00  0.00    +0.000 OA
BRANCH  17  18
ATOM     18  C   UNL     1       0.940   8.903  20.331  0.00  0.00    +0.000 C 
BRANCH  18  19
ATOM     19  C   UNL     1       1.873   8.094  19.438  0.00  0.00    +0.000 A 
ATOM     20  C   UNL     1       2.527   8.766  18.396  0.00  0.00    +0.000 A 
ATOM     21  C   UNL     1       3.321   8.069  17.496  0.00  0.00    +0.000 A 
ATOM     22  C   UNL     1       3.433   6.682  17.596  0.00  0.00    +0.000 A 
ATOM     23  C   UNL     1       2.817   5.946  18.633  0.00  0.00    +0.000 A 
ATOM     24  C   UNL     1       2.086   6.694  19.611  0.00  0.00    +0.000 A 
ATOM     25  C   UNL     1       1.522   6.046  20.856  0.00  0.00    +0.000 C 
BRANCH  23  26
ATOM     26  C   UNL     1       2.962   4.454  18.655  0.00  0.00    +0.000 A 
ATOM     27  C   UNL     1       2.005   3.602  18.067  0.00  0.00    +0.000 A 
ATOM     28  C   UNL     1       2.177   2.211  18.030  0.00  0.00    +0.000 A 
ATOM     29  C   UNL     1       3.331   1.635  18.551  0.00  0.00    +0.000 A 
ATOM     30  C   UNL     1       4.271   2.442  19.177  0.00  0.00    +0.000 A 
ATOM     31  C   UNL     1       4.058   3.821  19.269  0.00  0.00    +0.000 A 
ENDBRANCH  23  26
ENDBRANCH  18  19
ENDBRANCH  17  18
ENDBRANCH   6  17
TORSDOF 8
ENDMDL
MODEL 6
REMARK VINA RESULT:      -8.3      4.952      7.986
REMARK  Name = 
REMARK  10 active torsions:
REMARK  status: ('A' for Active; 'I' for Inactive)
REMARK    1  A    between atoms: C_1  and  C_2
REMARK    2  A    between atoms: N_4  and  C_5
REMARK    3  A    between atoms: C_5  and  C_6
REMARK    4  A    between atoms: C_6  and  C_7
REMARK    5  A    between atoms: C_7  and  N_8
REMARK    6  A    between atoms: C_13  and  O_14
REMARK    7  A    between atoms: O_14  and  C_15
REMARK    8  A    between atoms: C_15  and  C_16
REMARK    9  A    between atoms: C_20  and  C_21
REMARK   10  A    between atoms: C_27  and  C_28
REMARK                            x       y       z     vdW  Elec       q    Type
REMARK                         _______ _______ _______ _____ _____    ______ ____
ROOT
ATOM      1  N   UNL     1       6.208   5.846  16.118  0.00  0.00    +0.000 N 
ATOM      2  C   UNL     1       5.414   5.349  17.141  0.00  0.00    +0.000 A 
ATOM      3  N   UNL     1       5.894   4.422  17.966  0.00  0.00    +0.000 NA
ATOM      4  C   UNL     1       5.070   4.057  18.946  0.00  0.00    +0.000 A 
ATOM      5  N   UNL     1       3.847   4.523  19.154  0.00  0.00    +0.000 NA
ATOM      6  C   UNL     1       3.465   5.426  18.260  0.00  0.00    +0.000 A 
ATOM      7  N   UNL     1       4.196   5.873  17.239  0.00  0.00    +0.000 NA
ATOM      8  H   UNL     1       5.593   6.268  15.429  0.00  0.00    +0.000 HD
ENDROOT
BRANCH   1   9
ATOM      9  C   UNL     1       7.226   4.948  15.605  0.00  0.00    +0.000 C 
BRANCH   9  10
ATOM     10  C   UNL     1       7.132   4.867  14.081  0.00  0.00    +0.000 C 
BRANCH  10  11
ATOM     11  C   UNL     1       5.931   4.023  13.663  0.00  0.00    +0.000 C 
BRANCH  11  15
ATOM     12  C   UNL     1       6.094   1.297  11.042  0.00  0.00    +0.000 C 
ATOM     13  C   UNL     1       5.536   2.493  11.764  0.00  0.00    +0.000 C 
ATOM     14  O   UNL     1       4.493   3.043  11.429  0.00  0.00    +0.000 OA
ATOM     15  N   UNL     1       6.309   2.899  12.830  0.00  0.00    +0.000 N 
ATOM     16  H   UNL     1       7.198   2.447  12.996  0.00  0.00    +0.000 HD
ENDBRANCH  11  15
ENDBRANCH  10  11
ENDBRANCH   9  10
ENDBRANCH   1   9
BRANCH   6  17
ATOM     17  O   UNL     1       2.258   6.032  18.528  0.00  0.00    +0.000 OA
BRANCH  17  18
ATOM     18  C   UNL     1       2.290   6.803  19.725  0.00  0.00    +0.000 C 
BRANCH  18  19
ATOM     19  C   UNL     1       1.796   8.214  19.430  0.00  0.00    +0.000 A 
ATOM     20  C   UNL     1       2.105   8.768  18.179  0.00  0.00    +0.000 A 
ATOM     21  C   UNL     1       1.758  10.079  17.884  0.00  0.00    +0.000 A 
ATOM     22  C   UNL     1       1.142  10.872  18.853  0.00  0.00    +0.000 A 
ATOM     23  C   UNL     1       0.787  10.370  20.126  0.00  0.00    +0.000 A 
ATOM     24  C   UNL     1       1.059   8.987  20.376  0.00  0.00    +0.000 A 
ATOM     25  C   UNL     1       0.580   8.292  21.631  0.00  0.00    +0.000 C 
BRANCH  23  26
ATOM     26  C   UNL     1       0.154  11.294  21.123  0.00  0.00    +0.000 A 
ATOM     27  C   UNL     1       0.373  12.686  21.095  0.00  0.00    +0.000 A 
ATOM     28  C   UNL     1      -0.274  13.554  21.987  0.00  0.00    +0.000 A 
ATOM     29  C   UNL     1      -1.185  13.056  22.911  0.00  0.00    +0.000 A 
ATOM     30  C   UNL     1      -1.389  11.686  22.995  0.00  0.00    +0.000 A 
ATOM     31  C   UNL     1      -0.688  10.822  22.146  0.00  0.00    +0.000 A 
ENDBRANCH  23  26
ENDBRANCH  18  19
ENDBRANCH  17  18
ENDBRANCH   6  17
TORSDOF 8
ENDMDL
MODEL 7
REMARK VINA RESULT:      -8.1      2.081      3.381
REMARK  Name = 
REMARK  10 active torsions:
REMARK  status: ('A' for Active; 'I' for Inactive)
REMARK    1  A    between atoms: C_1  and  C_2
REMARK    2  A    between atoms: N_4  and  C_5
REMARK    3  A    between atoms: C_5  and  C_6
REMARK    4  A    between atoms: C_6  and  C_7
REMARK    5  A    between atoms: C_7  and  N_8
REMARK    6  A    between atoms: C_13  and  O_14
REMARK    7  A    between atoms: O_14  and  C_15
REMARK    8  A    between atoms: C_15  and  C_16
REMARK    9  A    between atoms: C_20  and  C_21
REMARK   10  A    between atoms: C_27  and  C_28
REMARK                            x       y       z     vdW  Elec       q    Type
REMARK                         _______ _______ _______ _____ _____    ______ ____
ROOT
ATOM      1  N   UNL     1       7.402   8.371  17.290  0.00  0.00    +0.000 N 
ATOM      2  C   UNL     1       7.354   7.070  17.768  0.00  0.00    +0.000 A 
ATOM      3  N   UNL     1       8.074   6.726  18.834  0.00  0.00    +0.000 NA
ATOM      4  C   UNL     1       7.910   5.470  19.244  0.00  0.00    +0.000 A 
ATOM      5  N   UNL     1       7.120   4.562  18.688  0.00  0.00    +0.000 NA
ATOM      6  C   UNL     1       6.468   5.009  17.622  0.00  0.00    +0.000 A 
ATOM      7  N   UNL     1       6.546   6.240  17.117  0.00  0.00    +0.000 NA
ATOM      8  H   UNL     1       7.074   8.357  16.329  0.00  0.00    +0.000 HD
ENDROOT
BRANCH   1   9
ATOM      9  C   UNL     1       8.634   9.099  17.536  0.00  0.00    +0.000 C 
BRANCH   9  10
ATOM     10  C   UNL     1       8.396  10.192  18.579  0.00  0.00    +0.000 C 
BRANCH  10  11
ATOM     11  C   UNL     1       9.696  10.931  18.884  0.00  0.00    +0.000 C 
BRANCH  11  15
ATOM     12  C   UNL     1      11.467  13.341  16.564  0.00  0.00    +0.000 C 
ATOM     13  C   UNL     1      11.331  12.325  17.666  0.00  0.00    +0.000 C 
ATOM     14  O   UNL     1      12.286  11.927  18.322  0.00  0.00    +0.000 OA
ATOM     15  N   UNL     1      10.037  11.896  17.858  0.00  0.00    +0.000 N 
ATOM     16  H   UNL     1       9.313  12.208  17.224  0.00  0.00    +0.000 HD
ENDBRANCH  11  15
ENDBRANCH  10  11
ENDBRANCH   9  10
ENDBRANCH   1   9
BRANCH   6  17
ATOM     17  O   UNL     1       5.534   4.137  17.107  0.00  0.00    +0.000 OA
BRANCH  17  18
ATOM     18  C   UNL     1       4.290   4.772  16.833  0.00  0.00    +0.000 C 
BRANCH  18  19
ATOM     19  C   UNL     1       3.575   5.071  18.145  0.00  0.00    +0.000 A 
ATOM     20  C   UNL     1       3.325   3.998  19.013  0.00  0.00    +0.000 A 
ATOM     21  C   UNL     1       2.602   4.191  20.182  0.00  0.00    +0.000 A 
ATOM     22  C   UNL     1       2.075   5.449  20.475  0.00  0.00    +0.000 A 
ATOM     23  C   UNL     1       2.305   6.575  19.653  0.00  0.00    +0.000 A 
ATOM     24  C   UNL     1       3.139   6.380  18.506  0.00  0.00    +0.000 A 
ATOM     25  C   UNL     1       3.594   7.536  17.642  0.00  0.00    +0.000 C 
BRANCH  23  26
ATOM     26  C   UNL     1       1.679   7.887  20.022  0.00  0.00    +0.000 A 
ATOM     27  C   UNL     1       1.404   8.880  19.060  0.00  0.00    +0.000 A 
ATOM     28  C   UNL     1       0.758  10.078  19.398  0.00  0.00    +0.000 A 
ATOM     29  C   UNL     1       0.336  10.300  20.704  0.00  0.00    +0.000 A 
ATOM     30  C   UNL     1       0.632   9.363  21.684  0.00  0.00    +0.000 A 
ATOM     31  C   UNL     1       1.337   8.202  21.350  0.00  0.00    +0.000 A 
ENDBRANCH  23  26
ENDBRANCH  18  19
ENDBRANCH  17  18
ENDBRANCH   6  17
TORSDOF 8
ENDMDL
MODEL 8
REMARK VINA RESULT:      -8.1      5.448      7.783
REMARK  Name = 
REMARK  10 active torsions:
REMARK  status: ('A' for Active; 'I' for Inactive)
REMARK    1  A    between atoms: C_1  and  C_2
REMARK    2  A    between atoms: N_4  and  C_5
REMARK    3  A    between atoms: C_5  and  C_6
REMARK    4  A    between atoms: C_6  and  C_7
REMARK    5  A    between atoms: C_7  and  N_8
REMARK    6  A    between atoms: C_13  and  O_14
REMARK    7  A    between atoms: O_14  and  C_15
REMARK    8  A    between atoms: C_15  and  C_16
REMARK    9  A    between atoms: C_20  and  C_21
REMARK   10  A    between atoms: C_27  and  C_28
REMARK                            x       y       z     vdW  Elec       q    Type
REMARK                         _______ _______ _______ _____ _____    ______ ____
ROOT
ATOM      1  N   UNL     1       3.867   5.135  17.414  0.00  0.00    +0.000 N 
ATOM      2  C   UNL     1       3.258   4.924  18.643  0.00  0.00    +0.000 A 
ATOM      3  N   UNL     1       3.596   3.868  19.379  0.00  0.00    +0.000 NA
ATOM      4  C   UNL     1       2.995   3.791  20.564  0.00  0.00    +0.000 A 
ATOM      5  N   UNL     1       2.110   4.650  21.049  0.00  0.00    +0.000 NA
ATOM      6  C   UNL     1       1.834   5.650  20.222  0.00  0.00    +0.000 A 
ATOM      7  N   UNL     1       2.368   5.837  19.016  0.00  0.00    +0.000 NA
ATOM      8  H   UNL     1       3.271   5.762  16.880  0.00  0.00    +0.000 HD
ENDROOT
BRANCH   1   9
ATOM      9  C   UNL     1       4.337   3.950  16.719  0.00  0.00    +0.000 C 
BRANCH   9  10
ATOM     10  C   UNL     1       5.848   4.036  16.502  0.00  0.00    +0.000 C 
BRANCH  10  11
ATOM     11  C   UNL     1       6.199   5.263  15.665  0.00  0.00    +0.000 C 
BRANCH  11  15
ATOM     12  C   UNL     1       7.904   7.932  17.738  0.00  0.00    +0.000 C 
ATOM     13  C   UNL     1       6.757   7.140  17.170  0.00  0.00    +0.000 C 
ATOM     14  O   UNL     1       5.586   7.384  17.438  0.00  0.00    +0.000 OA
ATOM     15  N   UNL     1       7.156   6.127  16.327  0.00  0.00    +0.000 N 
ATOM     16  H   UNL     1       8.143   5.934  16.217  0.00  0.00    +0.000 HD
ENDBRANCH  11  15
ENDBRANCH  10  11
ENDBRANCH   9  10
ENDBRANCH   1   9
BRANCH   6  17
ATOM     17  O   UNL     1       1.028   6.633  20.752  0.00  0.00    +0.000 OA
BRANCH  17  18
ATOM     18  C   UNL     1       1.745   7.827  21.044  0.00  0.00    +0.000 C 
BRANCH  18  19
ATOM     19  C   UNL     1       0.980   9.025  20.495  0.00  0.00    +0.000 A 
ATOM     20  C   UNL     1       1.159   9.351  19.143  0.00  0.00    +0.000 A 
ATOM     21  C   UNL     1       0.558  10.480  18.605  0.00  0.00    +0.000 A 
ATOM     22  C   UNL     1      -0.190  11.328  19.423  0.00  0.00    +0.000 A 
ATOM     23  C   UNL     1      -0.424  11.047  20.788  0.00  0.00    +0.000 A 
ATOM     24  C   UNL     1       0.118   9.825  21.301  0.00  0.00    +0.000 A 
ATOM     25  C   UNL     1      -0.201   9.332  22.695  0.00  0.00    +0.000 C 
BRANCH  23  26
ATOM     26  C   UNL     1      -1.214  12.023  21.607  0.00  0.00    +0.000 A 
ATOM     27  C   UNL     1      -2.617  12.123  21.503  0.00  0.00    +0.000 A 
ATOM     28  C   UNL     1      -3.358  12.990  22.319  0.00  0.00    +0.000 A 
ATOM     29  C   UNL     1      -2.720  13.757  23.287  0.00  0.00    +0.000 A 
ATOM     30  C   UNL     1      -1.336  13.716  23.384  0.00  0.00    +0.000 A 
ATOM     31  C   UNL     1      -0.599  12.899  22.521  0.00  0.00    +0.000 A 
ENDBRANCH  23  26
ENDBRANCH  18  19
ENDBRANCH  17  18
ENDBRANCH   6  17
TORSDOF 8
ENDMDL
MODEL 9
REMARK VINA RESULT:      -8.1      5.950      7.710
REMARK  Name = 
REMARK  10 active torsions:
REMARK  status: ('A' for Active; 'I' for Inactive)
REMARK    1  A    between atoms: C_1  and  C_2
REMARK    2  A    between atoms: N_4  and  C_5
REMARK    3  A    between atoms: C_5  and  C_6
REMARK    4  A    between atoms: C_6  and  C_7
REMARK    5  A    between atoms: C_7  and  N_8
REMARK    6  A    between atoms: C_13  and  O_14
REMARK    7  A    between atoms: O_14  and  C_15
REMARK    8  A    between atoms: C_15  and  C_16
REMARK    9  A    between atoms: C_20  and  C_21
REMARK   10  A    between atoms: C_27  and  C_28
REMARK                            x       y       z     vdW  Elec       q    Type
REMARK                         _______ _______ _______ _____ _____    ______ ____
ROOT
ATOM      1  N   UNL     1      -1.407  11.878  19.923  0.00  0.00    +0.000 N 
ATOM      2  C   UNL     1      -0.926  11.058  20.934  0.00  0.00    +0.000 A 
ATOM      3  N   UNL     1      -1.167  11.362  22.207  0.00  0.00    +0.000 NA
ATOM      4  C   UNL     1      -0.710  10.480  23.093  0.00  0.00    +0.000 A 
ATOM      5  N   UNL     1      -0.049   9.365  22.818  0.00  0.00    +0.000 NA
ATOM      6  C   UNL     1       0.152   9.175  21.520  0.00  0.00    +0.000 A 
ATOM      7  N   UNL     1      -0.256   9.981  20.540  0.00  0.00    +0.000 NA
ATOM      8  H   UNL     1      -0.866  11.682  19.086  0.00  0.00    +0.000 HD
ENDROOT
BRANCH   1   9
ATOM      9  C   UNL     1      -1.581  13.278  20.262  0.00  0.00    +0.000 C 
BRANCH   9  10
ATOM     10  C   UNL     1      -0.679  14.146  19.383  0.00  0.00    +0.000 C 
BRANCH  10  11
ATOM     11  C   UNL     1       0.733  14.204  19.959  0.00  0.00    +0.000 C 
BRANCH  11  15
ATOM     12  C   UNL     1       3.325  15.720  17.656  0.00  0.00    +0.000 C 
ATOM     13  C   UNL     1       2.516  14.630  18.304  0.00  0.00    +0.000 C 
ATOM     14  O   UNL     1       2.670  13.443  18.039  0.00  0.00    +0.000 OA
ATOM     15  N   UNL     1       1.597  15.099  19.216  0.00  0.00    +0.000 N 
ATOM     16  H   UNL     1       1.470  16.097  19.321  0.00  0.00    +0.000 HD
ENDBRANCH  11  15
ENDBRANCH  10  11
ENDBRANCH   9  10
ENDBRANCH   1   9
BRANCH   6  17
ATOM     17  O   UNL     1       0.709   7.959  21.192  0.00  0.00    +0.000 OA
BRANCH  17  18
ATOM     18  C   UNL     1       1.661   8.063  20.140  0.00  0.00    +0.000 C 
BRANCH  18  19
ATOM     19  C   UNL     1       2.227   6.682  19.831  0.00  0.00    +0.000 A 
ATOM     20  C   UNL     1       1.826   5.614  20.646  0.00  0.00    +0.000 A 
ATOM     21  C   UNL     1       2.372   4.350  20.470  0.00  0.00    +0.000 A 
ATOM     22  C   UNL     1       3.363   4.147  19.509  0.00  0.00    +0.000 A 
ATOM     23  C   UNL     1       3.798   5.175  18.643  0.00  0.00    +0.000 A 
ATOM     24  C   UNL     1       3.151   6.446  18.770  0.00  0.00    +0.000 A 
ATOM     25  C   UNL     1       3.408   7.575  17.797  0.00  0.00    +0.000 C 
BRANCH  23  26
ATOM     26  C   UNL     1       4.889   4.884  17.656  0.00  0.00    +0.000 A 
ATOM     27  C   UNL     1       6.252   4.995  17.995  0.00  0.00    +0.000 A 
ATOM     28  C   UNL     1       7.269   4.658  17.090  0.00  0.00    +0.000 A 
ATOM     29  C   UNL     1       6.948   4.167  15.830  0.00  0.00    +0.000 A 
ATOM     30  C   UNL     1       5.616   4.089  15.448  0.00  0.00    +0.000 A 
ATOM     31  C   UNL     1       4.611   4.492  16.333  0.00  0.00    +0.000 A 
ENDBRANCH  23  26
ENDBRANCH  18  19
ENDBRANCH  17  18
ENDBRANCH   6  17
TORSDOF 8
ENDMDL
