MODEL 1
REMARK VINA RESULT:      -8.7      0.000      0.000
REMARK  Name = 
REMARK  9 active torsions:
REMARK  status: ('A' for Active; 'I' for Inactive)
REMARK    1  A    between atoms: C_1  and  O_2
REMARK    2  A    between atoms: O_2  and  C_3
REMARK    3  A    between atoms: C_3  and  C_5
REMARK    4  A    between atoms: N_13  and  C_14
REMARK    5  A    between atoms: C_14  and  C_15
REMARK    6  A    between atoms: C_15  and  C_16
REMARK    7  A    between atoms: C_16  and  N_17
REMARK    8  A    between atoms: C_19  and  C_20
REMARK    9  A    between atoms: C_22  and  C_23
REMARK                            x       y       z     vdW  Elec       q    Type
REMARK                         _______ _______ _______ _____ _____    ______ ____
ROOT
ATOM      1  C   UNL     1       5.674   5.219  15.624  0.00  0.00    +0.000 A 
ATOM      2  C   UNL     1       5.535   6.571  15.960  0.00  0.00    +0.000 A 
ATOM      3  C   UNL     1       4.611   6.989  16.938  0.00  0.00    +0.000 A 
ATOM      4  C   UNL     1       3.826   6.011  17.581  0.00  0.00    +0.000 A 
ATOM      5  C   UNL     1       3.965   4.656  17.261  0.00  0.00    +0.000 A 
ATOM      6  C   UNL     1       4.889   4.262  16.275  0.00  0.00    +0.000 A 
ATOM      7  C   UNL     1       3.061   3.932  18.074  0.00  0.00    +0.000 A 
ATOM      8  C   UNL     1       2.358   4.840  18.834  0.00  0.00    +0.000 A 
ATOM      9  N   UNL     1       2.840   6.098  18.562  0.00  0.00    +0.000 N 
ATOM     10  C   UNL     1       1.293   4.483  19.818  0.00  0.00    +0.000 C 
ATOM     11  C   UNL     1       0.826   3.038  19.602  0.00  0.00    +0.000 C 
ATOM     12  C   UNL     1       2.021   2.092  19.395  0.00  0.00    +0.000 C 
ATOM     13  C   UNL     1       2.817   2.464  18.134  0.00  0.00    +0.000 C 
ENDROOT
BRANCH   1  14
ATOM     14  C   UNL     1       6.628   4.726  14.592  0.00  0.00    +0.000 C 
ATOM     15  O   UNL     1       7.668   5.288  14.302  0.00  0.00    +0.000 OA
BRANCH  14  17
ATOM     16  C   UNL     1       6.265   3.558  12.604  0.00  0.00    +0.000 C 
ATOM     17  O   UNL     1       6.165   3.580  14.026  0.00  0.00    +0.000 OA
ENDBRANCH  14  17
ENDBRANCH   1  14
BRANCH   9  18
ATOM     18  C   UNL     1       2.335   7.318  19.175  0.00  0.00    +0.000 C 
BRANCH  18  19
ATOM     19  C   UNL     1       1.560   8.240  18.221  0.00  0.00    +0.000 C 
BRANCH  19  20
ATOM     20  C   UNL     1       2.054   9.689  18.242  0.00  0.00    +0.000 C 
BRANCH  20  21
ATOM     21  N   UNL     1       0.942  10.622  18.438  0.00  0.00    +0.000 NA
ATOM     22  C   UNL     1      -0.280   9.939  18.895  0.00  0.00    +0.000 C 
ATOM     23  C   UNL     1      -1.459  10.913  18.990  0.00  0.00    +0.000 C 
ATOM     24  C   UNL     1      -1.998  11.302  17.614  0.00  0.00    +0.000 C 
ATOM     25  O   UNL     1      -1.169  12.044  19.821  0.00  0.00    +0.000 OA
ATOM     26  C   UNL     1       0.116  12.662  19.628  0.00  0.00    +0.000 C 
ATOM     27  C   UNL     1       0.064  13.730  18.540  0.00  0.00    +0.000 C 
ATOM     28  C   UNL     1       1.273  11.654  19.437  0.00  0.00    +0.000 C 
ENDBRANCH  20  21
ENDBRANCH  19  20
ENDBRANCH  18  19
ENDBRANCH   9  18
TORSDOF 6
ENDMDL
MODEL 2
REMARK VINA RESULT:      -8.5      0.775      1.584
REMARK  Name = 
REMARK  9 active torsions:
REMARK  status: ('A' for Active; 'I' for Inactive)
REMARK    1  A    between atoms: C_1  and  O_2
REMARK    2  A    between atoms: O_2  and  C_3
REMARK    3  A    between atoms: C_3  and  C_5
REMARK    4  A    between atoms: N_13  and  C_14
REMARK    5  A    between atoms: C_14  and  C_15
REMARK    6  A    between atoms: C_15  and  C_16
REMARK    7  A    between atoms: C_16  and  N_17
REMARK    8  A    between atoms: C_19  and  C_20
REMARK    9  A    between atoms: C_22  and  C_23
REMARK                            x       y       z     vdW  Elec       q    Type
REMARK                         _______ _______ _______ _____ _____    ______ ____
ROOT
ATOM      1  C   UNL     1       5.538   5.228  15.622  0.00  0.00    +0.000 A 
ATOM      2  C   UNL     1       5.398   6.584  15.944  0.00  0.00    +0.000 A 
ATOM      3  C   UNL     1       4.504   7.007  16.946  0.00  0.00    +0.000 A 
ATOM      4  C   UNL     1       3.751   6.032  17.630  0.00  0.00    +0.000 A 
ATOM      5  C   UNL     1       3.891   4.673  17.324  0.00  0.00    +0.000 A 
ATOM      6  C   UNL     1       4.785   4.273  16.313  0.00  0.00    +0.000 A 
ATOM      7  C   UNL     1       3.022   3.953  18.178  0.00  0.00    +0.000 A 
ATOM      8  C   UNL     1       2.338   4.865  18.949  0.00  0.00    +0.000 A 
ATOM      9  N   UNL     1       2.798   6.124  18.643  0.00  0.00    +0.000 N 
ATOM     10  C   UNL     1       1.311   4.514  19.974  0.00  0.00    +0.000 C 
ATOM     11  C   UNL     1       0.850   3.061  19.794  0.00  0.00    +0.000 C 
ATOM     12  C   UNL     1       2.046   2.123  19.560  0.00  0.00    +0.000 C 
ATOM     13  C   UNL     1       2.795   2.484  18.268  0.00  0.00    +0.000 C 
ENDROOT
BRANCH   1  14
ATOM     14  C   UNL     1       6.461   4.729  14.565  0.00  0.00    +0.000 C 
ATOM     15  O   UNL     1       7.588   5.153  14.389  0.00  0.00    +0.000 OA
BRANCH  14  17
ATOM     16  C   UNL     1       6.423   3.577  12.534  0.00  0.00    +0.000 C 
ATOM     17  O   UNL     1       5.861   3.752  13.834  0.00  0.00    +0.000 OA
ENDBRANCH  14  17
ENDBRANCH   1  14
BRANCH   9  18
ATOM     18  C   UNL     1       2.303   7.348  19.255  0.00  0.00    +0.000 C 
BRANCH  18  19
ATOM     19  C   UNL     1       1.481   8.245  18.318  0.00  0.00    +0.000 C 
BRANCH  19  20
ATOM     20  C   UNL     1       2.120   9.615  18.073  0.00  0.00    +0.000 C 
BRANCH  20  21
ATOM     21  N   UNL     1       1.451  10.656  18.857  0.00  0.00    +0.000 NA
ATOM     22  C   UNL     1       1.843  12.010  18.427  0.00  0.00    +0.000 C 
ATOM     23  C   UNL     1       1.217  13.081  19.326  0.00  0.00    +0.000 C 
ATOM     24  C   UNL     1       1.889  13.147  20.698  0.00  0.00    +0.000 C 
ATOM     25  O   UNL     1      -0.209  12.966  19.403  0.00  0.00    +0.000 OA
ATOM     26  C   UNL     1      -0.731  11.638  19.587  0.00  0.00    +0.000 C 
ATOM     27  C   UNL     1      -0.825  11.274  21.065  0.00  0.00    +0.000 C 
ATOM     28  C   UNL     1      -0.016  10.561  18.739  0.00  0.00    +0.000 C 
ENDBRANCH  20  21
ENDBRANCH  19  20
ENDBRANCH  18  19
ENDBRANCH   9  18
TORSDOF 6
ENDMDL
MODEL 3
REMARK VINA RESULT:      -8.4      1.119      1.191
REMARK  Name = 
REMARK  9 active torsions:
REMARK  status: ('A' for Active; 'I' for Inactive)
REMARK    1  A    between atoms: C_1  and  O_2
REMARK    2  A    between atoms: O_2  and  C_3
REMARK    3  A    between atoms: C_3  and  C_5
REMARK    4  A    between atoms: N_13  and  C_14
REMARK    5  A    between atoms: C_14  and  C_15
REMARK    6  A    between atoms: C_15  and  C_16
REMARK    7  A    between atoms: C_16  and  N_17
REMARK    8  A    between atoms: C_19  and  C_20
REMARK    9  A    between atoms: C_22  and  C_23
REMARK                            x       y       z     vdW  Elec       q    Type
REMARK                         _______ _______ _______ _____ _____    ______ ____
ROOT
ATOM      1  C   UNL     1       5.773   5.176  15.508  0.00  0.00    +0.000 A 
ATOM      2  C   UNL     1       5.651   6.513  15.904  0.00  0.00    +0.000 A 
ATOM      3  C   UNL     1       4.722   6.902  16.889  0.00  0.00    +0.000 A 
ATOM      4  C   UNL     1       3.913   5.909  17.477  0.00  0.00    +0.000 A 
ATOM      5  C   UNL     1       4.034   4.568  17.097  0.00  0.00    +0.000 A 
ATOM      6  C   UNL     1       4.964   4.203  16.105  0.00  0.00    +0.000 A 
ATOM      7  C   UNL     1       3.108   3.822  17.865  0.00  0.00    +0.000 A 
ATOM      8  C   UNL     1       2.411   4.706  18.658  0.00  0.00    +0.000 A 
ATOM      9  N   UNL     1       2.916   5.968  18.449  0.00  0.00    +0.000 N 
ATOM     10  C   UNL     1       1.328   4.323  19.612  0.00  0.00    +0.000 C 
ATOM     11  C   UNL     1       0.841   2.897  19.324  0.00  0.00    +0.000 C 
ATOM     12  C   UNL     1       2.023   1.942  19.089  0.00  0.00    +0.000 C 
ATOM     13  C   UNL     1       2.840   2.357  17.856  0.00  0.00    +0.000 C 
ENDROOT
BRANCH   1  14
ATOM     14  C   UNL     1       6.731   4.714  14.465  0.00  0.00    +0.000 C 
ATOM     15  O   UNL     1       7.711   5.346  14.114  0.00  0.00    +0.000 OA
BRANCH  14  17
ATOM     16  C   UNL     1       6.046   3.530  12.574  0.00  0.00    +0.000 C 
ATOM     17  O   UNL     1       6.348   3.509  13.969  0.00  0.00    +0.000 OA
ENDBRANCH  14  17
ENDBRANCH   1  14
BRANCH   9  18
ATOM     18  C   UNL     1       2.423   7.166  19.111  0.00  0.00    +0.000 C 
BRANCH  18  19
ATOM     19  C   UNL     1       2.307   8.398  18.201  0.00  0.00    +0.000 C 
BRANCH  19  20
ATOM     20  C   UNL     1       0.883   8.956  18.113  0.00  0.00    +0.000 C 
BRANCH  20  21
ATOM     21  N   UNL     1       0.782  10.250  18.790  0.00  0.00    +0.000 NA
ATOM     22  C   UNL     1       0.741  10.107  20.256  0.00  0.00    +0.000 C 
ATOM     23  C   UNL     1       0.528  11.460  20.941  0.00  0.00    +0.000 C 
ATOM     24  C   UNL     1      -0.908  11.962  20.790  0.00  0.00    +0.000 C 
ATOM     25  O   UNL     1       1.507  12.432  20.552  0.00  0.00    +0.000 OA
ATOM     26  C   UNL     1       1.810  12.503  19.148  0.00  0.00    +0.000 C 
ATOM     27  C   UNL     1       0.869  13.459  18.422  0.00  0.00    +0.000 C 
ATOM     28  C   UNL     1       1.924  11.123  18.461  0.00  0.00    +0.000 C 
ENDBRANCH  20  21
ENDBRANCH  19  20
ENDBRANCH  18  19
ENDBRANCH   9  18
TORSDOF 6
ENDMDL
MODEL 4
REMARK VINA RESULT:      -8.4      1.075      1.607
REMARK  Name = 
REMARK  9 active torsions:
REMARK  status: ('A' for Active; 'I' for Inactive)
REMARK    1  A    between atoms: C_1  and  O_2
REMARK    2  A    between atoms: O_2  and  C_3
REMARK    3  A    between atoms: C_3  and  C_5
REMARK    4  A    between atoms: N_13  and  C_14
REMARK    5  A    between atoms: C_14  and  C_15
REMARK    6  A    between atoms: C_15  and  C_16
REMARK    7  A    between atoms: C_16  and  N_17
REMARK    8  A    between atoms: C_19  and  C_20
REMARK    9  A    between atoms: C_22  and  C_23
REMARK                            x       y       z     vdW  Elec       q    Type
REMARK                         _______ _______ _______ _____ _____    ______ ____
ROOT
ATOM      1  C   UNL     1       5.842   5.103  15.774  0.00  0.00    +0.000 A 
ATOM      2  C   UNL     1       5.998   6.304  16.477  0.00  0.00    +0.000 A 
ATOM      3  C   UNL     1       5.191   6.608  17.590  0.00  0.00    +0.000 A 
ATOM      4  C   UNL     1       4.218   5.671  17.990  0.00  0.00    +0.000 A 
ATOM      5  C   UNL     1       4.061   4.463  17.301  0.00  0.00    +0.000 A 
ATOM      6  C   UNL     1       4.873   4.183  16.187  0.00  0.00    +0.000 A 
ATOM      7  C   UNL     1       3.027   3.739  17.942  0.00  0.00    +0.000 A 
ATOM      8  C   UNL     1       2.540   4.519  18.967  0.00  0.00    +0.000 A 
ATOM      9  N   UNL     1       3.279   5.677  19.020  0.00  0.00    +0.000 N 
ATOM     10  C   UNL     1       1.429   4.125  19.883  0.00  0.00    +0.000 C 
ATOM     11  C   UNL     1       0.661   2.927  19.309  0.00  0.00    +0.000 C 
ATOM     12  C   UNL     1       1.623   1.855  18.772  0.00  0.00    +0.000 C 
ATOM     13  C   UNL     1       2.474   2.396  17.613  0.00  0.00    +0.000 C 
ENDROOT
BRANCH   1  14
ATOM     14  C   UNL     1       6.661   4.738  14.585  0.00  0.00    +0.000 C 
ATOM     15  O   UNL     1       7.618   5.381  14.193  0.00  0.00    +0.000 OA
BRANCH  14  17
ATOM     16  C   UNL     1       6.270   3.599  12.585  0.00  0.00    +0.000 C 
ATOM     17  O   UNL     1       6.183   3.603  14.009  0.00  0.00    +0.000 OA
ENDBRANCH  14  17
ENDBRANCH   1  14
BRANCH   9  18
ATOM     18  C   UNL     1       3.051   6.750  19.976  0.00  0.00    +0.000 C 
BRANCH  18  19
ATOM     19  C   UNL     1       1.959   7.750  19.568  0.00  0.00    +0.000 C 
BRANCH  19  20
ATOM     20  C   UNL     1       1.169   8.305  20.756  0.00  0.00    +0.000 C 
BRANCH  20  21
ATOM     21  N   UNL     1       0.410   9.498  20.373  0.00  0.00    +0.000 NA
ATOM     22  C   UNL     1       0.845  10.693  21.115  0.00  0.00    +0.000 C 
ATOM     23  C   UNL     1      -0.030  11.906  20.780  0.00  0.00    +0.000 C 
ATOM     24  C   UNL     1      -1.413  11.813  21.423  0.00  0.00    +0.000 C 
ATOM     25  O   UNL     1      -0.081  12.171  19.372  0.00  0.00    +0.000 OA
ATOM     26  C   UNL     1      -0.268  11.031  18.516  0.00  0.00    +0.000 C 
ATOM     27  C   UNL     1      -1.748  10.727  18.306  0.00  0.00    +0.000 C 
ATOM     28  C   UNL     1       0.554   9.791  18.935  0.00  0.00    +0.000 C 
ENDBRANCH  20  21
ENDBRANCH  19  20
ENDBRANCH  18  19
ENDBRANCH   9  18
TORSDOF 6
ENDMDL
MODEL 5
REMARK VINA RESULT:      -8.2      1.089      1.483
REMARK  Name = 
REMARK  9 active torsions:
REMARK  status: ('A' for Active; 'I' for Inactive)
REMARK    1  A    between atoms: C_1  and  O_2
REMARK    2  A    between atoms: O_2  and  C_3
REMARK    3  A    between atoms: C_3  and  C_5
REMARK    4  A    between atoms: N_13  and  C_14
REMARK    5  A    between atoms: C_14  and  C_15
REMARK    6  A    between atoms: C_15  and  C_16
REMARK    7  A    between atoms: C_16  and  N_17
REMARK    8  A    between atoms: C_19  and  C_20
REMARK    9  A    between atoms: C_22  and  C_23
REMARK                            x       y       z     vdW  Elec       q    Type
REMARK                         _______ _______ _______ _____ _____    ______ ____
ROOT
ATOM      1  C   UNL     1       5.728   5.149  15.704  0.00  0.00    +0.000 A 
ATOM      2  C   UNL     1       5.851   6.375  16.368  0.00  0.00    +0.000 A 
ATOM      3  C   UNL     1       5.047   6.686  17.481  0.00  0.00    +0.000 A 
ATOM      4  C   UNL     1       4.111   5.729  17.922  0.00  0.00    +0.000 A 
ATOM      5  C   UNL     1       3.988   4.495  17.273  0.00  0.00    +0.000 A 
ATOM      6  C   UNL     1       4.797   4.209  16.157  0.00  0.00    +0.000 A 
ATOM      7  C   UNL     1       2.987   3.757  17.948  0.00  0.00    +0.000 A 
ATOM      8  C   UNL     1       2.485   4.551  18.955  0.00  0.00    +0.000 A 
ATOM      9  N   UNL     1       3.185   5.735  18.963  0.00  0.00    +0.000 N 
ATOM     10  C   UNL     1       1.400   4.147  19.896  0.00  0.00    +0.000 C 
ATOM     11  C   UNL     1       0.667   2.907  19.369  0.00  0.00    +0.000 C 
ATOM     12  C   UNL     1       1.660   1.852  18.854  0.00  0.00    +0.000 C 
ATOM     13  C   UNL     1       2.477   2.386  17.667  0.00  0.00    +0.000 C 
ENDROOT
BRANCH   1  14
ATOM     14  C   UNL     1       6.546   4.775  14.516  0.00  0.00    +0.000 C 
ATOM     15  O   UNL     1       7.587   5.325  14.206  0.00  0.00    +0.000 OA
BRANCH  14  17
ATOM     16  C   UNL     1       6.390   3.638  12.483  0.00  0.00    +0.000 C 
ATOM     17  O   UNL     1       5.961   3.752  13.839  0.00  0.00    +0.000 OA
ENDBRANCH  14  17
ENDBRANCH   1  14
BRANCH   9  18
ATOM     18  C   UNL     1       2.931   6.829  19.889  0.00  0.00    +0.000 C 
BRANCH  18  19
ATOM     19  C   UNL     1       1.911   7.864  19.392  0.00  0.00    +0.000 C 
BRANCH  19  20
ATOM     20  C   UNL     1       1.100   8.508  20.520  0.00  0.00    +0.000 C 
BRANCH  20  21
ATOM     21  N   UNL     1       0.857   9.927  20.250  0.00  0.00    +0.000 NA
ATOM     22  C   UNL     1       0.811  10.216  18.806  0.00  0.00    +0.000 C 
ATOM     23  C   UNL     1       0.662  11.718  18.544  0.00  0.00    +0.000 C 
ATOM     24  C   UNL     1       1.957  12.482  18.820  0.00  0.00    +0.000 C 
ATOM     25  O   UNL     1      -0.475  12.280  19.211  0.00  0.00    +0.000 OA
ATOM     26  C   UNL     1      -0.673  11.880  20.578  0.00  0.00    +0.000 C 
ATOM     27  C   UNL     1       0.086  12.786  21.542  0.00  0.00    +0.000 C 
ATOM     28  C   UNL     1      -0.421  10.376  20.832  0.00  0.00    +0.000 C 
ENDBRANCH  20  21
ENDBRANCH  19  20
ENDBRANCH  18  19
ENDBRANCH   9  18
TORSDOF 6
ENDMDL
MODEL 6
REMARK VINA RESULT:      -8.1      1.277      1.645
REMARK  Name = 
REMARK  9 active torsions:
REMARK  status: ('A' for Active; 'I' for Inactive)
REMARK    1  A    between atoms: C_1  and  O_2
REMARK    2  A    between atoms: O_2  and  C_3
REMARK    3  A    between atoms: C_3  and  C_5
REMARK    4  A    between atoms: N_13  and  C_14
REMARK    5  A    between atoms: C_14  and  C_15
REMARK    6  A    between atoms: C_15  and  C_16
REMARK    7  A    between atoms: C_16  and  N_17
REMARK    8  A    between atoms: C_19  and  C_20
REMARK    9  A    between atoms: C_22  and  C_23
REMARK                            x       y       z     vdW  Elec       q    Type
REMARK                         _______ _______ _______ _____ _____    ______ ____
ROOT
ATOM      1  C   UNL     1       5.749   5.154  15.592  0.00  0.00    +0.000 A 
ATOM      2  C   UNL     1       5.606   6.478  16.023  0.00  0.00    +0.000 A 
ATOM      3  C   UNL     1       4.649   6.831  16.994  0.00  0.00    +0.000 A 
ATOM      4  C   UNL     1       3.833   5.816  17.532  0.00  0.00    +0.000 A 
ATOM      5  C   UNL     1       3.974   4.487  17.116  0.00  0.00    +0.000 A 
ATOM      6  C   UNL     1       4.933   4.158  16.140  0.00  0.00    +0.000 A 
ATOM      7  C   UNL     1       3.035   3.713  17.838  0.00  0.00    +0.000 A 
ATOM      8  C   UNL     1       2.309   4.568  18.637  0.00  0.00    +0.000 A 
ATOM      9  N   UNL     1       2.810   5.839  18.479  0.00  0.00    +0.000 N 
ATOM     10  C   UNL     1       1.205   4.150  19.551  0.00  0.00    +0.000 C 
ATOM     11  C   UNL     1       0.737   2.729  19.209  0.00  0.00    +0.000 C 
ATOM     12  C   UNL     1       1.932   1.790  18.978  0.00  0.00    +0.000 C 
ATOM     13  C   UNL     1       2.779   2.247  17.779  0.00  0.00    +0.000 C 
ENDROOT
BRANCH   1  14
ATOM     14  C   UNL     1       6.738   4.729  14.563  0.00  0.00    +0.000 C 
ATOM     15  O   UNL     1       7.720   5.379  14.254  0.00  0.00    +0.000 OA
BRANCH  14  17
ATOM     16  C   UNL     1       6.121   3.588  12.622  0.00  0.00    +0.000 C 
ATOM     17  O   UNL     1       6.380   3.534  14.024  0.00  0.00    +0.000 OA
ENDBRANCH  14  17
ENDBRANCH   1  14
BRANCH   9  18
ATOM     18  C   UNL     1       2.290   7.014  19.161  0.00  0.00    +0.000 C 
BRANCH  18  19
ATOM     19  C   UNL     1       2.408   8.322  18.364  0.00  0.00    +0.000 C 
BRANCH  19  20
ATOM     20  C   UNL     1       1.064   9.021  18.141  0.00  0.00    +0.000 C 
BRANCH  20  21
ATOM     21  N   UNL     1       0.590   9.655  19.374  0.00  0.00    +0.000 NA
ATOM     22  C   UNL     1       1.426   9.304  20.534  0.00  0.00    +0.000 C 
ATOM     23  C   UNL     1       0.853   9.889  21.829  0.00  0.00    +0.000 C 
ATOM     24  C   UNL     1      -0.394   9.140  22.298  0.00  0.00    +0.000 C 
ATOM     25  O   UNL     1       0.660  11.307  21.752  0.00  0.00    +0.000 OA
ATOM     26  C   UNL     1       0.058  11.802  20.543  0.00  0.00    +0.000 C 
ATOM     27  C   UNL     1      -1.464  11.805  20.638  0.00  0.00    +0.000 C 
ATOM     28  C   UNL     1       0.586  11.125  19.257  0.00  0.00    +0.000 C 
ENDBRANCH  20  21
ENDBRANCH  19  20
ENDBRANCH  18  19
ENDBRANCH   9  18
TORSDOF 6
ENDMDL
MODEL 7
REMARK VINA RESULT:      -8.0      1.906      2.168
REMARK  Name = 
REMARK  9 active torsions:
REMARK  status: ('A' for Active; 'I' for Inactive)
REMARK    1  A    between atoms: C_1  and  O_2
REMARK    2  A    between atoms: O_2  and  C_3
REMARK    3  A    between atoms: C_3  and  C_5
REMARK    4  A    between atoms: N_13  and  C_14
REMARK    5  A    between atoms: C_14  and  C_15
REMARK    6  A    between atoms: C_15  and  C_16
REMARK    7  A    between atoms: C_16  and  N_17
REMARK    8  A    between atoms: C_19  and  C_20
REMARK    9  A    between atoms: C_22  and  C_23
REMARK                            x       y       z     vdW  Elec       q    Type
REMARK                         _______ _______ _______ _____ _____    ______ ____
ROOT
ATOM      1  C   UNL     1       5.877   5.408  16.860  0.00  0.00    +0.000 A 
ATOM      2  C   UNL     1       5.326   6.684  16.692  0.00  0.00    +0.000 A 
ATOM      3  C   UNL     1       4.182   7.086  17.408  0.00  0.00    +0.000 A 
ATOM      4  C   UNL     1       3.599   6.173  18.309  0.00  0.00    +0.000 A 
ATOM      5  C   UNL     1       4.148   4.898  18.493  0.00  0.00    +0.000 A 
ATOM      6  C   UNL     1       5.288   4.516  17.761  0.00  0.00    +0.000 A 
ATOM      7  C   UNL     1       3.357   4.230  19.458  0.00  0.00    +0.000 A 
ATOM      8  C   UNL     1       2.324   5.070  19.811  0.00  0.00    +0.000 A 
ATOM      9  N   UNL     1       2.485   6.260  19.141  0.00  0.00    +0.000 N 
ATOM     10  C   UNL     1       1.255   4.736  20.797  0.00  0.00    +0.000 C 
ATOM     11  C   UNL     1       1.236   3.227  21.077  0.00  0.00    +0.000 C 
ATOM     12  C   UNL     1       2.658   2.682  21.282  0.00  0.00    +0.000 C 
ATOM     13  C   UNL     1       3.513   2.858  20.016  0.00  0.00    +0.000 C 
ENDROOT
BRANCH   1  14
ATOM     14  C   UNL     1       7.079   4.931  16.121  0.00  0.00    +0.000 C 
ATOM     15  O   UNL     1       8.037   4.399  16.651  0.00  0.00    +0.000 OA
BRANCH  14  17
ATOM     16  C   UNL     1       6.291   4.141  14.070  0.00  0.00    +0.000 C 
ATOM     17  O   UNL     1       6.949   5.181  14.791  0.00  0.00    +0.000 OA
ENDBRANCH  14  17
ENDBRANCH   1  14
BRANCH   9  18
ATOM     18  C   UNL     1       1.579   7.393  19.258  0.00  0.00    +0.000 C 
BRANCH  18  19
ATOM     19  C   UNL     1       1.698   8.174  20.575  0.00  0.00    +0.000 C 
BRANCH  19  20
ATOM     20  C   UNL     1       0.354   8.389  21.277  0.00  0.00    +0.000 C 
BRANCH  20  21
ATOM     21  N   UNL     1      -0.002   9.810  21.308  0.00  0.00    +0.000 NA
ATOM     22  C   UNL     1      -0.347  10.264  22.666  0.00  0.00    +0.000 C 
ATOM     23  C   UNL     1      -0.819  11.722  22.662  0.00  0.00    +0.000 C 
ATOM     24  C   UNL     1      -2.225  11.870  22.081  0.00  0.00    +0.000 C 
ATOM     25  O   UNL     1       0.135  12.604  22.058  0.00  0.00    +0.000 OA
ATOM     26  C   UNL     1       0.728  12.154  20.827  0.00  0.00    +0.000 C 
ATOM     27  C   UNL     1      -0.111  12.563  19.621  0.00  0.00    +0.000 C 
ATOM     28  C   UNL     1       1.105  10.655  20.826  0.00  0.00    +0.000 C 
ENDBRANCH  20  21
ENDBRANCH  19  20
ENDBRANCH  18  19
ENDBRANCH   9  18
TORSDOF 6
ENDMDL
MODEL 8
REMARK VINA RESULT:      -8.0      0.995      1.561
REMARK  Name = 
REMARK  9 active torsions:
REMARK  status: ('A' for Active; 'I' for Inactive)
REMARK    1  A    between atoms: C_1  and  O_2
REMARK    2  A    between atoms: O_2  and  C_3
REMARK    3  A    between atoms: C_3  and  C_5
REMARK    4  A    between atoms: N_13  and  C_14
REMARK    5  A    between atoms: C_14  and  C_15
REMARK    6  A    between atoms: C_15  and  C_16
REMARK    7  A    between atoms: C_16  and  N_17
REMARK    8  A    between atoms: C_19  and  C_20
REMARK    9  A    between atoms: C_22  and  C_23
REMARK                            x       y       z     vdW  Elec       q    Type
REMARK                         _______ _______ _______ _____ _____    ______ ____
ROOT
ATOM      1  C   UNL     1       5.565   5.068  15.529  0.00  0.00    +0.000 A 
ATOM      2  C   UNL     1       5.474   6.430  15.838  0.00  0.00    +0.000 A 
ATOM      3  C   UNL     1       4.603   6.893  16.844  0.00  0.00    +0.000 A 
ATOM      4  C   UNL     1       3.823   5.951  17.543  0.00  0.00    +0.000 A 
ATOM      5  C   UNL     1       3.914   4.585  17.248  0.00  0.00    +0.000 A 
ATOM      6  C   UNL     1       4.786   4.146  16.234  0.00  0.00    +0.000 A 
ATOM      7  C   UNL     1       3.028   3.903  18.115  0.00  0.00    +0.000 A 
ATOM      8  C   UNL     1       2.381   4.845  18.883  0.00  0.00    +0.000 A 
ATOM      9  N   UNL     1       2.882   6.085  18.561  0.00  0.00    +0.000 N 
ATOM     10  C   UNL     1       1.351   4.538  19.919  0.00  0.00    +0.000 C 
ATOM     11  C   UNL     1       0.840   3.101  19.757  0.00  0.00    +0.000 C 
ATOM     12  C   UNL     1       2.001   2.121  19.522  0.00  0.00    +0.000 C 
ATOM     13  C   UNL     1       2.751   2.443  18.221  0.00  0.00    +0.000 C 
ENDROOT
BRANCH   1  14
ATOM     14  C   UNL     1       6.462   4.528  14.469  0.00  0.00    +0.000 C 
ATOM     15  O   UNL     1       6.221   3.527  13.819  0.00  0.00    +0.000 OA
BRANCH  14  17
ATOM     16  C   UNL     1       8.051   5.413  13.006  0.00  0.00    +0.000 C 
ATOM     17  O   UNL     1       7.572   5.301  14.346  0.00  0.00    +0.000 OA
ENDBRANCH  14  17
ENDBRANCH   1  14
BRANCH   9  18
ATOM     18  C   UNL     1       2.433   7.330  19.166  0.00  0.00    +0.000 C 
BRANCH  18  19
ATOM     19  C   UNL     1       1.557   8.204  18.256  0.00  0.00    +0.000 C 
BRANCH  19  20
ATOM     20  C   UNL     1       1.849   9.702  18.388  0.00  0.00    +0.000 C 
BRANCH  20  21
ATOM     21  N   UNL     1       0.828  10.368  19.200  0.00  0.00    +0.000 NA
ATOM     22  C   UNL     1       1.342  10.760  20.523  0.00  0.00    +0.000 C 
ATOM     23  C   UNL     1       0.234  11.358  21.396  0.00  0.00    +0.000 C 
ATOM     24  C   UNL     1      -0.734  10.292  21.909  0.00  0.00    +0.000 C 
ATOM     25  O   UNL     1      -0.429  12.459  20.761  0.00  0.00    +0.000 OA
ATOM     26  C   UNL     1      -0.775  12.281  19.376  0.00  0.00    +0.000 C 
ATOM     27  C   UNL     1      -2.146  11.631  19.223  0.00  0.00    +0.000 C 
ATOM     28  C   UNL     1       0.325  11.587  18.540  0.00  0.00    +0.000 C 
ENDBRANCH  20  21
ENDBRANCH  19  20
ENDBRANCH  18  19
ENDBRANCH   9  18
TORSDOF 6
ENDMDL
MODEL 9
REMARK VINA RESULT:      -8.0      0.895      1.139
REMARK  Name = 
REMARK  9 active torsions:
REMARK  status: ('A' for Active; 'I' for Inactive)
REMARK    1  A    between atoms: C_1  and  O_2
REMARK    2  A    between atoms: O_2  and  C_3
REMARK    3  A    between atoms: C_3  and  C_5
REMARK    4  A    between atoms: N_13  and  C_14
REMARK    5  A    between atoms: C_14  and  C_15
REMARK    6  A    between atoms: C_15  and  C_16
REMARK    7  A    between atoms: C_16  and  N_17
REMARK    8  A    between atoms: C_19  and  C_20
REMARK    9  A    between atoms: C_22  and  C_23
REMARK                            x       y       z     vdW  Elec       q    Type
REMARK                         _______ _______ _______ _____ _____    ______ ____
ROOT
ATOM      1  C   UNL     1       5.575   5.136  15.588  0.00  0.00    +0.000 A 
ATOM      2  C   UNL     1       5.664   6.424  16.131  0.00  0.00    +0.000 A 
ATOM      3  C   UNL     1       4.873   6.809  17.229  0.00  0.00    +0.000 A 
ATOM      4  C   UNL     1       3.984   5.865  17.782  0.00  0.00    +0.000 A 
ATOM      5  C   UNL     1       3.894   4.572  17.254  0.00  0.00    +0.000 A 
ATOM      6  C   UNL     1       4.690   4.210  16.151  0.00  0.00    +0.000 A 
ATOM      7  C   UNL     1       2.937   3.865  18.020  0.00  0.00    +0.000 A 
ATOM      8  C   UNL     1       2.426   4.733  18.960  0.00  0.00    +0.000 A 
ATOM      9  N   UNL     1       3.080   5.936  18.839  0.00  0.00    +0.000 N 
ATOM     10  C   UNL     1       1.377   4.381  19.961  0.00  0.00    +0.000 C 
ATOM     11  C   UNL     1       0.681   3.070  19.571  0.00  0.00    +0.000 C 
ATOM     12  C   UNL     1       1.703   2.008  19.133  0.00  0.00    +0.000 C 
ATOM     13  C   UNL     1       2.474   2.456  17.882  0.00  0.00    +0.000 C 
ENDROOT
BRANCH   1  14
ATOM     14  C   UNL     1       6.382   4.681  14.422  0.00  0.00    +0.000 C 
ATOM     15  O   UNL     1       6.049   3.780  13.674  0.00  0.00    +0.000 OA
BRANCH  14  17
ATOM     16  C   UNL     1       8.101   5.406  13.019  0.00  0.00    +0.000 C 
ATOM     17  O   UNL     1       7.528   5.404  14.326  0.00  0.00    +0.000 OA
ENDBRANCH  14  17
ENDBRANCH   1  14
BRANCH   9  18
ATOM     18  C   UNL     1       2.804   7.103  19.664  0.00  0.00    +0.000 C 
BRANCH  18  19
ATOM     19  C   UNL     1       1.830   8.113  19.038  0.00  0.00    +0.000 C 
BRANCH  19  20
ATOM     20  C   UNL     1       0.909   8.783  20.062  0.00  0.00    +0.000 C 
BRANCH  20  21
ATOM     21  N   UNL     1       0.520  10.125  19.622  0.00  0.00    +0.000 NA
ATOM     22  C   UNL     1      -0.876  10.439  19.970  0.00  0.00    +0.000 C 
ATOM     23  C   UNL     1      -1.296  11.801  19.410  0.00  0.00    +0.000 C 
ATOM     24  C   UNL     1      -1.513  11.760  17.897  0.00  0.00    +0.000 C 
ATOM     25  O   UNL     1      -0.420  12.857  19.823  0.00  0.00    +0.000 OA
ATOM     26  C   UNL     1       0.990  12.579  19.751  0.00  0.00    +0.000 C 
ATOM     27  C   UNL     1       1.557  12.920  18.377  0.00  0.00    +0.000 C 
ATOM     28  C   UNL     1       1.373  11.161  20.233  0.00  0.00    +0.000 C 
ENDBRANCH  20  21
ENDBRANCH  19  20
ENDBRANCH  18  19
ENDBRANCH   9  18
TORSDOF 6
ENDMDL
