MODEL 1
REMARK VINA RESULT:      -7.0      0.000      0.000
REMARK  Name = 
REMARK  6 active torsions:
REMARK  status: ('A' for Active; 'I' for Inactive)
REMARK    1  A    between atoms: C_1  and  N_2
REMARK    2  A    between atoms: N_7  and  C_8
REMARK    3  A    between atoms: C_8  and  C_10
REMARK    4  A    between atoms: C_13  and  O_14
REMARK    5  A    between atoms: O_14  and  C_15
REMARK    6  A    between atoms: C_15  and  C_16
REMARK                            x       y       z     vdW  Elec       q    Type
REMARK                         _______ _______ _______ _____ _____    ______ ____
ROOT
ATOM      1  C   UNL     1       5.400   5.188  17.623  0.00  0.00    +0.000 A 
ATOM      2  C   UNL     1       5.758   3.976  17.021  0.00  0.00    +0.000 A 
ATOM      3  C   UNL     1       5.886   3.886  15.634  0.00  0.00    +0.000 A 
ATOM      4  C   UNL     1       5.638   4.997  14.827  0.00  0.00    +0.000 A 
ATOM      5  C   UNL     1       5.260   6.204  15.416  0.00  0.00    +0.000 A 
ATOM      6  C   UNL     1       5.141   6.301  16.812  0.00  0.00    +0.000 A 
ENDROOT
BRANCH   1   7
ATOM      7  C   UNL     1       5.319   5.246  19.115  0.00  0.00    +0.000 C 
ATOM      8  O   UNL     1       6.331   5.005  19.763  0.00  0.00    +0.000 OA
BRANCH   7  15
ATOM      9  C   UNL     1       4.428   2.293  19.797  0.00  0.00    +0.000 C 
ATOM     10  N   UNL     1       3.289   3.146  20.077  0.00  0.00    +0.000 N 
ATOM     11  C   UNL     1       2.074   2.613  20.492  0.00  0.00    +0.000 A 
ATOM     12  C   UNL     1       1.106   3.492  20.769  0.00  0.00    +0.000 A 
ATOM     13  S   UNL     1       1.660   5.122  20.533  0.00  0.00    +0.000 S 
ATOM     14  C   UNL     1       3.296   4.542  19.984  0.00  0.00    +0.000 A 
ATOM     15  N   UNL     1       4.087   5.494  19.645  0.00  0.00    +0.000 NA
ENDBRANCH   7  15
ENDBRANCH   1   7
BRANCH   4  16
ATOM     16  O   UNL     1       5.858   4.791  13.494  0.00  0.00    +0.000 OA
BRANCH  16  17
ATOM     17  C   UNL     1       6.373   3.512  13.126  0.00  0.00    +0.000 C 
BRANCH  17  18
ATOM     18  C   UNL     1       5.502   2.885  12.038  0.00  0.00    +0.000 C 
ATOM     19  N   UNL     1       5.930   1.687  11.542  0.00  0.00    +0.000 N 
ATOM     20  O   UNL     1       4.483   3.419  11.605  0.00  0.00    +0.000 OA
ATOM     21  H   UNL     1       6.761   1.244  11.914  0.00  0.00    +0.000 HD
ATOM     22  H   UNL     1       5.391   1.231  10.820  0.00  0.00    +0.000 HD
ENDBRANCH  17  18
ENDBRANCH  16  17
ENDBRANCH   4  16
TORSDOF 5
ENDMDL
MODEL 2
REMARK VINA RESULT:      -6.9      0.311      1.098
REMARK  Name = 
REMARK  6 active torsions:
REMARK  status: ('A' for Active; 'I' for Inactive)
REMARK    1  A    between atoms: C_1  and  N_2
REMARK    2  A    between atoms: N_7  and  C_8
REMARK    3  A    between atoms: C_8  and  C_10
REMARK    4  A    between atoms: C_13  and  O_14
REMARK    5  A    between atoms: O_14  and  C_15
REMARK    6  A    between atoms: C_15  and  C_16
REMARK                            x       y       z     vdW  Elec       q    Type
REMARK                         _______ _______ _______ _____ _____    ______ ____
ROOT
ATOM      1  C   UNL     1       5.695   5.144  17.652  0.00  0.00    +0.000 A 
ATOM      2  C   UNL     1       5.096   6.086  16.806  0.00  0.00    +0.000 A 
ATOM      3  C   UNL     1       5.171   5.940  15.420  0.00  0.00    +0.000 A 
ATOM      4  C   UNL     1       5.860   4.865  14.858  0.00  0.00    +0.000 A 
ATOM      5  C   UNL     1       6.477   3.931  15.692  0.00  0.00    +0.000 A 
ATOM      6  C   UNL     1       6.395   4.069  17.088  0.00  0.00    +0.000 A 
ENDROOT
BRANCH   1   7
ATOM      7  C   UNL     1       5.551   5.320  19.130  0.00  0.00    +0.000 C 
ATOM      8  O   UNL     1       6.525   5.100  19.841  0.00  0.00    +0.000 OA
BRANCH   7  15
ATOM      9  C   UNL     1       4.461   2.434  19.812  0.00  0.00    +0.000 C 
ATOM     10  N   UNL     1       3.357   3.354  20.009  0.00  0.00    +0.000 N 
ATOM     11  C   UNL     1       2.092   2.896  20.362  0.00  0.00    +0.000 A 
ATOM     12  C   UNL     1       1.160   3.831  20.565  0.00  0.00    +0.000 A 
ATOM     13  S   UNL     1       1.815   5.424  20.332  0.00  0.00    +0.000 S 
ATOM     14  C   UNL     1       3.445   4.744  19.891  0.00  0.00    +0.000 A 
ATOM     15  N   UNL     1       4.306   5.645  19.582  0.00  0.00    +0.000 NA
ENDBRANCH   7  15
ENDBRANCH   1   7
BRANCH   4  16
ATOM     16  O   UNL     1       5.804   4.806  13.494  0.00  0.00    +0.000 OA
BRANCH  16  17
ATOM     17  C   UNL     1       6.484   3.714  12.877  0.00  0.00    +0.000 C 
BRANCH  17  18
ATOM     18  C   UNL     1       5.521   2.921  11.995  0.00  0.00    +0.000 C 
ATOM     19  N   UNL     1       5.951   1.690  11.590  0.00  0.00    +0.000 N 
ATOM     20  O   UNL     1       4.427   3.355  11.639  0.00  0.00    +0.000 OA
ATOM     21  H   UNL     1       6.846   1.331  11.900  0.00  0.00    +0.000 HD
ATOM     22  H   UNL     1       5.352   1.126  11.005  0.00  0.00    +0.000 HD
ENDBRANCH  17  18
ENDBRANCH  16  17
ENDBRANCH   4  16
TORSDOF 5
ENDMDL
MODEL 3
REMARK VINA RESULT:      -6.9      1.233      1.654
REMARK  Name = 
REMARK  6 active torsions:
REMARK  status: ('A' for Active; 'I' for Inactive)
REMARK    1  A    between atoms: C_1  and  N_2
REMARK    2  A    between atoms: N_7  and  C_8
REMARK    3  A    between atoms: C_8  and  C_10
REMARK    4  A    between atoms: C_13  and  O_14
REMARK    5  A    between atoms: O_14  and  C_15
REMARK    6  A    between atoms: C_15  and  C_16
REMARK                            x       y       z     vdW  Elec       q    Type
REMARK                         _______ _______ _______ _____ _____    ______ ____
ROOT
ATOM      1  C   UNL     1       5.833   4.499  17.496  0.00  0.00    +0.000 A 
ATOM      2  C   UNL     1       7.102   4.663  16.925  0.00  0.00    +0.000 A 
ATOM      3  C   UNL     1       7.252   4.712  15.538  0.00  0.00    +0.000 A 
ATOM      4  C   UNL     1       6.143   4.578  14.702  0.00  0.00    +0.000 A 
ATOM      5  C   UNL     1       4.878   4.393  15.260  0.00  0.00    +0.000 A 
ATOM      6  C   UNL     1       4.721   4.354  16.656  0.00  0.00    +0.000 A 
ENDROOT
BRANCH   1   7
ATOM      7  C   UNL     1       5.718   4.497  18.987  0.00  0.00    +0.000 C 
ATOM      8  O   UNL     1       6.438   5.254  19.628  0.00  0.00    +0.000 OA
BRANCH   7  15
ATOM      9  C   UNL     1       3.143   6.302  19.288  0.00  0.00    +0.000 C 
ATOM     10  N   UNL     1       2.833   5.027  19.906  0.00  0.00    +0.000 N 
ATOM     11  C   UNL     1       1.614   4.811  20.540  0.00  0.00    +0.000 A 
ATOM     12  C   UNL     1       1.412   3.586  21.033  0.00  0.00    +0.000 A 
ATOM     13  S   UNL     1       2.780   2.559  20.726  0.00  0.00    +0.000 S 
ATOM     14  C   UNL     1       3.682   3.916  19.914  0.00  0.00    +0.000 A 
ATOM     15  N   UNL     1       4.859   3.585  19.526  0.00  0.00    +0.000 NA
ENDBRANCH   7  15
ENDBRANCH   1   7
BRANCH   4  16
ATOM     16  O   UNL     1       6.419   4.706  13.370  0.00  0.00    +0.000 OA
BRANCH  16  17
ATOM     17  C   UNL     1       6.837   3.522  12.691  0.00  0.00    +0.000 C 
BRANCH  17  18
ATOM     18  C   UNL     1       5.654   2.882  11.965  0.00  0.00    +0.000 C 
ATOM     19  N   UNL     1       5.849   1.614  11.500  0.00  0.00    +0.000 N 
ATOM     20  O   UNL     1       4.587   3.464  11.780  0.00  0.00    +0.000 OA
ATOM     21  H   UNL     1       6.724   1.133  11.669  0.00  0.00    +0.000 HD
ATOM     22  H   UNL     1       5.099   1.146  11.012  0.00  0.00    +0.000 HD
ENDBRANCH  17  18
ENDBRANCH  16  17
ENDBRANCH   4  16
TORSDOF 5
ENDMDL
MODEL 4
REMARK VINA RESULT:      -6.8      0.937      1.037
REMARK  Name = 
REMARK  6 active torsions:
REMARK  status: ('A' for Active; 'I' for Inactive)
REMARK    1  A    between atoms: C_1  and  N_2
REMARK    2  A    between atoms: N_7  and  C_8
REMARK    3  A    between atoms: C_8  and  C_10
REMARK    4  A    between atoms: C_13  and  O_14
REMARK    5  A    between atoms: O_14  and  C_15
REMARK    6  A    between atoms: C_15  and  C_16
REMARK                            x       y       z     vdW  Elec       q    Type
REMARK                         _______ _______ _______ _____ _____    ______ ____
ROOT
ATOM      1  C   UNL     1       5.739   4.659  17.736  0.00  0.00    +0.000 A 
ATOM      2  C   UNL     1       6.990   4.800  17.122  0.00  0.00    +0.000 A 
ATOM      3  C   UNL     1       7.160   4.465  15.777  0.00  0.00    +0.000 A 
ATOM      4  C   UNL     1       6.091   3.966  15.032  0.00  0.00    +0.000 A 
ATOM      5  C   UNL     1       4.845   3.803  15.640  0.00  0.00    +0.000 A 
ATOM      6  C   UNL     1       4.668   4.149  16.990  0.00  0.00    +0.000 A 
ENDROOT
BRANCH   1   7
ATOM      7  C   UNL     1       5.596   5.072  19.165  0.00  0.00    +0.000 C 
ATOM      8  O   UNL     1       6.579   4.995  19.895  0.00  0.00    +0.000 OA
BRANCH   7  15
ATOM      9  C   UNL     1       4.524   2.279  20.180  0.00  0.00    +0.000 C 
ATOM     10  N   UNL     1       3.412   3.206  20.259  0.00  0.00    +0.000 N 
ATOM     11  C   UNL     1       2.148   2.783  20.656  0.00  0.00    +0.000 A 
ATOM     12  C   UNL     1       1.207   3.727  20.741  0.00  0.00    +0.000 A 
ATOM     13  S   UNL     1       1.852   5.286  20.324  0.00  0.00    +0.000 S 
ATOM     14  C   UNL     1       3.490   4.573  19.977  0.00  0.00    +0.000 A 
ATOM     15  N   UNL     1       4.346   5.438  19.568  0.00  0.00    +0.000 NA
ENDBRANCH   7  15
ENDBRANCH   1   7
BRANCH   4  16
ATOM     16  O   UNL     1       6.375   3.737  13.716  0.00  0.00    +0.000 OA
BRANCH  16  17
ATOM     17  C   UNL     1       5.360   4.085  12.776  0.00  0.00    +0.000 C 
BRANCH  17  18
ATOM     18  C   UNL     1       5.113   2.927  11.810  0.00  0.00    +0.000 C 
ATOM     19  N   UNL     1       6.061   1.946  11.792  0.00  0.00    +0.000 N 
ATOM     20  O   UNL     1       4.135   2.872  11.067  0.00  0.00    +0.000 OA
ATOM     21  H   UNL     1       6.856   1.988  12.418  0.00  0.00    +0.000 HD
ATOM     22  H   UNL     1       5.946   1.159  11.170  0.00  0.00    +0.000 HD
ENDBRANCH  17  18
ENDBRANCH  16  17
ENDBRANCH   4  16
TORSDOF 5
ENDMDL
MODEL 5
REMARK VINA RESULT:      -6.8      1.209      1.690
REMARK  Name = 
REMARK  6 active torsions:
REMARK  status: ('A' for Active; 'I' for Inactive)
REMARK    1  A    between atoms: C_1  and  N_2
REMARK    2  A    between atoms: N_7  and  C_8
REMARK    3  A    between atoms: C_8  and  C_10
REMARK    4  A    between atoms: C_13  and  O_14
REMARK    5  A    between atoms: O_14  and  C_15
REMARK    6  A    between atoms: C_15  and  C_16
REMARK                            x       y       z     vdW  Elec       q    Type
REMARK                         _______ _______ _______ _____ _____    ______ ____
ROOT
ATOM      1  C   UNL     1       5.879   4.549  17.498  0.00  0.00    +0.000 A 
ATOM      2  C   UNL     1       4.754   4.430  16.673  0.00  0.00    +0.000 A 
ATOM      3  C   UNL     1       4.886   4.481  15.284  0.00  0.00    +0.000 A 
ATOM      4  C   UNL     1       6.138   4.673  14.700  0.00  0.00    +0.000 A 
ATOM      5  C   UNL     1       7.264   4.814  15.514  0.00  0.00    +0.000 A 
ATOM      6  C   UNL     1       7.136   4.752  16.911  0.00  0.00    +0.000 A 
ENDROOT
BRANCH   1   7
ATOM      7  C   UNL     1       5.693   4.444  18.977  0.00  0.00    +0.000 C 
ATOM      8  O   UNL     1       6.399   5.134  19.704  0.00  0.00    +0.000 OA
BRANCH   7  15
ATOM      9  C   UNL     1       3.170   6.307  19.362  0.00  0.00    +0.000 C 
ATOM     10  N   UNL     1       2.798   4.995  19.856  0.00  0.00    +0.000 N 
ATOM     11  C   UNL     1       1.553   4.768  20.433  0.00  0.00    +0.000 A 
ATOM     12  C   UNL     1       1.296   3.513  20.810  0.00  0.00    +0.000 A 
ATOM     13  S   UNL     1       2.638   2.468  20.453  0.00  0.00    +0.000 S 
ATOM     14  C   UNL     1       3.610   3.858  19.791  0.00  0.00    +0.000 A 
ATOM     15  N   UNL     1       4.787   3.520  19.409  0.00  0.00    +0.000 NA
ENDBRANCH   7  15
ENDBRANCH   1   7
BRANCH   4  16
ATOM     16  O   UNL     1       6.137   4.642  13.334  0.00  0.00    +0.000 OA
BRANCH  16  17
ATOM     17  C   UNL     1       6.667   3.466  12.725  0.00  0.00    +0.000 C 
BRANCH  17  18
ATOM     18  C   UNL     1       5.588   2.763  11.903  0.00  0.00    +0.000 C 
ATOM     19  N   UNL     1       5.881   1.498  11.481  0.00  0.00    +0.000 N 
ATOM     20  O   UNL     1       4.518   3.293  11.608  0.00  0.00    +0.000 OA
ATOM     21  H   UNL     1       6.757   1.060  11.740  0.00  0.00    +0.000 HD
ATOM     22  H   UNL     1       5.202   0.990  10.933  0.00  0.00    +0.000 HD
ENDBRANCH  17  18
ENDBRANCH  16  17
ENDBRANCH   4  16
TORSDOF 5
ENDMDL
MODEL 6
REMARK VINA RESULT:      -6.8      2.309      2.650
REMARK  Name = 
REMARK  6 active torsions:
REMARK  status: ('A' for Active; 'I' for Inactive)
REMARK    1  A    between atoms: C_1  and  N_2
REMARK    2  A    between atoms: N_7  and  C_8
REMARK    3  A    between atoms: C_8  and  C_10
REMARK    4  A    between atoms: C_13  and  O_14
REMARK    5  A    between atoms: O_14  and  C_15
REMARK    6  A    between atoms: C_15  and  C_16
REMARK                            x       y       z     vdW  Elec       q    Type
REMARK                         _______ _______ _______ _____ _____    ______ ____
ROOT
ATOM      1  C   UNL     1       4.627   5.979  18.089  0.00  0.00    +0.000 A 
ATOM      2  C   UNL     1       4.483   6.222  16.717  0.00  0.00    +0.000 A 
ATOM      3  C   UNL     1       5.510   5.895  15.830  0.00  0.00    +0.000 A 
ATOM      4  C   UNL     1       6.701   5.342  16.300  0.00  0.00    +0.000 A 
ATOM      5  C   UNL     1       6.863   5.115  17.667  0.00  0.00    +0.000 A 
ATOM      6  C   UNL     1       5.828   5.432  18.562  0.00  0.00    +0.000 A 
ENDROOT
BRANCH   1   7
ATOM      7  C   UNL     1       3.483   6.305  18.994  0.00  0.00    +0.000 C 
ATOM      8  O   UNL     1       2.830   7.318  18.766  0.00  0.00    +0.000 OA
BRANCH   7  15
ATOM      9  C   UNL     1       1.490   4.216  17.710  0.00  0.00    +0.000 C 
ATOM     10  N   UNL     1       1.607   3.872  19.114  0.00  0.00    +0.000 N 
ATOM     11  C   UNL     1       0.863   2.835  19.666  0.00  0.00    +0.000 A 
ATOM     12  C   UNL     1       1.084   2.570  20.957  0.00  0.00    +0.000 A 
ATOM     13  S   UNL     1       2.294   3.632  21.612  0.00  0.00    +0.000 S 
ATOM     14  C   UNL     1       2.462   4.504  20.023  0.00  0.00    +0.000 A 
ATOM     15  N   UNL     1       3.299   5.476  20.061  0.00  0.00    +0.000 NA
ENDBRANCH   7  15
ENDBRANCH   1   7
BRANCH   4  16
ATOM     16  O   UNL     1       7.598   5.013  15.322  0.00  0.00    +0.000 OA
BRANCH  16  17
ATOM     17  C   UNL     1       7.056   4.464  14.122  0.00  0.00    +0.000 C 
BRANCH  17  18
ATOM     18  C   UNL     1       7.775   5.043  12.904  0.00  0.00    +0.000 C 
ATOM     19  N   UNL     1       8.747   5.966  13.161  0.00  0.00    +0.000 N 
ATOM     20  O   UNL     1       7.497   4.726  11.749  0.00  0.00    +0.000 OA
ATOM     21  H   UNL     1       8.983   6.211  14.115  0.00  0.00    +0.000 HD
ATOM     22  H   UNL     1       9.251   6.380  12.391  0.00  0.00    +0.000 HD
ENDBRANCH  17  18
ENDBRANCH  16  17
ENDBRANCH   4  16
TORSDOF 5
ENDMDL
MODEL 7
REMARK VINA RESULT:      -6.6      4.754      7.896
REMARK  Name = 
REMARK  6 active torsions:
REMARK  status: ('A' for Active; 'I' for Inactive)
REMARK    1  A    between atoms: C_1  and  N_2
REMARK    2  A    between atoms: N_7  and  C_8
REMARK    3  A    between atoms: C_8  and  C_10
REMARK    4  A    between atoms: C_13  and  O_14
REMARK    5  A    between atoms: O_14  and  C_15
REMARK    6  A    between atoms: C_15  and  C_16
REMARK                            x       y       z     vdW  Elec       q    Type
REMARK                         _______ _______ _______ _____ _____    ______ ____
ROOT
ATOM      1  C   UNL     1       2.564   7.401  18.380  0.00  0.00    +0.000 A 
ATOM      2  C   UNL     1       2.306   7.198  19.741  0.00  0.00    +0.000 A 
ATOM      3  C   UNL     1       1.590   8.147  20.474  0.00  0.00    +0.000 A 
ATOM      4  C   UNL     1       1.139   9.318  19.865  0.00  0.00    +0.000 A 
ATOM      5  C   UNL     1       1.409   9.539  18.514  0.00  0.00    +0.000 A 
ATOM      6  C   UNL     1       2.119   8.583  17.771  0.00  0.00    +0.000 A 
ENDROOT
BRANCH   1   7
ATOM      7  C   UNL     1       3.296   6.337  17.627  0.00  0.00    +0.000 C 
ATOM      8  O   UNL     1       4.324   6.645  17.035  0.00  0.00    +0.000 OA
BRANCH   7  15
ATOM      9  C   UNL     1       5.275   4.766  19.523  0.00  0.00    +0.000 C 
ATOM     10  N   UNL     1       4.342   3.789  18.993  0.00  0.00    +0.000 N 
ATOM     11  C   UNL     1       4.466   2.437  19.295  0.00  0.00    +0.000 A 
ATOM     12  C   UNL     1       3.525   1.631  18.794  0.00  0.00    +0.000 A 
ATOM     13  S   UNL     1       2.357   2.534  17.877  0.00  0.00    +0.000 S 
ATOM     14  C   UNL     1       3.250   4.091  18.174  0.00  0.00    +0.000 A 
ATOM     15  N   UNL     1       2.712   5.105  17.599  0.00  0.00    +0.000 NA
ENDBRANCH   7  15
ENDBRANCH   1   7
BRANCH   4  16
ATOM     16  O   UNL     1       0.400  10.131  20.678  0.00  0.00    +0.000 OA
BRANCH  16  17
ATOM     17  C   UNL     1      -0.538   9.487  21.537  0.00  0.00    +0.000 C 
BRANCH  17  18
ATOM     18  C   UNL     1      -0.464  10.081  22.943  0.00  0.00    +0.000 C 
ATOM     19  N   UNL     1      -1.400  11.027  23.247  0.00  0.00    +0.000 N 
ATOM     20  O   UNL     1       0.393   9.757  23.762  0.00  0.00    +0.000 OA
ATOM     21  H   UNL     1      -2.114  11.279  22.573  0.00  0.00    +0.000 HD
ATOM     22  H   UNL     1      -1.393  11.452  24.162  0.00  0.00    +0.000 HD
ENDBRANCH  17  18
ENDBRANCH  16  17
ENDBRANCH   4  16
TORSDOF 5
ENDMDL
MODEL 8
REMARK VINA RESULT:      -6.5      3.550      5.728
REMARK  Name = 
REMARK  6 active torsions:
REMARK  status: ('A' for Active; 'I' for Inactive)
REMARK    1  A    between atoms: C_1  and  N_2
REMARK    2  A    between atoms: N_7  and  C_8
REMARK    3  A    between atoms: C_8  and  C_10
REMARK    4  A    between atoms: C_13  and  O_14
REMARK    5  A    between atoms: O_14  and  C_15
REMARK    6  A    between atoms: C_15  and  C_16
REMARK                            x       y       z     vdW  Elec       q    Type
REMARK                         _______ _______ _______ _____ _____    ______ ____
ROOT
ATOM      1  C   UNL     1       5.889   5.222  17.653  0.00  0.00    +0.000 A 
ATOM      2  C   UNL     1       6.852   5.039  18.653  0.00  0.00    +0.000 A 
ATOM      3  C   UNL     1       7.777   6.046  18.936  0.00  0.00    +0.000 A 
ATOM      4  C   UNL     1       7.768   7.239  18.214  0.00  0.00    +0.000 A 
ATOM      5  C   UNL     1       6.825   7.423  17.201  0.00  0.00    +0.000 A 
ATOM      6  C   UNL     1       5.886   6.416  16.920  0.00  0.00    +0.000 A 
ENDROOT
BRANCH   1   7
ATOM      7  C   UNL     1       4.893   4.133  17.416  0.00  0.00    +0.000 C 
ATOM      8  O   UNL     1       4.463   3.973  16.278  0.00  0.00    +0.000 OA
BRANCH   7  15
ATOM      9  C   UNL     1       2.391   5.879  18.236  0.00  0.00    +0.000 C 
ATOM     10  N   UNL     1       2.564   4.884  19.277  0.00  0.00    +0.000 N 
ATOM     11  C   UNL     1       1.749   4.871  20.404  0.00  0.00    +0.000 A 
ATOM     12  C   UNL     1       1.962   3.882  21.276  0.00  0.00    +0.000 A 
ATOM     13  S   UNL     1       3.244   2.840  20.735  0.00  0.00    +0.000 S 
ATOM     14  C   UNL     1       3.515   3.859  19.252  0.00  0.00    +0.000 A 
ATOM     15  N   UNL     1       4.479   3.440  18.516  0.00  0.00    +0.000 NA
ENDBRANCH   7  15
ENDBRANCH   1   7
BRANCH   4  16
ATOM     16  O   UNL     1       8.683   8.163  18.632  0.00  0.00    +0.000 OA
BRANCH  16  17
ATOM     17  C   UNL     1       8.445   9.515  18.244  0.00  0.00    +0.000 C 
BRANCH  17  18
ATOM     18  C   UNL     1       9.334  10.461  19.049  0.00  0.00    +0.000 C 
ATOM     19  N   UNL     1      10.248  11.181  18.334  0.00  0.00    +0.000 N 
ATOM     20  O   UNL     1       9.264  10.569  20.272  0.00  0.00    +0.000 OA
ATOM     21  H   UNL     1      10.290  11.100  17.326  0.00  0.00    +0.000 HD
ATOM     22  H   UNL     1      10.861  11.820  18.819  0.00  0.00    +0.000 HD
ENDBRANCH  17  18
ENDBRANCH  16  17
ENDBRANCH   4  16
TORSDOF 5
ENDMDL
MODEL 9
REMARK VINA RESULT:      -6.5      3.469      5.688
REMARK  Name = 
REMARK  6 active torsions:
REMARK  status: ('A' for Active; 'I' for Inactive)
REMARK    1  A    between atoms: C_1  and  N_2
REMARK    2  A    between atoms: N_7  and  C_8
REMARK    3  A    between atoms: C_8  and  C_10
REMARK    4  A    between atoms: C_13  and  O_14
REMARK    5  A    between atoms: O_14  and  C_15
REMARK    6  A    between atoms: C_15  and  C_16
REMARK                            x       y       z     vdW  Elec       q    Type
REMARK                         _______ _______ _______ _____ _____    ______ ____
ROOT
ATOM      1  C   UNL     1       5.855   5.117  17.789  0.00  0.00    +0.000 A 
ATOM      2  C   UNL     1       5.864   6.325  17.080  0.00  0.00    +0.000 A 
ATOM      3  C   UNL     1       6.822   7.301  17.358  0.00  0.00    +0.000 A 
ATOM      4  C   UNL     1       7.772   7.094  18.359  0.00  0.00    +0.000 A 
ATOM      5  C   UNL     1       7.759   5.903  19.085  0.00  0.00    +0.000 A 
ATOM      6  C   UNL     1       6.802   4.914  18.801  0.00  0.00    +0.000 A 
ENDROOT
BRANCH   1   7
ATOM      7  C   UNL     1       4.836   4.085  17.426  0.00  0.00    +0.000 C 
ATOM      8  O   UNL     1       4.473   4.011  16.257  0.00  0.00    +0.000 OA
BRANCH   7  15
ATOM      9  C   UNL     1       2.426   5.941  18.279  0.00  0.00    +0.000 C 
ATOM     10  N   UNL     1       2.485   4.864  19.248  0.00  0.00    +0.000 N 
ATOM     11  C   UNL     1       1.623   4.827  20.339  0.00  0.00    +0.000 A 
ATOM     12  C   UNL     1       1.730   3.765  21.142  0.00  0.00    +0.000 A 
ATOM     13  S   UNL     1       2.960   2.677  20.574  0.00  0.00    +0.000 S 
ATOM     14  C   UNL     1       3.364   3.778  19.183  0.00  0.00    +0.000 A 
ATOM     15  N   UNL     1       4.329   3.346  18.455  0.00  0.00    +0.000 NA
ENDBRANCH   7  15
ENDBRANCH   1   7
BRANCH   4  16
ATOM     16  O   UNL     1       8.689   8.100  18.486  0.00  0.00    +0.000 OA
BRANCH  16  17
ATOM     17  C   UNL     1       8.291   9.386  18.015  0.00  0.00    +0.000 C 
BRANCH  17  18
ATOM     18  C   UNL     1       9.155  10.474  18.651  0.00  0.00    +0.000 C 
ATOM     19  N   UNL     1       9.463  10.303  19.970  0.00  0.00    +0.000 N 
ATOM     20  O   UNL     1       9.545  11.465  18.036  0.00  0.00    +0.000 OA
ATOM     21  H   UNL     1       9.153   9.477  20.467  0.00  0.00    +0.000 HD
ATOM     22  H   UNL     1      10.030  10.995  20.438  0.00  0.00    +0.000 HD
ENDBRANCH  17  18
ENDBRANCH  16  17
ENDBRANCH   4  16
TORSDOF 5
ENDMDL
