MODEL 1
REMARK VINA RESULT:      -9.0      0.000      0.000
REMARK  Name = 
REMARK  8 active torsions:
REMARK  status: ('A' for Active; 'I' for Inactive)
REMARK    1  A    between atoms: C_2  and  C_3
REMARK    2  A    between atoms: C_3  and  N_4
REMARK    3  A    between atoms: C_5  and  C_7
REMARK    4  A    between atoms: C_11  and  C_12
REMARK    5  A    between atoms: N_17  and  C_18
REMARK    6  A    between atoms: N_20  and  C_21
REMARK    7  A    between atoms: C_25  and  C_26
REMARK    8  A    between atoms: C_34  and  O_35
REMARK                            x       y       z     vdW  Elec       q    Type
REMARK                         _______ _______ _______ _____ _____    ______ ____
ROOT
ATOM      1  O   UNL     1      -0.681   9.785  17.858  0.00  0.00    +0.000 OA
ATOM      2  C   UNL     1       0.232  10.148  18.605  0.00  0.00    +0.000 C 
ATOM      3  N   UNL     1      -0.094  10.578  19.857  0.00  0.00    +0.000 N 
ATOM      4  H   UNL     1      -1.099  10.625  19.988  0.00  0.00    +0.000 HD
ENDROOT
BRANCH   3   5
ATOM      5  C   UNL     1       0.756  10.808  21.036  0.00  0.00    +0.000 C 
ATOM      6  C   UNL     1       0.341  12.022  21.879  0.00  0.00    +0.000 C 
ATOM      7  N   UNL     1      -0.750  11.599  22.793  0.00  0.00    +0.000 NA
ATOM      8  C   UNL     1      -0.626  10.122  22.903  0.00  0.00    +0.000 C 
ATOM      9  C   UNL     1       0.592   9.689  22.071  0.00  0.00    +0.000 C 
BRANCH   7  10
ATOM     10  C   UNL     1      -2.097  12.038  22.343  0.00  0.00    +0.000 C 
ATOM     11  C   UNL     1      -3.054  12.375  23.519  0.00  0.00    +0.000 C 
ATOM     12  C   UNL     1      -4.432  12.800  23.007  0.00  0.00    +0.000 C 
ATOM     13  C   UNL     1      -4.324  14.003  22.071  0.00  0.00    +0.000 C 
ATOM     14  C   UNL     1      -3.401  13.707  20.868  0.00  0.00    +0.000 C 
ATOM     15  C   UNL     1      -2.019  13.309  21.449  0.00  0.00    +0.000 C 
BRANCH  14  16
ATOM     16  C   UNL     1      -3.983  12.710  19.857  0.00  0.00    +0.000 A 
ATOM     17  C   UNL     1      -5.367  12.466  19.794  0.00  0.00    +0.000 A 
ATOM     18  C   UNL     1      -5.901  11.500  18.934  0.00  0.00    +0.000 A 
ATOM     19  C   UNL     1      -5.066  10.780  18.090  0.00  0.00    +0.000 A 
ATOM     20  C   UNL     1      -3.705  11.055  18.078  0.00  0.00    +0.000 A 
ATOM     21  C   UNL     1      -3.172  12.020  18.939  0.00  0.00    +0.000 A 
ENDBRANCH  14  16
ENDBRANCH   7  10
BRANCH   9  22
ATOM     22  O   UNL     1       1.757   9.568  22.891  0.00  0.00    +0.000 OA
ATOM     23  H   UNL     1       2.106  10.464  23.048  0.00  0.00    +0.000 HD
ENDBRANCH   9  22
ENDBRANCH   3   5
BRANCH   2  24
ATOM     24  C   UNL     1       1.683  10.070  18.148  0.00  0.00    +0.000 C 
BRANCH  24  25
ATOM     25  N   UNL     1       2.078   8.748  17.675  0.00  0.00    +0.000 N 
ATOM     26  C   UNL     1       2.309   7.746  18.584  0.00  0.00    +0.000 C 
ATOM     27  O   UNL     1       2.108   7.925  19.787  0.00  0.00    +0.000 OA
ATOM     28  H   UNL     1       2.228   8.634  16.680  0.00  0.00    +0.000 HD
BRANCH  26  29
ATOM     29  C   UNL     1       2.818   6.414  18.130  0.00  0.00    +0.000 A 
ATOM     30  C   UNL     1       3.997   6.432  17.367  0.00  0.00    +0.000 A 
ATOM     31  C   UNL     1       4.584   5.255  16.905  0.00  0.00    +0.000 A 
ATOM     32  C   UNL     1       3.988   4.033  17.189  0.00  0.00    +0.000 A 
ATOM     33  C   UNL     1       2.793   3.977  17.925  0.00  0.00    +0.000 A 
ATOM     34  C   UNL     1       2.210   5.177  18.400  0.00  0.00    +0.000 A 
BRANCH  33  35
ATOM     35  C   UNL     1       2.143   2.639  18.198  0.00  0.00    +0.000 C 
ATOM     36  F   UNL     1       2.556   2.057  19.358  0.00  0.00    +0.000 F 
ATOM     37  F   UNL     1       0.788   2.727  18.287  0.00  0.00    +0.000 F 
ATOM     38  F   UNL     1       2.397   1.731  17.216  0.00  0.00    +0.000 F 
ENDBRANCH  33  35
ENDBRANCH  26  29
ENDBRANCH  24  25
ENDBRANCH   2  24
TORSDOF 8
ENDMDL
MODEL 2
REMARK VINA RESULT:      -9.0      0.218      1.021
REMARK  Name = 
REMARK  8 active torsions:
REMARK  status: ('A' for Active; 'I' for Inactive)
REMARK    1  A    between atoms: C_2  and  C_3
REMARK    2  A    between atoms: C_3  and  N_4
REMARK    3  A    between atoms: C_5  and  C_7
REMARK    4  A    between atoms: C_11  and  C_12
REMARK    5  A    between atoms: N_17  and  C_18
REMARK    6  A    between atoms: N_20  and  C_21
REMARK    7  A    between atoms: C_25  and  C_26
REMARK    8  A    between atoms: C_34  and  O_35
REMARK                            x       y       z     vdW  Elec       q    Type
REMARK                         _______ _______ _______ _____ _____    ______ ____
ROOT
ATOM      1  O   UNL     1      -0.589   9.650  17.812  0.00  0.00    +0.000 OA
ATOM      2  C   UNL     1       0.329  10.024  18.547  0.00  0.00    +0.000 C 
ATOM      3  N   UNL     1       0.017  10.437  19.808  0.00  0.00    +0.000 N 
ATOM      4  H   UNL     1      -0.986  10.465  19.956  0.00  0.00    +0.000 HD
ENDROOT
BRANCH   3   5
ATOM      5  C   UNL     1       0.883  10.674  20.974  0.00  0.00    +0.000 C 
ATOM      6  C   UNL     1       0.490  11.901  21.806  0.00  0.00    +0.000 C 
ATOM      7  N   UNL     1      -0.595  11.501  22.738  0.00  0.00    +0.000 NA
ATOM      8  C   UNL     1      -0.485  10.024  22.864  0.00  0.00    +0.000 C 
ATOM      9  C   UNL     1       0.720   9.569  22.025  0.00  0.00    +0.000 C 
BRANCH   7  10
ATOM     10  C   UNL     1      -1.942  11.948  22.298  0.00  0.00    +0.000 C 
ATOM     11  C   UNL     1      -2.889  12.289  23.481  0.00  0.00    +0.000 C 
ATOM     12  C   UNL     1      -4.269  12.723  22.979  0.00  0.00    +0.000 C 
ATOM     13  C   UNL     1      -4.161  13.925  22.043  0.00  0.00    +0.000 C 
ATOM     14  C   UNL     1      -3.247  13.626  20.833  0.00  0.00    +0.000 C 
ATOM     15  C   UNL     1      -1.863  13.219  21.404  0.00  0.00    +0.000 C 
BRANCH  14  16
ATOM     16  C   UNL     1      -3.843  12.632  19.826  0.00  0.00    +0.000 A 
ATOM     17  C   UNL     1      -3.026  11.965  18.896  0.00  0.00    +0.000 A 
ATOM     18  C   UNL     1      -3.566  11.120  17.921  0.00  0.00    +0.000 A 
ATOM     19  C   UNL     1      -4.936  10.894  17.877  0.00  0.00    +0.000 A 
ATOM     20  C   UNL     1      -5.756  11.481  18.831  0.00  0.00    +0.000 A 
ATOM     21  C   UNL     1      -5.215  12.325  19.804  0.00  0.00    +0.000 A 
ENDBRANCH  14  16
ENDBRANCH   7  10
BRANCH   9  22
ATOM     22  O   UNL     1       1.893   9.446  22.832  0.00  0.00    +0.000 OA
ATOM     23  H   UNL     1       2.562   8.962  22.315  0.00  0.00    +0.000 HD
ENDBRANCH   9  22
ENDBRANCH   3   5
BRANCH   2  24
ATOM     24  C   UNL     1       1.774   9.976  18.064  0.00  0.00    +0.000 C 
BRANCH  24  25
ATOM     25  N   UNL     1       2.196   8.657  17.610  0.00  0.00    +0.000 N 
ATOM     26  C   UNL     1       2.382   7.652  18.527  0.00  0.00    +0.000 C 
ATOM     27  O   UNL     1       2.117   7.829  19.718  0.00  0.00    +0.000 OA
ATOM     28  H   UNL     1       2.399   8.546  16.624  0.00  0.00    +0.000 HD
BRANCH  26  29
ATOM     29  C   UNL     1       2.918   6.323  18.097  0.00  0.00    +0.000 A 
ATOM     30  C   UNL     1       4.062   6.353  17.284  0.00  0.00    +0.000 A 
ATOM     31  C   UNL     1       4.669   5.181  16.837  0.00  0.00    +0.000 A 
ATOM     32  C   UNL     1       4.129   3.951  17.189  0.00  0.00    +0.000 A 
ATOM     33  C   UNL     1       2.969   3.881  17.977  0.00  0.00    +0.000 A 
ATOM     34  C   UNL     1       2.365   5.077  18.435  0.00  0.00    +0.000 A 
BRANCH  33  35
ATOM     35  C   UNL     1       2.378   2.532  18.324  0.00  0.00    +0.000 C 
ATOM     36  F   UNL     1       2.856   1.513  17.557  0.00  0.00    +0.000 F 
ATOM     37  F   UNL     1       2.619   2.174  19.614  0.00  0.00    +0.000 F 
ATOM     38  F   UNL     1       1.025   2.507  18.172  0.00  0.00    +0.000 F 
ENDBRANCH  33  35
ENDBRANCH  26  29
ENDBRANCH  24  25
ENDBRANCH   2  24
TORSDOF 8
ENDMDL
MODEL 3
REMARK VINA RESULT:      -8.9      1.494      2.152
REMARK  Name = 
REMARK  8 active torsions:
REMARK  status: ('A' for Active; 'I' for Inactive)
REMARK    1  A    between atoms: C_2  and  C_3
REMARK    2  A    between atoms: C_3  and  N_4
REMARK    3  A    between atoms: C_5  and  C_7
REMARK    4  A    between atoms: C_11  and  C_12
REMARK    5  A    between atoms: N_17  and  C_18
REMARK    6  A    between atoms: N_20  and  C_21
REMARK    7  A    between atoms: C_25  and  C_26
REMARK    8  A    between atoms: C_34  and  O_35
REMARK                            x       y       z     vdW  Elec       q    Type
REMARK                         _______ _______ _______ _____ _____    ______ ____
ROOT
ATOM      1  O   UNL     1      -0.823   9.661  17.939  0.00  0.00    +0.000 OA
ATOM      2  C   UNL     1       0.098  10.039  18.670  0.00  0.00    +0.000 C 
ATOM      3  N   UNL     1      -0.215  10.488  19.919  0.00  0.00    +0.000 N 
ATOM      4  H   UNL     1      -1.218  10.536  20.059  0.00  0.00    +0.000 HD
ENDROOT
BRANCH   3   5
ATOM      5  C   UNL     1       0.648  10.740  21.084  0.00  0.00    +0.000 C 
ATOM      6  C   UNL     1       0.250  11.976  21.902  0.00  0.00    +0.000 C 
ATOM      7  N   UNL     1      -0.836  11.582  22.836  0.00  0.00    +0.000 NA
ATOM      8  C   UNL     1      -0.722  10.107  22.978  0.00  0.00    +0.000 C 
ATOM      9  C   UNL     1       0.486   9.646  22.146  0.00  0.00    +0.000 C 
BRANCH   7  10
ATOM     10  C   UNL     1      -2.183  12.021  22.388  0.00  0.00    +0.000 C 
ATOM     11  C   UNL     1      -3.122  12.405  23.564  0.00  0.00    +0.000 C 
ATOM     12  C   UNL     1      -4.503  12.829  23.055  0.00  0.00    +0.000 C 
ATOM     13  C   UNL     1      -4.394  13.999  22.079  0.00  0.00    +0.000 C 
ATOM     14  C   UNL     1      -3.489  13.655  20.875  0.00  0.00    +0.000 C 
ATOM     15  C   UNL     1      -2.104  13.261  21.452  0.00  0.00    +0.000 C 
BRANCH  14  16
ATOM     16  C   UNL     1      -4.094  12.631  19.905  0.00  0.00    +0.000 A 
ATOM     17  C   UNL     1      -3.303  12.005  18.925  0.00  0.00    +0.000 A 
ATOM     18  C   UNL     1      -3.860  11.132  17.984  0.00  0.00    +0.000 A 
ATOM     19  C   UNL     1      -5.216  10.837  18.023  0.00  0.00    +0.000 A 
ATOM     20  C   UNL     1      -6.005  11.383  19.027  0.00  0.00    +0.000 A 
ATOM     21  C   UNL     1      -5.448  12.255  19.967  0.00  0.00    +0.000 A 
ENDBRANCH  14  16
ENDBRANCH   7  10
BRANCH   9  22
ATOM     22  O   UNL     1       1.658   9.536  22.957  0.00  0.00    +0.000 OA
ATOM     23  H   UNL     1       2.374  10.026  22.514  0.00  0.00    +0.000 HD
ENDBRANCH   9  22
ENDBRANCH   3   5
BRANCH   2  24
ATOM     24  C   UNL     1       1.544   9.955  18.198  0.00  0.00    +0.000 C 
BRANCH  24  25
ATOM     25  N   UNL     1       1.917   8.643  17.683  0.00  0.00    +0.000 N 
ATOM     26  C   UNL     1       2.297   7.655  18.558  0.00  0.00    +0.000 C 
ATOM     27  O   UNL     1       2.249   7.838  19.776  0.00  0.00    +0.000 OA
ATOM     28  H   UNL     1       1.940   8.526  16.677  0.00  0.00    +0.000 HD
BRANCH  26  29
ATOM     29  C   UNL     1       2.787   6.337  18.047  0.00  0.00    +0.000 A 
ATOM     30  C   UNL     1       1.886   5.264  18.144  0.00  0.00    +0.000 A 
ATOM     31  C   UNL     1       2.216   3.992  17.682  0.00  0.00    +0.000 A 
ATOM     32  C   UNL     1       3.467   3.767  17.122  0.00  0.00    +0.000 A 
ATOM     33  C   UNL     1       4.405   4.809  17.033  0.00  0.00    +0.000 A 
ATOM     34  C   UNL     1       4.058   6.101  17.496  0.00  0.00    +0.000 A 
BRANCH  33  35
ATOM     35  C   UNL     1       5.774   4.538  16.449  0.00  0.00    +0.000 C 
ATOM     36  F   UNL     1       6.185   5.483  15.558  0.00  0.00    +0.000 F 
ATOM     37  F   UNL     1       6.744   4.477  17.402  0.00  0.00    +0.000 F 
ATOM     38  F   UNL     1       5.825   3.352  15.783  0.00  0.00    +0.000 F 
ENDBRANCH  33  35
ENDBRANCH  26  29
ENDBRANCH  24  25
ENDBRANCH   2  24
TORSDOF 8
ENDMDL
MODEL 4
REMARK VINA RESULT:      -8.9      1.345      1.774
REMARK  Name = 
REMARK  8 active torsions:
REMARK  status: ('A' for Active; 'I' for Inactive)
REMARK    1  A    between atoms: C_2  and  C_3
REMARK    2  A    between atoms: C_3  and  N_4
REMARK    3  A    between atoms: C_5  and  C_7
REMARK    4  A    between atoms: C_11  and  C_12
REMARK    5  A    between atoms: N_17  and  C_18
REMARK    6  A    between atoms: N_20  and  C_21
REMARK    7  A    between atoms: C_25  and  C_26
REMARK    8  A    between atoms: C_34  and  O_35
REMARK                            x       y       z     vdW  Elec       q    Type
REMARK                         _______ _______ _______ _____ _____    ______ ____
ROOT
ATOM      1  O   UNL     1      -1.442  10.088  18.209  0.00  0.00    +0.000 OA
ATOM      2  C   UNL     1      -0.487  10.382  18.934  0.00  0.00    +0.000 C 
ATOM      3  N   UNL     1      -0.750  10.903  20.165  0.00  0.00    +0.000 N 
ATOM      4  H   UNL     1      -1.742  11.068  20.299  0.00  0.00    +0.000 HD
ENDROOT
BRANCH   3   5
ATOM      5  C   UNL     1       0.133  11.093  21.328  0.00  0.00    +0.000 C 
ATOM      6  C   UNL     1      -0.280  12.252  22.244  0.00  0.00    +0.000 C 
ATOM      7  N   UNL     1      -1.332  11.759  23.169  0.00  0.00    +0.000 NA
ATOM      8  C   UNL     1      -1.174  10.282  23.198  0.00  0.00    +0.000 C 
ATOM      9  C   UNL     1       0.026   9.919  22.309  0.00  0.00    +0.000 C 
BRANCH   7  10
ATOM     10  C   UNL     1      -2.701  12.190  22.785  0.00  0.00    +0.000 C 
ATOM     11  C   UNL     1      -3.579  12.591  24.001  0.00  0.00    +0.000 C 
ATOM     12  C   UNL     1      -4.985  13.006  23.557  0.00  0.00    +0.000 C 
ATOM     13  C   UNL     1      -4.928  14.162  22.560  0.00  0.00    +0.000 C 
ATOM     14  C   UNL     1      -4.085  13.801  21.317  0.00  0.00    +0.000 C 
ATOM     15  C   UNL     1      -2.671  13.416  21.828  0.00  0.00    +0.000 C 
BRANCH  14  16
ATOM     16  C   UNL     1      -4.737  12.763  20.393  0.00  0.00    +0.000 A 
ATOM     17  C   UNL     1      -4.049  12.248  19.281  0.00  0.00    +0.000 A 
ATOM     18  C   UNL     1      -4.662  11.364  18.387  0.00  0.00    +0.000 A 
ATOM     19  C   UNL     1      -5.968  10.945  18.605  0.00  0.00    +0.000 A 
ATOM     20  C   UNL     1      -6.644  11.379  19.738  0.00  0.00    +0.000 A 
ATOM     21  C   UNL     1      -6.030  12.263  20.630  0.00  0.00    +0.000 A 
ENDBRANCH  14  16
ENDBRANCH   7  10
BRANCH   9  22
ATOM     22  O   UNL     1       1.219   9.783  23.084  0.00  0.00    +0.000 OA
ATOM     23  H   UNL     1       1.534   8.865  22.988  0.00  0.00    +0.000 HD
ENDBRANCH   9  22
ENDBRANCH   3   5
BRANCH   2  24
ATOM     24  C   UNL     1       0.942  10.122  18.472  0.00  0.00    +0.000 C 
BRANCH  24  25
ATOM     25  N   UNL     1       1.499   8.869  18.969  0.00  0.00    +0.000 N 
ATOM     26  C   UNL     1       2.331   8.132  18.163  0.00  0.00    +0.000 C 
ATOM     27  O   UNL     1       2.678   8.555  17.059  0.00  0.00    +0.000 OA
ATOM     28  H   UNL     1       1.197   8.554  19.883  0.00  0.00    +0.000 HD
BRANCH  26  29
ATOM     29  C   UNL     1       2.828   6.794  18.610  0.00  0.00    +0.000 A 
ATOM     30  C   UNL     1       4.068   6.390  18.090  0.00  0.00    +0.000 A 
ATOM     31  C   UNL     1       4.647   5.174  18.448  0.00  0.00    +0.000 A 
ATOM     32  C   UNL     1       3.984   4.330  19.329  0.00  0.00    +0.000 A 
ATOM     33  C   UNL     1       2.729   4.687  19.848  0.00  0.00    +0.000 A 
ATOM     34  C   UNL     1       2.153   5.928  19.487  0.00  0.00    +0.000 A 
BRANCH  33  35
ATOM     35  C   UNL     1       2.008   3.740  20.782  0.00  0.00    +0.000 C 
ATOM     36  F   UNL     1       2.229   2.425  20.505  0.00  0.00    +0.000 F 
ATOM     37  F   UNL     1       2.371   3.914  22.082  0.00  0.00    +0.000 F 
ATOM     38  F   UNL     1       0.657   3.905  20.743  0.00  0.00    +0.000 F 
ENDBRANCH  33  35
ENDBRANCH  26  29
ENDBRANCH  24  25
ENDBRANCH   2  24
TORSDOF 8
ENDMDL
MODEL 5
REMARK VINA RESULT:      -8.8      0.857      1.432
REMARK  Name = 
REMARK  8 active torsions:
REMARK  status: ('A' for Active; 'I' for Inactive)
REMARK    1  A    between atoms: C_2  and  C_3
REMARK    2  A    between atoms: C_3  and  N_4
REMARK    3  A    between atoms: C_5  and  C_7
REMARK    4  A    between atoms: C_11  and  C_12
REMARK    5  A    between atoms: N_17  and  C_18
REMARK    6  A    between atoms: N_20  and  C_21
REMARK    7  A    between atoms: C_25  and  C_26
REMARK    8  A    between atoms: C_34  and  O_35
REMARK                            x       y       z     vdW  Elec       q    Type
REMARK                         _______ _______ _______ _____ _____    ______ ____
ROOT
ATOM      1  O   UNL     1      -0.603   9.731  17.725  0.00  0.00    +0.000 OA
ATOM      2  C   UNL     1       0.356   9.918  18.479  0.00  0.00    +0.000 C 
ATOM      3  N   UNL     1       0.142  10.614  19.632  0.00  0.00    +0.000 N 
ATOM      4  H   UNL     1      -0.803  10.977  19.681  0.00  0.00    +0.000 HD
ENDROOT
BRANCH   3   5
ATOM      5  C   UNL     1       0.989  10.762  20.826  0.00  0.00    +0.000 C 
ATOM      6  C   UNL     1       0.568  11.909  21.754  0.00  0.00    +0.000 C 
ATOM      7  N   UNL     1      -0.524  11.415  22.633  0.00  0.00    +0.000 NA
ATOM      8  C   UNL     1      -0.393   9.935  22.635  0.00  0.00    +0.000 C 
ATOM      9  C   UNL     1       0.828   9.569  21.777  0.00  0.00    +0.000 C 
BRANCH   7  10
ATOM     10  C   UNL     1      -1.871  11.881  22.214  0.00  0.00    +0.000 C 
ATOM     11  C   UNL     1      -2.787  12.258  23.410  0.00  0.00    +0.000 C 
ATOM     12  C   UNL     1      -4.169  12.709  22.929  0.00  0.00    +0.000 C 
ATOM     13  C   UNL     1      -4.058  13.894  21.972  0.00  0.00    +0.000 C 
ATOM     14  C   UNL     1      -3.176  13.558  20.748  0.00  0.00    +0.000 C 
ATOM     15  C   UNL     1      -1.788  13.135  21.297  0.00  0.00    +0.000 C 
BRANCH  14  16
ATOM     16  C   UNL     1      -3.810  12.560  19.770  0.00  0.00    +0.000 A 
ATOM     17  C   UNL     1      -3.026  11.867  18.832  0.00  0.00    +0.000 A 
ATOM     18  C   UNL     1      -3.602  11.016  17.882  0.00  0.00    +0.000 A 
ATOM     19  C   UNL     1      -4.975  10.811  17.873  0.00  0.00    +0.000 A 
ATOM     20  C   UNL     1      -5.764  11.425  18.837  0.00  0.00    +0.000 A 
ATOM     21  C   UNL     1      -5.187  12.275  19.785  0.00  0.00    +0.000 A 
ENDBRANCH  14  16
ENDBRANCH   7  10
BRANCH   9  22
ATOM     22  O   UNL     1       1.993   9.394  22.587  0.00  0.00    +0.000 OA
ATOM     23  H   UNL     1       1.780   9.703  23.487  0.00  0.00    +0.000 HD
ENDBRANCH   9  22
ENDBRANCH   3   5
BRANCH   2  24
ATOM     24  C   UNL     1       1.727   9.343  18.145  0.00  0.00    +0.000 C 
BRANCH  24  25
ATOM     25  N   UNL     1       1.806   7.894  18.293  0.00  0.00    +0.000 N 
ATOM     26  C   UNL     1       2.936   7.232  17.881  0.00  0.00    +0.000 C 
ATOM     27  O   UNL     1       3.915   7.854  17.463  0.00  0.00    +0.000 OA
ATOM     28  H   UNL     1       0.986   7.416  18.645  0.00  0.00    +0.000 HD
BRANCH  26  29
ATOM     29  C   UNL     1       2.997   5.738  17.924  0.00  0.00    +0.000 A 
ATOM     30  C   UNL     1       4.081   5.145  17.257  0.00  0.00    +0.000 A 
ATOM     31  C   UNL     1       4.261   3.763  17.244  0.00  0.00    +0.000 A 
ATOM     32  C   UNL     1       3.344   2.945  17.892  0.00  0.00    +0.000 A 
ATOM     33  C   UNL     1       2.232   3.500  18.546  0.00  0.00    +0.000 A 
ATOM     34  C   UNL     1       2.063   4.905  18.562  0.00  0.00    +0.000 A 
BRANCH  33  35
ATOM     35  C   UNL     1       1.228   2.591  19.219  0.00  0.00    +0.000 C 
ATOM     36  F   UNL     1       0.115   2.355  18.469  0.00  0.00    +0.000 F 
ATOM     37  F   UNL     1       1.747   1.367  19.511  0.00  0.00    +0.000 F 
ATOM     38  F   UNL     1       0.778   3.101  20.399  0.00  0.00    +0.000 F 
ENDBRANCH  33  35
ENDBRANCH  26  29
ENDBRANCH  24  25
ENDBRANCH   2  24
TORSDOF 8
ENDMDL
MODEL 6
REMARK VINA RESULT:      -8.6      1.547      2.171
REMARK  Name = 
REMARK  8 active torsions:
REMARK  status: ('A' for Active; 'I' for Inactive)
REMARK    1  A    between atoms: C_2  and  C_3
REMARK    2  A    between atoms: C_3  and  N_4
REMARK    3  A    between atoms: C_5  and  C_7
REMARK    4  A    between atoms: C_11  and  C_12
REMARK    5  A    between atoms: N_17  and  C_18
REMARK    6  A    between atoms: N_20  and  C_21
REMARK    7  A    between atoms: C_25  and  C_26
REMARK    8  A    between atoms: C_34  and  O_35
REMARK                            x       y       z     vdW  Elec       q    Type
REMARK                         _______ _______ _______ _____ _____    ______ ____
ROOT
ATOM      1  O   UNL     1      -1.808  10.330  18.253  0.00  0.00    +0.000 OA
ATOM      2  C   UNL     1      -0.835  10.616  18.956  0.00  0.00    +0.000 C 
ATOM      3  N   UNL     1      -1.066  11.136  20.195  0.00  0.00    +0.000 N 
ATOM      4  H   UNL     1      -2.053  11.306  20.351  0.00  0.00    +0.000 HD
ENDROOT
BRANCH   3   5
ATOM      5  C   UNL     1      -0.155  11.317  21.337  0.00  0.00    +0.000 C 
ATOM      6  C   UNL     1      -0.588  12.418  22.313  0.00  0.00    +0.000 C 
ATOM      7  N   UNL     1      -1.588  11.841  23.248  0.00  0.00    +0.000 NA
ATOM      8  C   UNL     1      -1.364  10.372  23.210  0.00  0.00    +0.000 C 
ATOM      9  C   UNL     1      -0.179  10.101  22.270  0.00  0.00    +0.000 C 
BRANCH   7  10
ATOM     10  C   UNL     1      -2.986  12.226  22.924  0.00  0.00    +0.000 C 
ATOM     11  C   UNL     1      -3.833  12.563  24.181  0.00  0.00    +0.000 C 
ATOM     12  C   UNL     1      -5.270  12.931  23.798  0.00  0.00    +0.000 C 
ATOM     13  C   UNL     1      -5.295  14.111  22.828  0.00  0.00    +0.000 C 
ATOM     14  C   UNL     1      -4.485  13.812  21.546  0.00  0.00    +0.000 C 
ATOM     15  C   UNL     1      -3.040  13.473  21.996  0.00  0.00    +0.000 C 
BRANCH  14  16
ATOM     16  C   UNL     1      -5.130  12.770  20.623  0.00  0.00    +0.000 A 
ATOM     17  C   UNL     1      -4.477  12.331  19.458  0.00  0.00    +0.000 A 
ATOM     18  C   UNL     1      -5.089  11.443  18.567  0.00  0.00    +0.000 A 
ATOM     19  C   UNL     1      -6.357  10.946  18.838  0.00  0.00    +0.000 A 
ATOM     20  C   UNL     1      -6.992  11.305  20.019  0.00  0.00    +0.000 A 
ATOM     21  C   UNL     1      -6.380  12.192  20.909  0.00  0.00    +0.000 A 
ENDBRANCH  14  16
ENDBRANCH   7  10
BRANCH   9  22
ATOM     22  O   UNL     1       1.044   9.987  23.002  0.00  0.00    +0.000 OA
ATOM     23  H   UNL     1       1.160   9.050  23.243  0.00  0.00    +0.000 HD
ENDBRANCH   9  22
ENDBRANCH   3   5
BRANCH   2  24
ATOM     24  C   UNL     1       0.582  10.348  18.461  0.00  0.00    +0.000 C 
BRANCH  24  25
ATOM     25  N   UNL     1       1.129   9.074  18.913  0.00  0.00    +0.000 N 
ATOM     26  C   UNL     1       2.075   8.436  18.150  0.00  0.00    +0.000 C 
ATOM     27  O   UNL     1       2.526   8.963  17.132  0.00  0.00    +0.000 OA
ATOM     28  H   UNL     1       0.739   8.672  19.757  0.00  0.00    +0.000 HD
BRANCH  26  29
ATOM     29  C   UNL     1       2.571   7.079  18.538  0.00  0.00    +0.000 A 
ATOM     30  C   UNL     1       2.205   6.630  19.818  0.00  0.00    +0.000 A 
ATOM     31  C   UNL     1       2.586   5.375  20.287  0.00  0.00    +0.000 A 
ATOM     32  C   UNL     1       3.356   4.546  19.482  0.00  0.00    +0.000 A 
ATOM     33  C   UNL     1       3.765   4.970  18.207  0.00  0.00    +0.000 A 
ATOM     34  C   UNL     1       3.365   6.243  17.735  0.00  0.00    +0.000 A 
BRANCH  33  35
ATOM     35  C   UNL     1       4.630   4.066  17.357  0.00  0.00    +0.000 C 
ATOM     36  F   UNL     1       4.630   4.394  16.035  0.00  0.00    +0.000 F 
ATOM     37  F   UNL     1       5.935   4.078  17.744  0.00  0.00    +0.000 F 
ATOM     38  F   UNL     1       4.232   2.765  17.417  0.00  0.00    +0.000 F 
ENDBRANCH  33  35
ENDBRANCH  26  29
ENDBRANCH  24  25
ENDBRANCH   2  24
TORSDOF 8
ENDMDL
MODEL 7
REMARK VINA RESULT:      -8.4      2.055      2.817
REMARK  Name = 
REMARK  8 active torsions:
REMARK  status: ('A' for Active; 'I' for Inactive)
REMARK    1  A    between atoms: C_2  and  C_3
REMARK    2  A    between atoms: C_3  and  N_4
REMARK    3  A    between atoms: C_5  and  C_7
REMARK    4  A    between atoms: C_11  and  C_12
REMARK    5  A    between atoms: N_17  and  C_18
REMARK    6  A    between atoms: N_20  and  C_21
REMARK    7  A    between atoms: C_25  and  C_26
REMARK    8  A    between atoms: C_34  and  O_35
REMARK                            x       y       z     vdW  Elec       q    Type
REMARK                         _______ _______ _______ _____ _____    ______ ____
ROOT
ATOM      1  O   UNL     1      -0.764   8.213  21.777  0.00  0.00    +0.000 OA
ATOM      2  C   UNL     1      -0.018   8.869  21.043  0.00  0.00    +0.000 C 
ATOM      3  N   UNL     1      -0.582   9.783  20.204  0.00  0.00    +0.000 N 
ATOM      4  H   UNL     1      -1.595   9.744  20.232  0.00  0.00    +0.000 HD
ENDROOT
BRANCH   3   5
ATOM      5  C   UNL     1       0.034  10.874  19.432  0.00  0.00    +0.000 C 
ATOM      6  C   UNL     1      -0.937  12.001  19.057  0.00  0.00    +0.000 C 
ATOM      7  N   UNL     1      -1.040  12.927  20.214  0.00  0.00    +0.000 NA
ATOM      8  C   UNL     1       0.191  12.700  21.014  0.00  0.00    +0.000 C 
ATOM      9  C   UNL     1       1.046  11.656  20.278  0.00  0.00    +0.000 C 
BRANCH   7  10
ATOM     10  C   UNL     1      -2.287  12.746  21.001  0.00  0.00    +0.000 C 
ATOM     11  C   UNL     1      -2.024  12.435  22.500  0.00  0.00    +0.000 C 
ATOM     12  C   UNL     1      -3.336  12.236  23.263  0.00  0.00    +0.000 C 
ATOM     13  C   UNL     1      -4.235  13.466  23.143  0.00  0.00    +0.000 C 
ATOM     14  C   UNL     1      -4.548  13.800  21.667  0.00  0.00    +0.000 C 
ATOM     15  C   UNL     1      -3.186  14.016  20.956  0.00  0.00    +0.000 C 
BRANCH  14  16
ATOM     16  C   UNL     1      -5.479  12.794  20.977  0.00  0.00    +0.000 A 
ATOM     17  C   UNL     1      -6.643  12.328  21.614  0.00  0.00    +0.000 A 
ATOM     18  C   UNL     1      -7.455  11.351  21.030  0.00  0.00    +0.000 A 
ATOM     19  C   UNL     1      -7.142  10.843  19.776  0.00  0.00    +0.000 A 
ATOM     20  C   UNL     1      -6.041  11.341  19.093  0.00  0.00    +0.000 A 
ATOM     21  C   UNL     1      -5.230  12.317  19.678  0.00  0.00    +0.000 A 
ENDBRANCH  14  16
ENDBRANCH   7  10
BRANCH   9  22
ATOM     22  O   UNL     1       2.032  12.285  19.455  0.00  0.00    +0.000 OA
ATOM     23  H   UNL     1       2.905  12.111  19.851  0.00  0.00    +0.000 HD
ENDBRANCH   9  22
ENDBRANCH   3   5
BRANCH   2  24
ATOM     24  C   UNL     1       1.493   8.686  21.116  0.00  0.00    +0.000 C 
BRANCH  24  25
ATOM     25  N   UNL     1       1.966   7.461  20.484  0.00  0.00    +0.000 N 
ATOM     26  C   UNL     1       2.330   7.479  19.160  0.00  0.00    +0.000 C 
ATOM     27  O   UNL     1       2.339   8.533  18.522  0.00  0.00    +0.000 OA
ATOM     28  H   UNL     1       1.951   6.614  21.039  0.00  0.00    +0.000 HD
BRANCH  26  29
ATOM     29  C   UNL     1       2.716   6.212  18.464  0.00  0.00    +0.000 A 
ATOM     30  C   UNL     1       1.743   5.200  18.440  0.00  0.00    +0.000 A 
ATOM     31  C   UNL     1       1.973   3.983  17.802  0.00  0.00    +0.000 A 
ATOM     32  C   UNL     1       3.195   3.751  17.184  0.00  0.00    +0.000 A 
ATOM     33  C   UNL     1       4.203   4.729  17.211  0.00  0.00    +0.000 A 
ATOM     34  C   UNL     1       3.957   5.966  17.852  0.00  0.00    +0.000 A 
BRANCH  33  35
ATOM     35  C   UNL     1       5.539   4.447  16.560  0.00  0.00    +0.000 C 
ATOM     36  F   UNL     1       6.572   4.362  17.445  0.00  0.00    +0.000 F 
ATOM     37  F   UNL     1       5.544   3.275  15.868  0.00  0.00    +0.000 F 
ATOM     38  F   UNL     1       5.893   5.412  15.667  0.00  0.00    +0.000 F 
ENDBRANCH  33  35
ENDBRANCH  26  29
ENDBRANCH  24  25
ENDBRANCH   2  24
TORSDOF 8
ENDMDL
MODEL 8
REMARK VINA RESULT:      -8.2      2.006      2.520
REMARK  Name = 
REMARK  8 active torsions:
REMARK  status: ('A' for Active; 'I' for Inactive)
REMARK    1  A    between atoms: C_2  and  C_3
REMARK    2  A    between atoms: C_3  and  N_4
REMARK    3  A    between atoms: C_5  and  C_7
REMARK    4  A    between atoms: C_11  and  C_12
REMARK    5  A    between atoms: N_17  and  C_18
REMARK    6  A    between atoms: N_20  and  C_21
REMARK    7  A    between atoms: C_25  and  C_26
REMARK    8  A    between atoms: C_34  and  O_35
REMARK                            x       y       z     vdW  Elec       q    Type
REMARK                         _______ _______ _______ _____ _____    ______ ____
ROOT
ATOM      1  O   UNL     1      -2.274  10.069  18.300  0.00  0.00    +0.000 OA
ATOM      2  C   UNL     1      -1.236  10.462  18.840  0.00  0.00    +0.000 C 
ATOM      3  N   UNL     1      -1.311  10.923  20.120  0.00  0.00    +0.000 N 
ATOM      4  H   UNL     1      -2.269  10.964  20.449  0.00  0.00    +0.000 HD
ENDROOT
BRANCH   3   5
ATOM      5  C   UNL     1      -0.245  11.195  21.098  0.00  0.00    +0.000 C 
ATOM      6  C   UNL     1      -0.546  12.368  22.041  0.00  0.00    +0.000 C 
ATOM      7  N   UNL     1      -1.389  11.861  23.155  0.00  0.00    +0.000 NA
ATOM      8  C   UNL     1      -1.152  10.395  23.196  0.00  0.00    +0.000 C 
ATOM      9  C   UNL     1      -0.114  10.055  22.115  0.00  0.00    +0.000 C 
BRANCH   7  10
ATOM     10  C   UNL     1      -2.825  12.215  23.012  0.00  0.00    +0.000 C 
ATOM     11  C   UNL     1      -3.553  12.374  24.374  0.00  0.00    +0.000 C 
ATOM     12  C   UNL     1      -5.033  12.716  24.175  0.00  0.00    +0.000 C 
ATOM     13  C   UNL     1      -5.196  13.993  23.352  0.00  0.00    +0.000 C 
ATOM     14  C   UNL     1      -4.509  13.873  21.973  0.00  0.00    +0.000 C 
ATOM     15  C   UNL     1      -3.015  13.553  22.241  0.00  0.00    +0.000 C 
BRANCH  14  16
ATOM     16  C   UNL     1      -5.207  12.910  21.003  0.00  0.00    +0.000 A 
ATOM     17  C   UNL     1      -6.482  12.391  21.289  0.00  0.00    +0.000 A 
ATOM     18  C   UNL     1      -7.093  11.450  20.453  0.00  0.00    +0.000 A 
ATOM     19  C   UNL     1      -6.457  11.033  19.291  0.00  0.00    +0.000 A 
ATOM     20  C   UNL     1      -5.232  11.588  18.946  0.00  0.00    +0.000 A 
ATOM     21  C   UNL     1      -4.622  12.527  19.783  0.00  0.00    +0.000 A 
ENDBRANCH  14  16
ENDBRANCH   7  10
BRANCH   9  22
ATOM     22  O   UNL     1       1.204  10.002  22.665  0.00  0.00    +0.000 OA
ATOM     23  H   UNL     1       1.684  10.796  22.367  0.00  0.00    +0.000 HD
ENDBRANCH   9  22
ENDBRANCH   3   5
BRANCH   2  24
ATOM     24  C   UNL     1       0.096  10.386  18.102  0.00  0.00    +0.000 C 
BRANCH  24  25
ATOM     25  N   UNL     1       0.819   9.140  18.326  0.00  0.00    +0.000 N 
ATOM     26  C   UNL     1       2.132   9.040  17.937  0.00  0.00    +0.000 C 
ATOM     27  O   UNL     1       2.729  10.014  17.476  0.00  0.00    +0.000 OA
ATOM     28  H   UNL     1       0.299   8.361  18.712  0.00  0.00    +0.000 HD
BRANCH  26  29
ATOM     29  C   UNL     1       2.861   7.739  18.058  0.00  0.00    +0.000 A 
ATOM     30  C   UNL     1       2.430   6.883  19.084  0.00  0.00    +0.000 A 
ATOM     31  C   UNL     1       3.014   5.634  19.285  0.00  0.00    +0.000 A 
ATOM     32  C   UNL     1       4.056   5.224  18.465  0.00  0.00    +0.000 A 
ATOM     33  C   UNL     1       4.534   6.064  17.445  0.00  0.00    +0.000 A 
ATOM     34  C   UNL     1       3.928   7.327  17.242  0.00  0.00    +0.000 A 
BRANCH  33  35
ATOM     35  C   UNL     1       5.691   5.612  16.582  0.00  0.00    +0.000 C 
ATOM     36  F   UNL     1       6.769   6.444  16.634  0.00  0.00    +0.000 F 
ATOM     37  F   UNL     1       6.153   4.381  16.933  0.00  0.00    +0.000 F 
ATOM     38  F   UNL     1       5.352   5.527  15.266  0.00  0.00    +0.000 F 
ENDBRANCH  33  35
ENDBRANCH  26  29
ENDBRANCH  24  25
ENDBRANCH   2  24
TORSDOF 8
ENDMDL
MODEL 9
REMARK VINA RESULT:      -8.2      1.916      3.331
REMARK  Name = 
REMARK  8 active torsions:
REMARK  status: ('A' for Active; 'I' for Inactive)
REMARK    1  A    between atoms: C_2  and  C_3
REMARK    2  A    between atoms: C_3  and  N_4
REMARK    3  A    between atoms: C_5  and  C_7
REMARK    4  A    between atoms: C_11  and  C_12
REMARK    5  A    between atoms: N_17  and  C_18
REMARK    6  A    between atoms: N_20  and  C_21
REMARK    7  A    between atoms: C_25  and  C_26
REMARK    8  A    between atoms: C_34  and  O_35
REMARK                            x       y       z     vdW  Elec       q    Type
REMARK                         _______ _______ _______ _____ _____    ______ ____
ROOT
ATOM      1  O   UNL     1       0.395   9.584  22.976  0.00  0.00    +0.000 OA
ATOM      2  C   UNL     1       0.444   9.656  21.745  0.00  0.00    +0.000 C 
ATOM      3  N   UNL     1      -0.564  10.305  21.097  0.00  0.00    +0.000 N 
ATOM      4  H   UNL     1      -1.301  10.583  21.735  0.00  0.00    +0.000 HD
ENDROOT
BRANCH   3   5
ATOM      5  C   UNL     1      -0.652  10.782  19.708  0.00  0.00    +0.000 C 
ATOM      6  C   UNL     1      -2.019  11.367  19.332  0.00  0.00    +0.000 C 
ATOM      7  N   UNL     1      -2.057  12.782  19.782  0.00  0.00    +0.000 NA
ATOM      8  C   UNL     1      -0.635  13.195  19.911  0.00  0.00    +0.000 C 
ATOM      9  C   UNL     1       0.241  12.007  19.480  0.00  0.00    +0.000 C 
BRANCH   7  10
ATOM     10  C   UNL     1      -2.835  12.981  21.032  0.00  0.00    +0.000 C 
ATOM     11  C   UNL     1      -1.946  13.034  22.304  0.00  0.00    +0.000 C 
ATOM     12  C   UNL     1      -2.794  13.218  23.566  0.00  0.00    +0.000 C 
ATOM     13  C   UNL     1      -3.644  14.484  23.478  0.00  0.00    +0.000 C 
ATOM     14  C   UNL     1      -4.568  14.466  22.239  0.00  0.00    +0.000 C 
ATOM     15  C   UNL     1      -3.652  14.304  20.998  0.00  0.00    +0.000 C 
BRANCH  14  16
ATOM     16  C   UNL     1      -5.716  13.451  22.326  0.00  0.00    +0.000 A 
ATOM     17  C   UNL     1      -6.160  12.759  21.185  0.00  0.00    +0.000 A 
ATOM     18  C   UNL     1      -7.257  11.894  21.235  0.00  0.00    +0.000 A 
ATOM     19  C   UNL     1      -7.915  11.671  22.437  0.00  0.00    +0.000 A 
ATOM     20  C   UNL     1      -7.449  12.282  23.594  0.00  0.00    +0.000 A 
ATOM     21  C   UNL     1      -6.353  13.148  23.542  0.00  0.00    +0.000 A 
ENDBRANCH  14  16
ENDBRANCH   7  10
BRANCH   9  22
ATOM     22  O   UNL     1       0.622  12.121  18.106  0.00  0.00    +0.000 OA
ATOM     23  H   UNL     1      -0.047  12.667  17.655  0.00  0.00    +0.000 HD
ENDBRANCH   9  22
ENDBRANCH   3   5
BRANCH   2  24
ATOM     24  C   UNL     1       1.629   9.073  20.984  0.00  0.00    +0.000 C 
BRANCH  24  25
ATOM     25  N   UNL     1       1.678   7.616  21.002  0.00  0.00    +0.000 N 
ATOM     26  C   UNL     1       2.125   6.940  19.894  0.00  0.00    +0.000 C 
ATOM     27  O   UNL     1       2.561   7.549  18.916  0.00  0.00    +0.000 OA
ATOM     28  H   UNL     1       1.316   7.147  21.824  0.00  0.00    +0.000 HD
BRANCH  26  29
ATOM     29  C   UNL     1       2.082   5.445  19.850  0.00  0.00    +0.000 A 
ATOM     30  C   UNL     1       1.355   4.818  20.875  0.00  0.00    +0.000 A 
ATOM     31  C   UNL     1       1.222   3.432  20.932  0.00  0.00    +0.000 A 
ATOM     32  C   UNL     1       1.830   2.644  19.964  0.00  0.00    +0.000 A 
ATOM     33  C   UNL     1       2.589   3.233  18.939  0.00  0.00    +0.000 A 
ATOM     34  C   UNL     1       2.710   4.642  18.884  0.00  0.00    +0.000 A 
BRANCH  33  35
ATOM     35  C   UNL     1       3.271   2.356  17.912  0.00  0.00    +0.000 C 
ATOM     36  F   UNL     1       3.940   1.299  18.453  0.00  0.00    +0.000 F 
ATOM     37  F   UNL     1       2.394   1.823  17.018  0.00  0.00    +0.000 F 
ATOM     38  F   UNL     1       4.189   3.040  17.176  0.00  0.00    +0.000 F 
ENDBRANCH  33  35
ENDBRANCH  26  29
ENDBRANCH  24  25
ENDBRANCH   2  24
TORSDOF 8
ENDMDL
