MODEL 1
REMARK VINA RESULT:      -7.6      0.000      0.000
REMARK  Name = 
REMARK  8 active torsions:
REMARK  status: ('A' for Active; 'I' for Inactive)
REMARK    1  A    between atoms: C_1  and  C_2
REMARK    2  A    between atoms: C_2  and  N_3
REMARK    3  A    between atoms: C_8  and  C_9
REMARK    4  A    between atoms: N_11  and  C_12
REMARK    5  A    between atoms: C_13  and  C_14
REMARK    6  A    between atoms: N_16  and  C_17
REMARK    7  A    between atoms: C_17  and  C_18
REMARK    8  A    between atoms: C_29  and  C_30
REMARK                            x       y       z     vdW  Elec       q    Type
REMARK                         _______ _______ _______ _____ _____    ______ ____
ROOT
ATOM      1  C   UNL     1       1.695   8.099  20.056  0.00  0.00    +0.000 A 
ATOM      2  C   UNL     1       0.746   8.622  20.961  0.00  0.00    +0.000 A 
ATOM      3  C   UNL     1       0.401   8.159  22.327  0.00  0.00    +0.000 C 
ATOM      4  N   UNL     1       0.190   9.746  20.489  0.00  0.00    +0.000 NA
ATOM      5  N   UNL     1       0.741   9.916  19.269  0.00  0.00    +0.000 N 
ATOM      6  C   UNL     1       1.705   8.970  18.982  0.00  0.00    +0.000 A 
ATOM      7  C   UNL     1       2.443   8.852  17.700  0.00  0.00    +0.000 C 
ENDROOT
BRANCH   1  10
ATOM      8  C   UNL     1       2.263   5.840  19.381  0.00  0.00    +0.000 C 
ATOM      9  O   UNL     1       1.363   5.785  18.543  0.00  0.00    +0.000 OA
ATOM     10  N   UNL     1       2.490   6.969  20.153  0.00  0.00    +0.000 N 
ATOM     11  H   UNL     1       3.432   7.102  20.493  0.00  0.00    +0.000 HD
BRANCH   8  17
ATOM     12  N   UNL     1       4.476   4.676  19.075  0.00  0.00    +0.000 N 
ATOM     13  N   UNL     1       5.107   3.507  19.325  0.00  0.00    +0.000 NA
ATOM     14  C   UNL     1       4.234   2.818  20.054  0.00  0.00    +0.000 A 
ATOM     15  C   UNL     1       3.062   3.549  20.281  0.00  0.00    +0.000 A 
ATOM     16 BR   UNL     1       1.648   2.870  21.310  0.00  0.00    +0.000 Br
ATOM     17  C   UNL     1       3.189   4.739  19.600  0.00  0.00    +0.000 A 
BRANCH  12  19
ATOM     18  C   UNL     1       4.912   5.562  16.819  0.00  0.00    +0.000 C 
ATOM     19  C   UNL     1       5.209   5.671  18.303  0.00  0.00    +0.000 C 
ENDBRANCH  12  19
ENDBRANCH   8  17
ENDBRANCH   1  10
BRANCH   5  20
ATOM     20  C   UNL     1       0.228  11.016  18.444  0.00  0.00    +0.000 C 
BRANCH  20  21
ATOM     21  C   UNL     1      -1.254  10.880  18.226  0.00  0.00    +0.000 A 
ATOM     22  C   UNL     1      -1.749  10.022  17.242  0.00  0.00    +0.000 A 
ATOM     23  F   UNL     1      -0.920   9.165  16.633  0.00  0.00    +0.000 F 
ATOM     24  C   UNL     1      -3.089  10.052  16.865  0.00  0.00    +0.000 A 
ATOM     25  F   UNL     1      -3.512   9.275  15.859  0.00  0.00    +0.000 F 
ATOM     26  C   UNL     1      -3.968  10.912  17.502  0.00  0.00    +0.000 A 
ATOM     27  F   UNL     1      -5.243  10.988  17.094  0.00  0.00    +0.000 F 
ATOM     28  C   UNL     1      -3.520  11.703  18.549  0.00  0.00    +0.000 A 
ATOM     29  F   UNL     1      -4.378  12.511  19.190  0.00  0.00    +0.000 F 
ATOM     30  C   UNL     1      -2.174  11.682  18.912  0.00  0.00    +0.000 A 
ATOM     31  F   UNL     1      -1.762  12.451  19.929  0.00  0.00    +0.000 F 
ENDBRANCH  20  21
ENDBRANCH   5  20
TORSDOF 5
ENDMDL
MODEL 2
REMARK VINA RESULT:      -7.3      0.468      1.971
REMARK  Name = 
REMARK  8 active torsions:
REMARK  status: ('A' for Active; 'I' for Inactive)
REMARK    1  A    between atoms: C_1  and  C_2
REMARK    2  A    between atoms: C_2  and  N_3
REMARK    3  A    between atoms: C_8  and  C_9
REMARK    4  A    between atoms: N_11  and  C_12
REMARK    5  A    between atoms: C_13  and  C_14
REMARK    6  A    between atoms: N_16  and  C_17
REMARK    7  A    between atoms: C_17  and  C_18
REMARK    8  A    between atoms: C_29  and  C_30
REMARK                            x       y       z     vdW  Elec       q    Type
REMARK                         _______ _______ _______ _____ _____    ______ ____
ROOT
ATOM      1  C   UNL     1       1.730   8.097  20.056  0.00  0.00    +0.000 A 
ATOM      2  C   UNL     1       0.742   8.631  20.912  0.00  0.00    +0.000 A 
ATOM      3  C   UNL     1       0.291   8.145  22.238  0.00  0.00    +0.000 C 
ATOM      4  N   UNL     1       0.259   9.787  20.436  0.00  0.00    +0.000 NA
ATOM      5  N   UNL     1       0.895   9.967  19.260  0.00  0.00    +0.000 N 
ATOM      6  C   UNL     1       1.842   8.995  19.010  0.00  0.00    +0.000 A 
ATOM      7  C   UNL     1       2.659   8.882  17.777  0.00  0.00    +0.000 C 
ENDROOT
BRANCH   1  10
ATOM      8  C   UNL     1       2.292   5.853  19.325  0.00  0.00    +0.000 C 
ATOM      9  O   UNL     1       1.479   5.870  18.402  0.00  0.00    +0.000 OA
ATOM     10  N   UNL     1       2.477   6.936  20.173  0.00  0.00    +0.000 N 
ATOM     11  H   UNL     1       3.384   7.019  20.609  0.00  0.00    +0.000 HD
BRANCH   8  17
ATOM     12  N   UNL     1       4.463   4.593  19.110  0.00  0.00    +0.000 N 
ATOM     13  N   UNL     1       5.029   3.395  19.379  0.00  0.00    +0.000 NA
ATOM     14  C   UNL     1       4.095   2.743  20.064  0.00  0.00    +0.000 A 
ATOM     15  C   UNL     1       2.948   3.524  20.244  0.00  0.00    +0.000 A 
ATOM     16 BR   UNL     1       1.460   2.904  21.205  0.00  0.00    +0.000 Br
ATOM     17  C   UNL     1       3.158   4.711  19.578  0.00  0.00    +0.000 A 
BRANCH  12  19
ATOM     18  C   UNL     1       5.087   5.426  16.878  0.00  0.00    +0.000 C 
ATOM     19  C   UNL     1       5.273   5.558  18.379  0.00  0.00    +0.000 C 
ENDBRANCH  12  19
ENDBRANCH   8  17
ENDBRANCH   1  10
BRANCH   5  20
ATOM     20  C   UNL     1       0.477  11.107  18.435  0.00  0.00    +0.000 C 
BRANCH  20  21
ATOM     21  C   UNL     1      -1.016  11.123  18.256  0.00  0.00    +0.000 A 
ATOM     22  C   UNL     1      -1.799  12.065  18.926  0.00  0.00    +0.000 A 
ATOM     23  F   UNL     1      -1.208  13.084  19.563  0.00  0.00    +0.000 F 
ATOM     24  C   UNL     1      -3.186  11.957  18.962  0.00  0.00    +0.000 A 
ATOM     25  F   UNL     1      -3.901  12.830  19.684  0.00  0.00    +0.000 F 
ATOM     26  C   UNL     1      -3.818  10.926  18.286  0.00  0.00    +0.000 A 
ATOM     27  F   UNL     1      -5.148  10.783  18.375  0.00  0.00    +0.000 F 
ATOM     28  C   UNL     1      -3.067  10.036  17.532  0.00  0.00    +0.000 A 
ATOM     29  F   UNL     1      -3.680   9.057  16.849  0.00  0.00    +0.000 F 
ATOM     30  C   UNL     1      -1.677  10.138  17.513  0.00  0.00    +0.000 A 
ATOM     31  F   UNL     1      -0.970   9.271  16.776  0.00  0.00    +0.000 F 
ENDBRANCH  20  21
ENDBRANCH   5  20
TORSDOF 5
ENDMDL
MODEL 3
REMARK VINA RESULT:      -7.3      1.460      1.973
REMARK  Name = 
REMARK  8 active torsions:
REMARK  status: ('A' for Active; 'I' for Inactive)
REMARK    1  A    between atoms: C_1  and  C_2
REMARK    2  A    between atoms: C_2  and  N_3
REMARK    3  A    between atoms: C_8  and  C_9
REMARK    4  A    between atoms: N_11  and  C_12
REMARK    5  A    between atoms: C_13  and  C_14
REMARK    6  A    between atoms: N_16  and  C_17
REMARK    7  A    between atoms: C_17  and  C_18
REMARK    8  A    between atoms: C_29  and  C_30
REMARK                            x       y       z     vdW  Elec       q    Type
REMARK                         _______ _______ _______ _____ _____    ______ ____
ROOT
ATOM      1  C   UNL     1       1.474   8.550  19.993  0.00  0.00    +0.000 A 
ATOM      2  C   UNL     1       0.444   8.827  20.919  0.00  0.00    +0.000 A 
ATOM      3  C   UNL     1       0.106   8.125  22.180  0.00  0.00    +0.000 C 
ATOM      4  N   UNL     1      -0.213   9.948  20.594  0.00  0.00    +0.000 NA
ATOM      5  N   UNL     1       0.357  10.360  19.443  0.00  0.00    +0.000 N 
ATOM      6  C   UNL     1       1.426   9.574  19.065  0.00  0.00    +0.000 A 
ATOM      7  C   UNL     1       2.216   9.730  17.818  0.00  0.00    +0.000 C 
ENDROOT
BRANCH   1  10
ATOM      8  C   UNL     1       2.330   6.515  18.989  0.00  0.00    +0.000 C 
ATOM      9  O   UNL     1       1.495   6.522  18.085  0.00  0.00    +0.000 OA
ATOM     10  N   UNL     1       2.383   7.505  19.959  0.00  0.00    +0.000 N 
ATOM     11  H   UNL     1       3.282   7.667  20.390  0.00  0.00    +0.000 HD
BRANCH   8  17
ATOM     12  N   UNL     1       3.276   4.371  19.912  0.00  0.00    +0.000 N 
ATOM     13  N   UNL     1       4.400   3.619  19.918  0.00  0.00    +0.000 NA
ATOM     14  C   UNL     1       5.207   4.236  19.059  0.00  0.00    +0.000 A 
ATOM     15  C   UNL     1       4.595   5.362  18.498  0.00  0.00    +0.000 A 
ATOM     16 BR   UNL     1       5.457   6.429  17.217  0.00  0.00    +0.000 Br
ATOM     17  C   UNL     1       3.358   5.490  19.090  0.00  0.00    +0.000 A 
BRANCH  12  19
ATOM     18  C   UNL     1       1.160   3.113  19.968  0.00  0.00    +0.000 C 
ATOM     19  C   UNL     1       2.176   3.921  20.754  0.00  0.00    +0.000 C 
ENDBRANCH  12  19
ENDBRANCH   8  17
ENDBRANCH   1  10
BRANCH   5  20
ATOM     20  C   UNL     1      -0.244  11.517  18.769  0.00  0.00    +0.000 C 
BRANCH  20  21
ATOM     21  C   UNL     1      -1.692  11.265  18.454  0.00  0.00    +0.000 A 
ATOM     22  C   UNL     1      -2.052  10.393  17.425  0.00  0.00    +0.000 A 
ATOM     23  F   UNL     1      -1.118   9.622  16.855  0.00  0.00    +0.000 F 
ATOM     24  C   UNL     1      -3.363  10.321  16.964  0.00  0.00    +0.000 A 
ATOM     25  F   UNL     1      -3.657   9.537  15.918  0.00  0.00    +0.000 F 
ATOM     26  C   UNL     1      -4.349  11.091  17.558  0.00  0.00    +0.000 A 
ATOM     27  F   UNL     1      -5.598  11.072  17.071  0.00  0.00    +0.000 F 
ATOM     28  C   UNL     1      -4.035  11.891  18.647  0.00  0.00    +0.000 A 
ATOM     29  F   UNL     1      -4.995  12.611  19.246  0.00  0.00    +0.000 F 
ATOM     30  C   UNL     1      -2.717  11.973  19.094  0.00  0.00    +0.000 A 
ATOM     31  F   UNL     1      -2.434  12.748  20.149  0.00  0.00    +0.000 F 
ENDBRANCH  20  21
ENDBRANCH   5  20
TORSDOF 5
ENDMDL
MODEL 4
REMARK VINA RESULT:      -7.3      4.605      8.450
REMARK  Name = 
REMARK  8 active torsions:
REMARK  status: ('A' for Active; 'I' for Inactive)
REMARK    1  A    between atoms: C_1  and  C_2
REMARK    2  A    between atoms: C_2  and  N_3
REMARK    3  A    between atoms: C_8  and  C_9
REMARK    4  A    between atoms: N_11  and  C_12
REMARK    5  A    between atoms: C_13  and  C_14
REMARK    6  A    between atoms: N_16  and  C_17
REMARK    7  A    between atoms: C_17  and  C_18
REMARK    8  A    between atoms: C_29  and  C_30
REMARK                            x       y       z     vdW  Elec       q    Type
REMARK                         _______ _______ _______ _____ _____    ______ ____
ROOT
ATOM      1  C   UNL     1       0.761   9.319  20.032  0.00  0.00    +0.000 A 
ATOM      2  C   UNL     1       1.601   8.894  18.979  0.00  0.00    +0.000 A 
ATOM      3  C   UNL     1       1.926   9.582  17.706  0.00  0.00    +0.000 C 
ATOM      4  N   UNL     1       2.228   7.751  19.287  0.00  0.00    +0.000 NA
ATOM      5  N   UNL     1       1.757   7.419  20.507  0.00  0.00    +0.000 N 
ATOM      6  C   UNL     1       0.904   8.370  21.028  0.00  0.00    +0.000 A 
ATOM      7  C   UNL     1       0.176   8.264  22.317  0.00  0.00    +0.000 C 
ENDROOT
BRANCH   1  10
ATOM      8  C   UNL     1       0.373  11.607  20.737  0.00  0.00    +0.000 C 
ATOM      9  O   UNL     1       1.505  11.734  21.202  0.00  0.00    +0.000 OA
ATOM     10  N   UNL     1      -0.053  10.436  20.127  0.00  0.00    +0.000 N 
ATOM     11  H   UNL     1      -0.786  10.526  19.439  0.00  0.00    +0.000 HD
BRANCH   8  17
ATOM     12  N   UNL     1      -0.622  13.741  19.841  0.00  0.00    +0.000 N 
ATOM     13  N   UNL     1      -1.549  14.683  20.123  0.00  0.00    +0.000 NA
ATOM     14  C   UNL     1      -2.163  14.218  21.208  0.00  0.00    +0.000 A 
ATOM     15  C   UNL     1      -1.641  12.982  21.604  0.00  0.00    +0.000 A 
ATOM     16 BR   UNL     1      -2.319  12.041  23.080  0.00  0.00    +0.000 Br
ATOM     17  C   UNL     1      -0.599  12.689  20.752  0.00  0.00    +0.000 A 
BRANCH  12  19
ATOM     18  C   UNL     1       1.387  14.866  18.967  0.00  0.00    +0.000 C 
ATOM     19  C   UNL     1       0.207  13.960  18.664  0.00  0.00    +0.000 C 
ENDBRANCH  12  19
ENDBRANCH   8  17
ENDBRANCH   1  10
BRANCH   5  20
ATOM     20  C   UNL     1       2.176   6.126  21.062  0.00  0.00    +0.000 C 
BRANCH  20  21
ATOM     21  C   UNL     1       2.296   5.088  19.981  0.00  0.00    +0.000 A 
ATOM     22  C   UNL     1       1.230   4.230  19.703  0.00  0.00    +0.000 A 
ATOM     23  F   UNL     1       0.031   4.465  20.251  0.00  0.00    +0.000 F 
ATOM     24  C   UNL     1       1.392   3.121  18.878  0.00  0.00    +0.000 A 
ATOM     25  F   UNL     1       0.371   2.272  18.700  0.00  0.00    +0.000 F 
ATOM     26  C   UNL     1       2.617   2.876  18.280  0.00  0.00    +0.000 A 
ATOM     27  F   UNL     1       2.792   1.772  17.540  0.00  0.00    +0.000 F 
ATOM     28  C   UNL     1       3.663   3.768  18.463  0.00  0.00    +0.000 A 
ATOM     29  F   UNL     1       4.840   3.552  17.857  0.00  0.00    +0.000 F 
ATOM     30  C   UNL     1       3.501   4.869  19.303  0.00  0.00    +0.000 A 
ATOM     31  F   UNL     1       4.522   5.722  19.464  0.00  0.00    +0.000 F 
ENDBRANCH  20  21
ENDBRANCH   5  20
TORSDOF 5
ENDMDL
MODEL 5
REMARK VINA RESULT:      -7.2      4.808      8.612
REMARK  Name = 
REMARK  8 active torsions:
REMARK  status: ('A' for Active; 'I' for Inactive)
REMARK    1  A    between atoms: C_1  and  C_2
REMARK    2  A    between atoms: C_2  and  N_3
REMARK    3  A    between atoms: C_8  and  C_9
REMARK    4  A    between atoms: N_11  and  C_12
REMARK    5  A    between atoms: C_13  and  C_14
REMARK    6  A    between atoms: N_16  and  C_17
REMARK    7  A    between atoms: C_17  and  C_18
REMARK    8  A    between atoms: C_29  and  C_30
REMARK                            x       y       z     vdW  Elec       q    Type
REMARK                         _______ _______ _______ _____ _____    ______ ____
ROOT
ATOM      1  C   UNL     1       0.703   9.470  20.021  0.00  0.00    +0.000 A 
ATOM      2  C   UNL     1       1.509   9.133  18.913  0.00  0.00    +0.000 A 
ATOM      3  C   UNL     1       1.756   9.899  17.667  0.00  0.00    +0.000 C 
ATOM      4  N   UNL     1       2.187   7.998  19.131  0.00  0.00    +0.000 NA
ATOM      5  N   UNL     1       1.780   7.584  20.349  0.00  0.00    +0.000 N 
ATOM      6  C   UNL     1       0.919   8.475  20.957  0.00  0.00    +0.000 A 
ATOM      7  C   UNL     1       0.253   8.275  22.267  0.00  0.00    +0.000 C 
ENDROOT
BRANCH   1  10
ATOM      8  C   UNL     1       0.284  11.721  20.822  0.00  0.00    +0.000 C 
ATOM      9  O   UNL     1       1.444  11.881  21.203  0.00  0.00    +0.000 OA
ATOM     10  N   UNL     1      -0.143  10.551  20.211  0.00  0.00    +0.000 N 
ATOM     11  H   UNL     1      -0.930  10.631  19.584  0.00  0.00    +0.000 HD
BRANCH   8  17
ATOM     12  N   UNL     1      -1.736  12.773  21.899  0.00  0.00    +0.000 N 
ATOM     13  N   UNL     1      -2.617  13.786  21.744  0.00  0.00    +0.000 NA
ATOM     14  C   UNL     1      -2.150  14.465  20.701  0.00  0.00    +0.000 A 
ATOM     15  C   UNL     1      -0.971  13.899  20.204  0.00  0.00    +0.000 A 
ATOM     16 BR   UNL     1      -0.039  14.645  18.756  0.00  0.00    +0.000 Br
ATOM     17  C   UNL     1      -0.724  12.764  20.944  0.00  0.00    +0.000 A 
BRANCH  12  19
ATOM     18  C   UNL     1      -3.277  12.155  23.717  0.00  0.00    +0.000 C 
ATOM     19  C   UNL     1      -1.971  11.854  23.004  0.00  0.00    +0.000 C 
ENDBRANCH  12  19
ENDBRANCH   8  17
ENDBRANCH   1  10
BRANCH   5  20
ATOM     20  C   UNL     1       2.266   6.280  20.815  0.00  0.00    +0.000 C 
BRANCH  20  21
ATOM     21  C   UNL     1       2.243   5.267  19.703  0.00  0.00    +0.000 A 
ATOM     22  C   UNL     1       1.208   4.333  19.618  0.00  0.00    +0.000 A 
ATOM     23  F   UNL     1       0.129   4.468  20.399  0.00  0.00    +0.000 F 
ATOM     24  C   UNL     1       1.283   3.250  18.747  0.00  0.00    +0.000 A 
ATOM     25  F   UNL     1       0.312   2.327  18.752  0.00  0.00    +0.000 F 
ATOM     26  C   UNL     1       2.378   3.108  17.911  0.00  0.00    +0.000 A 
ATOM     27  F   UNL     1       2.481   2.030  17.121  0.00  0.00    +0.000 F 
ATOM     28  C   UNL     1       3.371   4.076  17.907  0.00  0.00    +0.000 A 
ATOM     29  F   UNL     1       4.416   3.959  17.074  0.00  0.00    +0.000 F 
ATOM     30  C   UNL     1       3.301   5.150  18.793  0.00  0.00    +0.000 A 
ATOM     31  F   UNL     1       4.268   6.077  18.772  0.00  0.00    +0.000 F 
ENDBRANCH  20  21
ENDBRANCH   5  20
TORSDOF 5
ENDMDL
MODEL 6
REMARK VINA RESULT:      -7.0      1.545      2.811
REMARK  Name = 
REMARK  8 active torsions:
REMARK  status: ('A' for Active; 'I' for Inactive)
REMARK    1  A    between atoms: C_1  and  C_2
REMARK    2  A    between atoms: C_2  and  N_3
REMARK    3  A    between atoms: C_8  and  C_9
REMARK    4  A    between atoms: N_11  and  C_12
REMARK    5  A    between atoms: C_13  and  C_14
REMARK    6  A    between atoms: N_16  and  C_17
REMARK    7  A    between atoms: C_17  and  C_18
REMARK    8  A    between atoms: C_29  and  C_30
REMARK                            x       y       z     vdW  Elec       q    Type
REMARK                         _______ _______ _______ _____ _____    ______ ____
ROOT
ATOM      1  C   UNL     1       1.383   8.691  20.059  0.00  0.00    +0.000 A 
ATOM      2  C   UNL     1       0.311   8.939  20.944  0.00  0.00    +0.000 A 
ATOM      3  C   UNL     1      -0.105   8.179  22.147  0.00  0.00    +0.000 C 
ATOM      4  N   UNL     1      -0.310  10.089  20.646  0.00  0.00    +0.000 NA
ATOM      5  N   UNL     1       0.326  10.549  19.549  0.00  0.00    +0.000 N 
ATOM      6  C   UNL     1       1.400   9.762  19.185  0.00  0.00    +0.000 A 
ATOM      7  C   UNL     1       2.256   9.968  17.990  0.00  0.00    +0.000 C 
ENDROOT
BRANCH   1  10
ATOM      8  C   UNL     1       2.260   6.699  18.988  0.00  0.00    +0.000 C 
ATOM      9  O   UNL     1       1.479   6.774  18.041  0.00  0.00    +0.000 OA
ATOM     10  N   UNL     1       2.274   7.631  20.015  0.00  0.00    +0.000 N 
ATOM     11  H   UNL     1       3.150   7.751  20.505  0.00  0.00    +0.000 HD
BRANCH   8  17
ATOM     12  N   UNL     1       3.177   4.556  19.943  0.00  0.00    +0.000 N 
ATOM     13  N   UNL     1       4.281   3.775  19.936  0.00  0.00    +0.000 NA
ATOM     14  C   UNL     1       5.077   4.346  19.037  0.00  0.00    +0.000 A 
ATOM     15  C   UNL     1       4.479   5.473  18.463  0.00  0.00    +0.000 A 
ATOM     16 BR   UNL     1       5.329   6.481  17.128  0.00  0.00    +0.000 Br
ATOM     17  C   UNL     1       3.264   5.650  19.087  0.00  0.00    +0.000 A 
BRANCH  12  19
ATOM     18  C   UNL     1       1.058   3.313  20.108  0.00  0.00    +0.000 C 
ATOM     19  C   UNL     1       2.091   4.160  20.829  0.00  0.00    +0.000 C 
ENDBRANCH  12  19
ENDBRANCH   8  17
ENDBRANCH   1  10
BRANCH   5  20
ATOM     20  C   UNL     1      -0.219  11.751  18.908  0.00  0.00    +0.000 C 
BRANCH  20  21
ATOM     21  C   UNL     1      -1.650  11.539  18.493  0.00  0.00    +0.000 A 
ATOM     22  C   UNL     1      -2.679  12.249  19.114  0.00  0.00    +0.000 A 
ATOM     23  F   UNL     1      -2.381  13.268  19.931  0.00  0.00    +0.000 F 
ATOM     24  C   UNL     1      -4.014  11.907  18.917  0.00  0.00    +0.000 A 
ATOM     25  F   UNL     1      -4.971  12.554  19.594  0.00  0.00    +0.000 F 
ATOM     26  C   UNL     1      -4.344  10.874  18.055  0.00  0.00    +0.000 A 
ATOM     27  F   UNL     1      -5.624  10.501  17.916  0.00  0.00    +0.000 F 
ATOM     28  C   UNL     1      -3.344  10.219  17.352  0.00  0.00    +0.000 A 
ATOM     29  F   UNL     1      -3.663   9.241  16.491  0.00  0.00    +0.000 F 
ATOM     30  C   UNL     1      -2.007  10.553  17.566  0.00  0.00    +0.000 A 
ATOM     31  F   UNL     1      -1.056   9.912  16.874  0.00  0.00    +0.000 F 
ENDBRANCH  20  21
ENDBRANCH   5  20
TORSDOF 5
ENDMDL
MODEL 7
REMARK VINA RESULT:      -7.0      4.715      8.317
REMARK  Name = 
REMARK  8 active torsions:
REMARK  status: ('A' for Active; 'I' for Inactive)
REMARK    1  A    between atoms: C_1  and  C_2
REMARK    2  A    between atoms: C_2  and  N_3
REMARK    3  A    between atoms: C_8  and  C_9
REMARK    4  A    between atoms: N_11  and  C_12
REMARK    5  A    between atoms: C_13  and  C_14
REMARK    6  A    between atoms: N_16  and  C_17
REMARK    7  A    between atoms: C_17  and  C_18
REMARK    8  A    between atoms: C_29  and  C_30
REMARK                            x       y       z     vdW  Elec       q    Type
REMARK                         _______ _______ _______ _____ _____    ______ ____
ROOT
ATOM      1  C   UNL     1       0.747   9.399  20.029  0.00  0.00    +0.000 A 
ATOM      2  C   UNL     1       1.567   8.943  18.974  0.00  0.00    +0.000 A 
ATOM      3  C   UNL     1       1.871   9.594  17.677  0.00  0.00    +0.000 C 
ATOM      4  N   UNL     1       2.197   7.807  19.303  0.00  0.00    +0.000 NA
ATOM      5  N   UNL     1       1.746   7.509  20.539  0.00  0.00    +0.000 N 
ATOM      6  C   UNL     1       0.904   8.477  21.048  0.00  0.00    +0.000 A 
ATOM      7  C   UNL     1       0.199   8.409  22.352  0.00  0.00    +0.000 C 
ENDROOT
BRANCH   1  10
ATOM      8  C   UNL     1       0.341  11.675  20.762  0.00  0.00    +0.000 C 
ATOM      9  O   UNL     1       1.450  11.783  21.284  0.00  0.00    +0.000 OA
ATOM     10  N   UNL     1      -0.062  10.520  20.108  0.00  0.00    +0.000 N 
ATOM     11  H   UNL     1      -0.761  10.630  19.386  0.00  0.00    +0.000 HD
BRANCH   8  17
ATOM     12  N   UNL     1      -0.614  13.815  19.840  0.00  0.00    +0.000 N 
ATOM     13  N   UNL     1      -1.542  14.765  20.098  0.00  0.00    +0.000 NA
ATOM     14  C   UNL     1      -2.186  14.306  21.167  0.00  0.00    +0.000 A 
ATOM     15  C   UNL     1      -1.684  13.066  21.577  0.00  0.00    +0.000 A 
ATOM     16 BR   UNL     1      -2.405  12.132  23.036  0.00  0.00    +0.000 Br
ATOM     17  C   UNL     1      -0.623  12.765  20.752  0.00  0.00    +0.000 A 
BRANCH  12  19
ATOM     18  C   UNL     1       1.482  14.832  19.042  0.00  0.00    +0.000 C 
ATOM     19  C   UNL     1       0.246  14.028  18.683  0.00  0.00    +0.000 C 
ENDBRANCH  12  19
ENDBRANCH   8  17
ENDBRANCH   1  10
BRANCH   5  20
ATOM     20  C   UNL     1       2.172   6.232  21.123  0.00  0.00    +0.000 C 
BRANCH  20  21
ATOM     21  C   UNL     1       2.342   5.183  20.058  0.00  0.00    +0.000 A 
ATOM     22  C   UNL     1       3.507   5.134  19.292  0.00  0.00    +0.000 A 
ATOM     23  F   UNL     1       4.560   5.884  19.640  0.00  0.00    +0.000 F 
ATOM     24  C   UNL     1       3.593   4.332  18.158  0.00  0.00    +0.000 A 
ATOM     25  F   UNL     1       4.695   4.373  17.398  0.00  0.00    +0.000 F 
ATOM     26  C   UNL     1       2.525   3.527  17.796  0.00  0.00    +0.000 A 
ATOM     27  F   UNL     1       2.582   2.806  16.668  0.00  0.00    +0.000 F 
ATOM     28  C   UNL     1       1.393   3.485  18.598  0.00  0.00    +0.000 A 
ATOM     29  F   UNL     1       0.371   2.681  18.268  0.00  0.00    +0.000 F 
ATOM     30  C   UNL     1       1.305   4.303  19.723  0.00  0.00    +0.000 A 
ATOM     31  F   UNL     1       0.206   4.245  20.487  0.00  0.00    +0.000 F 
ENDBRANCH  20  21
ENDBRANCH   5  20
TORSDOF 5
ENDMDL
MODEL 8
REMARK VINA RESULT:      -7.0      4.858      8.551
REMARK  Name = 
REMARK  8 active torsions:
REMARK  status: ('A' for Active; 'I' for Inactive)
REMARK    1  A    between atoms: C_1  and  C_2
REMARK    2  A    between atoms: C_2  and  N_3
REMARK    3  A    between atoms: C_8  and  C_9
REMARK    4  A    between atoms: N_11  and  C_12
REMARK    5  A    between atoms: C_13  and  C_14
REMARK    6  A    between atoms: N_16  and  C_17
REMARK    7  A    between atoms: C_17  and  C_18
REMARK    8  A    between atoms: C_29  and  C_30
REMARK                            x       y       z     vdW  Elec       q    Type
REMARK                         _______ _______ _______ _____ _____    ______ ____
ROOT
ATOM      1  C   UNL     1       0.667   9.440  20.113  0.00  0.00    +0.000 A 
ATOM      2  C   UNL     1       1.473   9.036  19.026  0.00  0.00    +0.000 A 
ATOM      3  C   UNL     1       1.727   9.731  17.741  0.00  0.00    +0.000 C 
ATOM      4  N   UNL     1       2.141   7.909  19.308  0.00  0.00    +0.000 NA
ATOM      5  N   UNL     1       1.730   7.566  20.545  0.00  0.00    +0.000 N 
ATOM      6  C   UNL     1       0.875   8.496  21.102  0.00  0.00    +0.000 A 
ATOM      7  C   UNL     1       0.205   8.372  22.420  0.00  0.00    +0.000 C 
ENDROOT
BRANCH   1  10
ATOM      8  C   UNL     1       0.234  11.699  20.881  0.00  0.00    +0.000 C 
ATOM      9  O   UNL     1       1.367  11.839  21.343  0.00  0.00    +0.000 OA
ATOM     10  N   UNL     1      -0.170  10.536  20.242  0.00  0.00    +0.000 N 
ATOM     11  H   UNL     1      -0.909  10.629  19.561  0.00  0.00    +0.000 HD
BRANCH   8  17
ATOM     12  N   UNL     1      -1.812  12.812  21.841  0.00  0.00    +0.000 N 
ATOM     13  N   UNL     1      -2.670  13.834  21.621  0.00  0.00    +0.000 NA
ATOM     14  C   UNL     1      -2.148  14.476  20.579  0.00  0.00    +0.000 A 
ATOM     15  C   UNL     1      -0.958  13.877  20.149  0.00  0.00    +0.000 A 
ATOM     16 BR   UNL     1       0.046  14.568  18.722  0.00  0.00    +0.000 Br
ATOM     17  C   UNL     1      -0.761  12.760  20.931  0.00  0.00    +0.000 A 
BRANCH  12  19
ATOM     18  C   UNL     1      -3.381  12.340  23.679  0.00  0.00    +0.000 C 
ATOM     19  C   UNL     1      -2.109  11.929  22.961  0.00  0.00    +0.000 C 
ENDBRANCH  12  19
ENDBRANCH   8  17
ENDBRANCH   1  10
BRANCH   5  20
ATOM     20  C   UNL     1       2.205   6.285  21.083  0.00  0.00    +0.000 C 
BRANCH  20  21
ATOM     21  C   UNL     1       2.366   5.268  19.987  0.00  0.00    +0.000 A 
ATOM     22  C   UNL     1       3.510   5.266  19.186  0.00  0.00    +0.000 A 
ATOM     23  F   UNL     1       4.555   6.033  19.523  0.00  0.00    +0.000 F 
ATOM     24  C   UNL     1       3.581   4.496  18.029  0.00  0.00    +0.000 A 
ATOM     25  F   UNL     1       4.658   4.583  17.238  0.00  0.00    +0.000 F 
ATOM     26  C   UNL     1       2.521   3.675  17.677  0.00  0.00    +0.000 A 
ATOM     27  F   UNL     1       2.561   2.984  16.530  0.00  0.00    +0.000 F 
ATOM     28  C   UNL     1       1.415   3.586  18.510  0.00  0.00    +0.000 A 
ATOM     29  F   UNL     1       0.402   2.766  18.190  0.00  0.00    +0.000 F 
ATOM     30  C   UNL     1       1.341   4.372  19.659  0.00  0.00    +0.000 A 
ATOM     31  F   UNL     1       0.267   4.269  20.452  0.00  0.00    +0.000 F 
ENDBRANCH  20  21
ENDBRANCH   5  20
TORSDOF 5
ENDMDL
MODEL 9
REMARK VINA RESULT:      -7.0      4.488      8.500
REMARK  Name = 
REMARK  8 active torsions:
REMARK  status: ('A' for Active; 'I' for Inactive)
REMARK    1  A    between atoms: C_1  and  C_2
REMARK    2  A    between atoms: C_2  and  N_3
REMARK    3  A    between atoms: C_8  and  C_9
REMARK    4  A    between atoms: N_11  and  C_12
REMARK    5  A    between atoms: C_13  and  C_14
REMARK    6  A    between atoms: N_16  and  C_17
REMARK    7  A    between atoms: C_17  and  C_18
REMARK    8  A    between atoms: C_29  and  C_30
REMARK                            x       y       z     vdW  Elec       q    Type
REMARK                         _______ _______ _______ _____ _____    ______ ____
ROOT
ATOM      1  C   UNL     1       0.814   9.338  19.955  0.00  0.00    +0.000 A 
ATOM      2  C   UNL     1       1.060   8.284  20.862  0.00  0.00    +0.000 A 
ATOM      3  C   UNL     1       0.445   8.026  22.186  0.00  0.00    +0.000 C 
ATOM      4  N   UNL     1       1.905   7.383  20.343  0.00  0.00    +0.000 NA
ATOM      5  N   UNL     1       2.238   7.880  19.134  0.00  0.00    +0.000 N 
ATOM      6  C   UNL     1       1.556   9.041  18.827  0.00  0.00    +0.000 A 
ATOM      7  C   UNL     1       1.749   9.857  17.603  0.00  0.00    +0.000 C 
ENDROOT
BRANCH   1  10
ATOM      8  C   UNL     1       0.367  11.530  20.892  0.00  0.00    +0.000 C 
ATOM      9  O   UNL     1       1.432  11.566  21.508  0.00  0.00    +0.000 OA
ATOM     10  N   UNL     1       0.009  10.458  20.088  0.00  0.00    +0.000 N 
ATOM     11  H   UNL     1      -0.629  10.655  19.330  0.00  0.00    +0.000 HD
BRANCH   8  17
ATOM     12  N   UNL     1      -1.653  12.723  21.809  0.00  0.00    +0.000 N 
ATOM     13  N   UNL     1      -2.463  13.780  21.573  0.00  0.00    +0.000 NA
ATOM     14  C   UNL     1      -1.892  14.402  20.546  0.00  0.00    +0.000 A 
ATOM     15  C   UNL     1      -0.718  13.757  20.141  0.00  0.00    +0.000 A 
ATOM     16 BR   UNL     1       0.345  14.409  18.739  0.00  0.00    +0.000 Br
ATOM     17  C   UNL     1      -0.585  12.631  20.922  0.00  0.00    +0.000 A 
BRANCH  12  19
ATOM     18  C   UNL     1      -3.278  12.314  23.613  0.00  0.00    +0.000 C 
ATOM     19  C   UNL     1      -2.011  11.850  22.918  0.00  0.00    +0.000 C 
ENDBRANCH  12  19
ENDBRANCH   8  17
ENDBRANCH   1  10
BRANCH   5  20
ATOM     20  C   UNL     1       3.263   7.161  18.368  0.00  0.00    +0.000 C 
BRANCH  20  21
ATOM     21  C   UNL     1       3.123   5.674  18.544  0.00  0.00    +0.000 A 
ATOM     22  C   UNL     1       1.974   5.014  18.105  0.00  0.00    +0.000 A 
ATOM     23  F   UNL     1       1.088   5.665  17.341  0.00  0.00    +0.000 F 
ATOM     24  C   UNL     1       1.720   3.693  18.461  0.00  0.00    +0.000 A 
ATOM     25  F   UNL     1       0.568   3.117  18.093  0.00  0.00    +0.000 F 
ATOM     26  C   UNL     1       2.637   2.993  19.228  0.00  0.00    +0.000 A 
ATOM     27  F   UNL     1       2.362   1.743  19.626  0.00  0.00    +0.000 F 
ATOM     28  C   UNL     1       3.831   3.597  19.593  0.00  0.00    +0.000 A 
ATOM     29  F   UNL     1       4.736   2.910  20.306  0.00  0.00    +0.000 F 
ATOM     30  C   UNL     1       4.074   4.926  19.249  0.00  0.00    +0.000 A 
ATOM     31  F   UNL     1       5.235   5.490  19.608  0.00  0.00    +0.000 F 
ENDBRANCH  20  21
ENDBRANCH   5  20
TORSDOF 5
ENDMDL
