MODEL 1
REMARK VINA RESULT:      -6.1      0.000      0.000
REMARK  Name = 
REMARK  25 active torsions:
REMARK  status: ('A' for Active; 'I' for Inactive)
REMARK    1  A    between atoms: C_1  and  C_2
REMARK    2  A    between atoms: C_2  and  C_3
REMARK    3  A    between atoms: C_3  and  C_4
REMARK    4  A    between atoms: C_3  and  C_5
REMARK    5  A    between atoms: C_5  and  C_6
REMARK    6  A    between atoms: C_6  and  C_7
REMARK    7  A    between atoms: C_7  and  C_8
REMARK    8  A    between atoms: C_8  and  C_9
REMARK    9  A    between atoms: C_9  and  C_10
REMARK   10  A    between atoms: C_10  and  C_11
REMARK   11  A    between atoms: C_11  and  C_12
REMARK   12  A    between atoms: C_12  and  C_13
REMARK   13  A    between atoms: C_13  and  C_14
REMARK   14  A    between atoms: C_14  and  C_15
REMARK   15  A    between atoms: C_15  and  C_16
REMARK   16  A    between atoms: C_16  and  C_17
REMARK   17  A    between atoms: C_17  and  C_18
REMARK   18  A    between atoms: C_18  and  C_19
REMARK   19  A    between atoms: C_19  and  C_20
REMARK   20  A    between atoms: C_20  and  C_21
REMARK   21  A    between atoms: C_21  and  O_22
REMARK   22  A    between atoms: O_22  and  C_23
REMARK   23  A    between atoms: C_23  and  C_25
REMARK   24  A    between atoms: C_29  and  O_30
REMARK   25  A    between atoms: C_31  and  O_32
REMARK                            x       y       z     vdW  Elec       q    Type
REMARK                         _______ _______ _______ _____ _____    ______ ____
ROOT
ATOM      1  C   UNL     1       1.408   4.309  18.533  0.00  0.00    +0.000 C 
ENDROOT
BRANCH   1   2
ATOM      2  C   UNL     1       0.999   4.128  19.992  0.00  0.00    +0.000 C 
BRANCH   2   3
ATOM      3  C   UNL     1       1.544   2.832  20.590  0.00  0.00    +0.000 C 
BRANCH   3   4
ATOM      4  C   UNL     1       2.905   3.017  21.260  0.00  0.00    +0.000 C 
BRANCH   4   5
ATOM      5  C   UNL     1       3.971   2.131  20.627  0.00  0.00    +0.000 C 
BRANCH   5   6
ATOM      6  O   UNL     1       4.866   2.937  19.848  0.00  0.00    +0.000 OA
BRANCH   6   7
ATOM      7  C   UNL     1       4.597   3.004  18.521  0.00  0.00    +0.000 C 
ATOM      8  O   UNL     1       3.922   2.206  17.885  0.00  0.00    +0.000 OA
BRANCH   7   9
ATOM      9  C   UNL     1       5.289   4.146  17.867  0.00  0.00    +0.000 A 
ATOM     10  C   UNL     1       4.917   4.470  16.549  0.00  0.00    +0.000 A 
ATOM     11  C   UNL     1       5.504   5.557  15.878  0.00  0.00    +0.000 A 
ATOM     12  C   UNL     1       6.461   6.338  16.512  0.00  0.00    +0.000 A 
ATOM     13  C   UNL     1       6.808   6.025  17.814  0.00  0.00    +0.000 A 
ATOM     14  C   UNL     1       6.231   4.952  18.493  0.00  0.00    +0.000 A 
BRANCH  14  15
ATOM     15  O   UNL     1       6.641   4.821  19.790  0.00  0.00    +0.000 OA
ATOM     16  H   UNL     1       6.796   5.760  20.056  0.00  0.00    +0.000 HD
ENDBRANCH  14  15
BRANCH  13  17
ATOM     17  O   UNL     1       7.719   6.756  18.529  0.00  0.00    +0.000 OA
ATOM     18  H   UNL     1       7.739   6.412  19.433  0.00  0.00    +0.000 HD
ENDBRANCH  13  17
ENDBRANCH   7   9
ENDBRANCH   6   7
ENDBRANCH   5   6
ENDBRANCH   4   5
ENDBRANCH   3   4
ENDBRANCH   2   3
ENDBRANCH   1   2
BRANCH   1  19
ATOM     19  C   UNL     1       1.994   5.692  18.288  0.00  0.00    +0.000 C 
BRANCH  19  20
ATOM     20  C   UNL     1       2.509   6.271  19.597  0.00  0.00    +0.000 C 
BRANCH  20  21
ATOM     21  C   UNL     1       2.031   7.703  19.768  0.00  0.00    +0.000 C 
BRANCH  21  22
ATOM     22  C   UNL     1       1.217   7.830  21.044  0.00  0.00    +0.000 C 
BRANCH  22  23
ATOM     23  C   UNL     1       0.361   9.085  21.004  0.00  0.00    +0.000 C 
BRANCH  23  24
ATOM     24  C   UNL     1      -0.017   9.489  22.419  0.00  0.00    +0.000 C 
BRANCH  24  25
ATOM     25  C   UNL     1      -0.795  10.795  22.414  0.00  0.00    +0.000 C 
BRANCH  25  26
ATOM     26  C   UNL     1       0.079  11.918  21.875  0.00  0.00    +0.000 C 
BRANCH  26  27
ATOM     27  C   UNL     1      -0.616  12.601  20.711  0.00  0.00    +0.000 C 
BRANCH  27  28
ATOM     28  C   UNL     1      -2.095  12.236  20.649  0.00  0.00    +0.000 C 
BRANCH  28  29
ATOM     29  C   UNL     1      -2.489  12.033  19.191  0.00  0.00    +0.000 C 
BRANCH  29  30
ATOM     30  C   UNL     1      -1.910  10.749  18.601  0.00  0.00    +0.000 C 
BRANCH  30  31
ATOM     31  C   UNL     1      -2.878  10.014  17.650  0.00  0.00    +0.000 C 
ATOM     32  C   UNL     1      -4.250  10.703  17.617  0.00  0.00    +0.000 C 
BRANCH  31  34
ATOM     33  C   UNL     1      -3.149  10.644  15.172  0.00  0.00    +0.000 C 
ATOM     34  C   UNL     1      -2.358   9.857  16.207  0.00  0.00    +0.000 C 
ENDBRANCH  31  34
ENDBRANCH  30  31
ENDBRANCH  29  30
ENDBRANCH  28  29
ENDBRANCH  27  28
ENDBRANCH  26  27
ENDBRANCH  25  26
ENDBRANCH  24  25
ENDBRANCH  23  24
ENDBRANCH  22  23
ENDBRANCH  21  22
ENDBRANCH  20  21
ENDBRANCH  19  20
ENDBRANCH   1  19
TORSDOF 23
ENDMDL
MODEL 2
REMARK VINA RESULT:      -5.9      2.050      3.439
REMARK  Name = 
REMARK  25 active torsions:
REMARK  status: ('A' for Active; 'I' for Inactive)
REMARK    1  A    between atoms: C_1  and  C_2
REMARK    2  A    between atoms: C_2  and  C_3
REMARK    3  A    between atoms: C_3  and  C_4
REMARK    4  A    between atoms: C_3  and  C_5
REMARK    5  A    between atoms: C_5  and  C_6
REMARK    6  A    between atoms: C_6  and  C_7
REMARK    7  A    between atoms: C_7  and  C_8
REMARK    8  A    between atoms: C_8  and  C_9
REMARK    9  A    between atoms: C_9  and  C_10
REMARK   10  A    between atoms: C_10  and  C_11
REMARK   11  A    between atoms: C_11  and  C_12
REMARK   12  A    between atoms: C_12  and  C_13
REMARK   13  A    between atoms: C_13  and  C_14
REMARK   14  A    between atoms: C_14  and  C_15
REMARK   15  A    between atoms: C_15  and  C_16
REMARK   16  A    between atoms: C_16  and  C_17
REMARK   17  A    between atoms: C_17  and  C_18
REMARK   18  A    between atoms: C_18  and  C_19
REMARK   19  A    between atoms: C_19  and  C_20
REMARK   20  A    between atoms: C_20  and  C_21
REMARK   21  A    between atoms: C_21  and  O_22
REMARK   22  A    between atoms: O_22  and  C_23
REMARK   23  A    between atoms: C_23  and  C_25
REMARK   24  A    between atoms: C_29  and  O_30
REMARK   25  A    between atoms: C_31  and  O_32
REMARK                            x       y       z     vdW  Elec       q    Type
REMARK                         _______ _______ _______ _____ _____    ______ ____
ROOT
ATOM      1  C   UNL     1       1.588   5.915  20.735  0.00  0.00    +0.000 C 
ENDROOT
BRANCH   1   2
ATOM      2  C   UNL     1       2.129   4.558  21.174  0.00  0.00    +0.000 C 
BRANCH   2   3
ATOM      3  C   UNL     1       1.279   3.399  20.654  0.00  0.00    +0.000 C 
BRANCH   3   4
ATOM      4  C   UNL     1       0.901   3.557  19.182  0.00  0.00    +0.000 C 
BRANCH   4   5
ATOM      5  C   UNL     1       0.916   2.222  18.449  0.00  0.00    +0.000 C 
BRANCH   5   6
ATOM      6  O   UNL     1       1.995   2.204  17.504  0.00  0.00    +0.000 OA
BRANCH   6   7
ATOM      7  C   UNL     1       3.235   2.037  18.026  0.00  0.00    +0.000 C 
ATOM      8  O   UNL     1       3.661   1.018  18.550  0.00  0.00    +0.000 OA
BRANCH   7   9
ATOM      9  C   UNL     1       4.040   3.286  17.965  0.00  0.00    +0.000 A 
ATOM     10  C   UNL     1       3.778   4.183  16.912  0.00  0.00    +0.000 A 
ATOM     11  C   UNL     1       4.476   5.399  16.808  0.00  0.00    +0.000 A 
ATOM     12  C   UNL     1       5.436   5.739  17.752  0.00  0.00    +0.000 A 
ATOM     13  C   UNL     1       5.674   4.861  18.793  0.00  0.00    +0.000 A 
ATOM     14  C   UNL     1       4.987   3.653  18.911  0.00  0.00    +0.000 A 
BRANCH  14  15
ATOM     15  O   UNL     1       5.300   2.934  20.030  0.00  0.00    +0.000 OA
ATOM     16  H   UNL     1       5.224   3.615  20.744  0.00  0.00    +0.000 HD
ENDBRANCH  14  15
BRANCH  13  17
ATOM     17  O   UNL     1       6.580   5.125  19.786  0.00  0.00    +0.000 OA
ATOM     18  H   UNL     1       7.404   5.421  19.373  0.00  0.00    +0.000 HD
ENDBRANCH  13  17
ENDBRANCH   7   9
ENDBRANCH   6   7
ENDBRANCH   5   6
ENDBRANCH   4   5
ENDBRANCH   3   4
ENDBRANCH   2   3
ENDBRANCH   1   2
BRANCH   1  19
ATOM     19  C   UNL     1       2.585   6.652  19.854  0.00  0.00    +0.000 C 
BRANCH  19  20
ATOM     20  C   UNL     1       1.857   7.308  18.690  0.00  0.00    +0.000 C 
BRANCH  20  21
ATOM     21  C   UNL     1       1.730   8.804  18.918  0.00  0.00    +0.000 C 
BRANCH  21  22
ATOM     22  C   UNL     1       0.886   9.072  20.152  0.00  0.00    +0.000 C 
BRANCH  22  23
ATOM     23  C   UNL     1      -0.303   9.951  19.800  0.00  0.00    +0.000 C 
BRANCH  23  24
ATOM     24  C   UNL     1      -0.035  10.672  18.490  0.00  0.00    +0.000 C 
BRANCH  24  25
ATOM     25  C   UNL     1      -1.330  11.189  17.887  0.00  0.00    +0.000 C 
BRANCH  25  26
ATOM     26  C   UNL     1      -2.117  10.037  17.280  0.00  0.00    +0.000 C 
BRANCH  26  27
ATOM     27  C   UNL     1      -3.569  10.116  17.715  0.00  0.00    +0.000 C 
BRANCH  27  28
ATOM     28  C   UNL     1      -3.920  11.501  18.248  0.00  0.00    +0.000 C 
BRANCH  28  29
ATOM     29  C   UNL     1      -5.298  11.442  18.895  0.00  0.00    +0.000 C 
BRANCH  29  30
ATOM     30  C   UNL     1      -6.408  11.915  17.959  0.00  0.00    +0.000 C 
BRANCH  30  31
ATOM     31  C   UNL     1      -6.692  13.429  18.051  0.00  0.00    +0.000 C 
ATOM     32  C   UNL     1      -6.859  14.046  16.655  0.00  0.00    +0.000 C 
BRANCH  31  34
ATOM     33  C   UNL     1      -7.847  13.281  20.344  0.00  0.00    +0.000 C 
ATOM     34  C   UNL     1      -7.917  13.796  18.913  0.00  0.00    +0.000 C 
ENDBRANCH  31  34
ENDBRANCH  30  31
ENDBRANCH  29  30
ENDBRANCH  28  29
ENDBRANCH  27  28
ENDBRANCH  26  27
ENDBRANCH  25  26
ENDBRANCH  24  25
ENDBRANCH  23  24
ENDBRANCH  22  23
ENDBRANCH  21  22
ENDBRANCH  20  21
ENDBRANCH  19  20
ENDBRANCH   1  19
TORSDOF 23
ENDMDL
MODEL 3
REMARK VINA RESULT:      -5.7      1.787      3.386
REMARK  Name = 
REMARK  25 active torsions:
REMARK  status: ('A' for Active; 'I' for Inactive)
REMARK    1  A    between atoms: C_1  and  C_2
REMARK    2  A    between atoms: C_2  and  C_3
REMARK    3  A    between atoms: C_3  and  C_4
REMARK    4  A    between atoms: C_3  and  C_5
REMARK    5  A    between atoms: C_5  and  C_6
REMARK    6  A    between atoms: C_6  and  C_7
REMARK    7  A    between atoms: C_7  and  C_8
REMARK    8  A    between atoms: C_8  and  C_9
REMARK    9  A    between atoms: C_9  and  C_10
REMARK   10  A    between atoms: C_10  and  C_11
REMARK   11  A    between atoms: C_11  and  C_12
REMARK   12  A    between atoms: C_12  and  C_13
REMARK   13  A    between atoms: C_13  and  C_14
REMARK   14  A    between atoms: C_14  and  C_15
REMARK   15  A    between atoms: C_15  and  C_16
REMARK   16  A    between atoms: C_16  and  C_17
REMARK   17  A    between atoms: C_17  and  C_18
REMARK   18  A    between atoms: C_18  and  C_19
REMARK   19  A    between atoms: C_19  and  C_20
REMARK   20  A    between atoms: C_20  and  C_21
REMARK   21  A    between atoms: C_21  and  O_22
REMARK   22  A    between atoms: O_22  and  C_23
REMARK   23  A    between atoms: C_23  and  C_25
REMARK   24  A    between atoms: C_29  and  O_30
REMARK   25  A    between atoms: C_31  and  O_32
REMARK                            x       y       z     vdW  Elec       q    Type
REMARK                         _______ _______ _______ _____ _____    ______ ____
ROOT
ATOM      1  C   UNL     1       1.921   5.396  20.332  0.00  0.00    +0.000 C 
ENDROOT
BRANCH   1   2
ATOM      2  C   UNL     1       0.971   4.202  20.334  0.00  0.00    +0.000 C 
BRANCH   2   3
ATOM      3  C   UNL     1       1.702   2.881  20.572  0.00  0.00    +0.000 C 
BRANCH   3   4
ATOM      4  C   UNL     1       3.108   3.076  21.136  0.00  0.00    +0.000 C 
BRANCH   4   5
ATOM      5  C   UNL     1       4.145   2.280  20.355  0.00  0.00    +0.000 C 
BRANCH   5   6
ATOM      6  O   UNL     1       5.059   3.179  19.712  0.00  0.00    +0.000 OA
BRANCH   6   7
ATOM      7  C   UNL     1       4.721   3.568  18.458  0.00  0.00    +0.000 C 
ATOM      8  O   UNL     1       3.895   3.026  17.737  0.00  0.00    +0.000 OA
BRANCH   7   9
ATOM      9  C   UNL     1       5.536   4.721  17.992  0.00  0.00    +0.000 A 
ATOM     10  C   UNL     1       5.196   5.307  16.758  0.00  0.00    +0.000 A 
ATOM     11  C   UNL     1       5.900   6.421  16.267  0.00  0.00    +0.000 A 
ATOM     12  C   UNL     1       6.943   6.969  17.001  0.00  0.00    +0.000 A 
ATOM     13  C   UNL     1       7.259   6.400  18.221  0.00  0.00    +0.000 A 
ATOM     14  C   UNL     1       6.567   5.297  18.722  0.00  0.00    +0.000 A 
BRANCH  14  15
ATOM     15  O   UNL     1       6.966   4.900  19.966  0.00  0.00    +0.000 OA
ATOM     16  H   UNL     1       7.948   4.838  19.862  0.00  0.00    +0.000 HD
ENDBRANCH  14  15
BRANCH  13  17
ATOM     17  O   UNL     1       8.252   6.890  19.028  0.00  0.00    +0.000 OA
ATOM     18  H   UNL     1       7.930   7.703  19.442  0.00  0.00    +0.000 HD
ENDBRANCH  13  17
ENDBRANCH   7   9
ENDBRANCH   6   7
ENDBRANCH   5   6
ENDBRANCH   4   5
ENDBRANCH   3   4
ENDBRANCH   2   3
ENDBRANCH   1   2
BRANCH   1  19
ATOM     19  C   UNL     1       2.209   5.875  18.917  0.00  0.00    +0.000 C 
BRANCH  19  20
ATOM     20  C   UNL     1       2.696   7.315  18.951  0.00  0.00    +0.000 C 
BRANCH  20  21
ATOM     21  C   UNL     1       2.233   8.062  17.712  0.00  0.00    +0.000 C 
BRANCH  21  22
ATOM     22  C   UNL     1       2.006   9.526  18.043  0.00  0.00    +0.000 C 
BRANCH  22  23
ATOM     23  C   UNL     1       0.909   9.671  19.085  0.00  0.00    +0.000 C 
BRANCH  23  24
ATOM     24  C   UNL     1      -0.074  10.743  18.646  0.00  0.00    +0.000 C 
BRANCH  24  25
ATOM     25  C   UNL     1      -1.362  10.651  19.445  0.00  0.00    +0.000 C 
BRANCH  25  26
ATOM     26  C   UNL     1      -1.562  11.924  20.257  0.00  0.00    +0.000 C 
BRANCH  26  27
ATOM     27  C   UNL     1      -0.919  11.771  21.624  0.00  0.00    +0.000 C 
BRANCH  27  28
ATOM     28  C   UNL     1      -0.520  13.120  22.211  0.00  0.00    +0.000 C 
BRANCH  28  29
ATOM     29  C   UNL     1      -0.001  14.009  21.086  0.00  0.00    +0.000 C 
BRANCH  29  30
ATOM     30  C   UNL     1       1.231  14.812  21.495  0.00  0.00    +0.000 C 
BRANCH  30  31
ATOM     31  C   UNL     1       2.491  14.476  20.667  0.00  0.00    +0.000 C 
ATOM     32  C   UNL     1       3.727  14.356  21.569  0.00  0.00    +0.000 C 
BRANCH  31  34
ATOM     33  C   UNL     1       2.527  13.441  18.314  0.00  0.00    +0.000 C 
ATOM     34  C   UNL     1       2.367  13.202  19.808  0.00  0.00    +0.000 C 
ENDBRANCH  31  34
ENDBRANCH  30  31
ENDBRANCH  29  30
ENDBRANCH  28  29
ENDBRANCH  27  28
ENDBRANCH  26  27
ENDBRANCH  25  26
ENDBRANCH  24  25
ENDBRANCH  23  24
ENDBRANCH  22  23
ENDBRANCH  21  22
ENDBRANCH  20  21
ENDBRANCH  19  20
ENDBRANCH   1  19
TORSDOF 23
ENDMDL
MODEL 4
REMARK VINA RESULT:      -5.7      3.887      9.337
REMARK  Name = 
REMARK  25 active torsions:
REMARK  status: ('A' for Active; 'I' for Inactive)
REMARK    1  A    between atoms: C_1  and  C_2
REMARK    2  A    between atoms: C_2  and  C_3
REMARK    3  A    between atoms: C_3  and  C_4
REMARK    4  A    between atoms: C_3  and  C_5
REMARK    5  A    between atoms: C_5  and  C_6
REMARK    6  A    between atoms: C_6  and  C_7
REMARK    7  A    between atoms: C_7  and  C_8
REMARK    8  A    between atoms: C_8  and  C_9
REMARK    9  A    between atoms: C_9  and  C_10
REMARK   10  A    between atoms: C_10  and  C_11
REMARK   11  A    between atoms: C_11  and  C_12
REMARK   12  A    between atoms: C_12  and  C_13
REMARK   13  A    between atoms: C_13  and  C_14
REMARK   14  A    between atoms: C_14  and  C_15
REMARK   15  A    between atoms: C_15  and  C_16
REMARK   16  A    between atoms: C_16  and  C_17
REMARK   17  A    between atoms: C_17  and  C_18
REMARK   18  A    between atoms: C_18  and  C_19
REMARK   19  A    between atoms: C_19  and  C_20
REMARK   20  A    between atoms: C_20  and  C_21
REMARK   21  A    between atoms: C_21  and  O_22
REMARK   22  A    between atoms: O_22  and  C_23
REMARK   23  A    between atoms: C_23  and  C_25
REMARK   24  A    between atoms: C_29  and  O_30
REMARK   25  A    between atoms: C_31  and  O_32
REMARK                            x       y       z     vdW  Elec       q    Type
REMARK                         _______ _______ _______ _____ _____    ______ ____
ROOT
ATOM      1  C   UNL     1       1.571   8.016  17.832  0.00  0.00    +0.000 C 
ENDROOT
BRANCH   1   2
ATOM      2  C   UNL     1       2.207   9.402  17.804  0.00  0.00    +0.000 C 
BRANCH   2   3
ATOM      3  C   UNL     1       1.472  10.395  18.703  0.00  0.00    +0.000 C 
BRANCH   3   4
ATOM      4  C   UNL     1      -0.021  10.094  18.822  0.00  0.00    +0.000 C 
BRANCH   4   5
ATOM      5  C   UNL     1      -0.475  10.054  20.275  0.00  0.00    +0.000 C 
BRANCH   5   6
ATOM      6  O   UNL     1       0.172  11.102  21.011  0.00  0.00    +0.000 OA
BRANCH   6   7
ATOM      7  C   UNL     1      -0.553  12.234  21.187  0.00  0.00    +0.000 C 
ATOM      8  O   UNL     1      -1.612  12.321  21.794  0.00  0.00    +0.000 OA
BRANCH   7   9
ATOM      9  C   UNL     1       0.046  13.397  20.481  0.00  0.00    +0.000 A 
ATOM     10  C   UNL     1      -0.818  14.241  19.758  0.00  0.00    +0.000 A 
ATOM     11  C   UNL     1      -0.328  15.378  19.092  0.00  0.00    +0.000 A 
ATOM     12  C   UNL     1       1.024  15.693  19.144  0.00  0.00    +0.000 A 
ATOM     13  C   UNL     1       1.863  14.870  19.872  0.00  0.00    +0.000 A 
ATOM     14  C   UNL     1       1.391  13.741  20.541  0.00  0.00    +0.000 A 
BRANCH  14  15
ATOM     15  O   UNL     1       2.341  13.074  21.261  0.00  0.00    +0.000 OA
ATOM     16  H   UNL     1       1.875  12.235  21.497  0.00  0.00    +0.000 HD
ENDBRANCH  14  15
BRANCH  13  17
ATOM     17  O   UNL     1       3.204  15.118  20.006  0.00  0.00    +0.000 OA
ATOM     18  H   UNL     1       3.485  14.799  20.875  0.00  0.00    +0.000 HD
ENDBRANCH  13  17
ENDBRANCH   7   9
ENDBRANCH   6   7
ENDBRANCH   5   6
ENDBRANCH   4   5
ENDBRANCH   3   4
ENDBRANCH   2   3
ENDBRANCH   1   2
BRANCH   1  19
ATOM     19  C   UNL     1       2.625   6.922  17.911  0.00  0.00    +0.000 C 
BRANCH  19  20
ATOM     20  C   UNL     1       3.054   6.727  19.357  0.00  0.00    +0.000 C 
BRANCH  20  21
ATOM     21  C   UNL     1       1.842   6.710  20.273  0.00  0.00    +0.000 C 
BRANCH  21  22
ATOM     22  C   UNL     1       1.373   5.282  20.487  0.00  0.00    +0.000 C 
BRANCH  22  23
ATOM     23  C   UNL     1       2.505   4.427  21.031  0.00  0.00    +0.000 C 
BRANCH  23  24
ATOM     24  C   UNL     1       1.944   3.123  21.573  0.00  0.00    +0.000 C 
BRANCH  24  25
ATOM     25  C   UNL     1       1.688   2.138  20.445  0.00  0.00    +0.000 C 
BRANCH  25  26
ATOM     26  C   UNL     1       2.833   2.188  19.442  0.00  0.00    +0.000 C 
BRANCH  26  27
ATOM     27  C   UNL     1       2.283   2.171  18.028  0.00  0.00    +0.000 C 
BRANCH  27  28
ATOM     28  C   UNL     1       2.733   3.393  17.236  0.00  0.00    +0.000 C 
BRANCH  28  29
ATOM     29  C   UNL     1       4.224   3.606  17.470  0.00  0.00    +0.000 C 
BRANCH  29  30
ATOM     30  C   UNL     1       4.877   4.441  16.371  0.00  0.00    +0.000 C 
BRANCH  30  31
ATOM     31  C   UNL     1       6.400   4.222  16.251  0.00  0.00    +0.000 C 
ATOM     32  C   UNL     1       6.926   4.729  14.901  0.00  0.00    +0.000 C 
BRANCH  31  34
ATOM     33  C   UNL     1       7.166   6.379  17.421  0.00  0.00    +0.000 C 
ATOM     34  C   UNL     1       7.227   4.859  17.385  0.00  0.00    +0.000 C 
ENDBRANCH  31  34
ENDBRANCH  30  31
ENDBRANCH  29  30
ENDBRANCH  28  29
ENDBRANCH  27  28
ENDBRANCH  26  27
ENDBRANCH  25  26
ENDBRANCH  24  25
ENDBRANCH  23  24
ENDBRANCH  22  23
ENDBRANCH  21  22
ENDBRANCH  20  21
ENDBRANCH  19  20
ENDBRANCH   1  19
TORSDOF 23
ENDMDL
MODEL 5
REMARK VINA RESULT:      -5.7      4.136      9.324
REMARK  Name = 
REMARK  25 active torsions:
REMARK  status: ('A' for Active; 'I' for Inactive)
REMARK    1  A    between atoms: C_1  and  C_2
REMARK    2  A    between atoms: C_2  and  C_3
REMARK    3  A    between atoms: C_3  and  C_4
REMARK    4  A    between atoms: C_3  and  C_5
REMARK    5  A    between atoms: C_5  and  C_6
REMARK    6  A    between atoms: C_6  and  C_7
REMARK    7  A    between atoms: C_7  and  C_8
REMARK    8  A    between atoms: C_8  and  C_9
REMARK    9  A    between atoms: C_9  and  C_10
REMARK   10  A    between atoms: C_10  and  C_11
REMARK   11  A    between atoms: C_11  and  C_12
REMARK   12  A    between atoms: C_12  and  C_13
REMARK   13  A    between atoms: C_13  and  C_14
REMARK   14  A    between atoms: C_14  and  C_15
REMARK   15  A    between atoms: C_15  and  C_16
REMARK   16  A    between atoms: C_16  and  C_17
REMARK   17  A    between atoms: C_17  and  C_18
REMARK   18  A    between atoms: C_18  and  C_19
REMARK   19  A    between atoms: C_19  and  C_20
REMARK   20  A    between atoms: C_20  and  C_21
REMARK   21  A    between atoms: C_21  and  O_22
REMARK   22  A    between atoms: O_22  and  C_23
REMARK   23  A    between atoms: C_23  and  C_25
REMARK   24  A    between atoms: C_29  and  O_30
REMARK   25  A    between atoms: C_31  and  O_32
REMARK                            x       y       z     vdW  Elec       q    Type
REMARK                         _______ _______ _______ _____ _____    ______ ____
ROOT
ATOM      1  C   UNL     1       1.485   3.531  17.743  0.00  0.00    +0.000 C 
ENDROOT
BRANCH   1   2
ATOM      2  C   UNL     1       1.740   5.032  17.838  0.00  0.00    +0.000 C 
BRANCH   2   3
ATOM      3  C   UNL     1       1.690   5.539  19.279  0.00  0.00    +0.000 C 
BRANCH   3   4
ATOM      4  C   UNL     1       2.305   6.928  19.440  0.00  0.00    +0.000 C 
BRANCH   4   5
ATOM      5  C   UNL     1       2.042   7.505  20.824  0.00  0.00    +0.000 C 
BRANCH   5   6
ATOM      6  O   UNL     1       0.859   8.315  20.792  0.00  0.00    +0.000 OA
BRANCH   6   7
ATOM      7  C   UNL     1       0.865   9.402  21.603  0.00  0.00    +0.000 C 
ATOM      8  O   UNL     1       1.528   9.533  22.622  0.00  0.00    +0.000 OA
BRANCH   7   9
ATOM      9  C   UNL     1      -0.107  10.436  21.159  0.00  0.00    +0.000 A 
ATOM     10  C   UNL     1      -0.272  10.630  19.774  0.00  0.00    +0.000 A 
ATOM     11  C   UNL     1      -1.196  11.567  19.280  0.00  0.00    +0.000 A 
ATOM     12  C   UNL     1      -1.972  12.315  20.155  0.00  0.00    +0.000 A 
ATOM     13  C   UNL     1      -1.818  12.105  21.513  0.00  0.00    +0.000 A 
ATOM     14  C   UNL     1      -0.908  11.177  22.019  0.00  0.00    +0.000 A 
BRANCH  14  15
ATOM     15  O   UNL     1      -0.928  11.052  23.379  0.00  0.00    +0.000 OA
ATOM     16  H   UNL     1      -0.038  11.399  23.633  0.00  0.00    +0.000 HD
ENDBRANCH  14  15
BRANCH  13  17
ATOM     17  O   UNL     1      -2.561  12.774  22.451  0.00  0.00    +0.000 OA
ATOM     18  H   UNL     1      -1.979  13.397  22.908  0.00  0.00    +0.000 HD
ENDBRANCH  13  17
ENDBRANCH   7   9
ENDBRANCH   6   7
ENDBRANCH   5   6
ENDBRANCH   4   5
ENDBRANCH   3   4
ENDBRANCH   2   3
ENDBRANCH   1   2
BRANCH   1  19
ATOM     19  C   UNL     1       1.060   2.954  19.084  0.00  0.00    +0.000 C 
BRANCH  19  20
ATOM     20  C   UNL     1       2.125   1.994  19.591  0.00  0.00    +0.000 C 
BRANCH  20  21
ATOM     21  C   UNL     1       3.046   1.575  18.457  0.00  0.00    +0.000 C 
BRANCH  21  22
ATOM     22  C   UNL     1       4.452   2.087  18.714  0.00  0.00    +0.000 C 
BRANCH  22  23
ATOM     23  C   UNL     1       4.458   3.062  19.880  0.00  0.00    +0.000 C 
BRANCH  23  24
ATOM     24  C   UNL     1       5.086   4.375  19.444  0.00  0.00    +0.000 C 
BRANCH  24  25
ATOM     25  C   UNL     1       5.429   4.342  17.965  0.00  0.00    +0.000 C 
BRANCH  25  26
ATOM     26  C   UNL     1       5.452   5.758  17.406  0.00  0.00    +0.000 C 
BRANCH  26  27
ATOM     27  C   UNL     1       5.166   5.730  15.915  0.00  0.00    +0.000 C 
BRANCH  27  28
ATOM     28  C   UNL     1       5.744   4.483  15.256  0.00  0.00    +0.000 C 
BRANCH  28  29
ATOM     29  C   UNL     1       5.357   4.484  13.782  0.00  0.00    +0.000 C 
BRANCH  29  30
ATOM     30  C   UNL     1       6.145   3.461  12.968  0.00  0.00    +0.000 C 
BRANCH  30  31
ATOM     31  C   UNL     1       5.256   2.531  12.115  0.00  0.00    +0.000 C 
ATOM     32  C   UNL     1       4.275   3.340  11.255  0.00  0.00    +0.000 C 
BRANCH  31  34
ATOM     33  C   UNL     1       7.477   1.973  10.946  0.00  0.00    +0.000 C 
ATOM     34  C   UNL     1       6.036   1.558  11.210  0.00  0.00    +0.000 C 
ENDBRANCH  31  34
ENDBRANCH  30  31
ENDBRANCH  29  30
ENDBRANCH  28  29
ENDBRANCH  27  28
ENDBRANCH  26  27
ENDBRANCH  25  26
ENDBRANCH  24  25
ENDBRANCH  23  24
ENDBRANCH  22  23
ENDBRANCH  21  22
ENDBRANCH  20  21
ENDBRANCH  19  20
ENDBRANCH   1  19
TORSDOF 23
ENDMDL
MODEL 6
REMARK VINA RESULT:      -5.6      4.218      9.331
REMARK  Name = 
REMARK  25 active torsions:
REMARK  status: ('A' for Active; 'I' for Inactive)
REMARK    1  A    between atoms: C_1  and  C_2
REMARK    2  A    between atoms: C_2  and  C_3
REMARK    3  A    between atoms: C_3  and  C_4
REMARK    4  A    between atoms: C_3  and  C_5
REMARK    5  A    between atoms: C_5  and  C_6
REMARK    6  A    between atoms: C_6  and  C_7
REMARK    7  A    between atoms: C_7  and  C_8
REMARK    8  A    between atoms: C_8  and  C_9
REMARK    9  A    between atoms: C_9  and  C_10
REMARK   10  A    between atoms: C_10  and  C_11
REMARK   11  A    between atoms: C_11  and  C_12
REMARK   12  A    between atoms: C_12  and  C_13
REMARK   13  A    between atoms: C_13  and  C_14
REMARK   14  A    between atoms: C_14  and  C_15
REMARK   15  A    between atoms: C_15  and  C_16
REMARK   16  A    between atoms: C_16  and  C_17
REMARK   17  A    between atoms: C_17  and  C_18
REMARK   18  A    between atoms: C_18  and  C_19
REMARK   19  A    between atoms: C_19  and  C_20
REMARK   20  A    between atoms: C_20  and  C_21
REMARK   21  A    between atoms: C_21  and  O_22
REMARK   22  A    between atoms: O_22  and  C_23
REMARK   23  A    between atoms: C_23  and  C_25
REMARK   24  A    between atoms: C_29  and  O_30
REMARK   25  A    between atoms: C_31  and  O_32
REMARK                            x       y       z     vdW  Elec       q    Type
REMARK                         _______ _______ _______ _____ _____    ______ ____
ROOT
ATOM      1  C   UNL     1       1.701   5.244  20.828  0.00  0.00    +0.000 C 
ENDROOT
BRANCH   1   2
ATOM      2  C   UNL     1       1.641   6.647  20.230  0.00  0.00    +0.000 C 
BRANCH   2   3
ATOM      3  C   UNL     1       1.693   7.736  21.301  0.00  0.00    +0.000 C 
BRANCH   3   4
ATOM      4  C   UNL     1       0.742   8.896  21.011  0.00  0.00    +0.000 C 
BRANCH   4   5
ATOM      5  C   UNL     1       1.136   9.646  19.746  0.00  0.00    +0.000 C 
BRANCH   5   6
ATOM      6  O   UNL     1       0.017   9.702  18.851  0.00  0.00    +0.000 OA
BRANCH   6   7
ATOM      7  C   UNL     1      -0.643  10.885  18.801  0.00  0.00    +0.000 C 
ATOM      8  O   UNL     1      -0.388  11.877  19.471  0.00  0.00    +0.000 OA
BRANCH   7   9
ATOM      9  C   UNL     1      -1.801  10.842  17.870  0.00  0.00    +0.000 A 
ATOM     10  C   UNL     1      -1.769   9.897  16.828  0.00  0.00    +0.000 A 
ATOM     11  C   UNL     1      -2.843   9.775  15.928  0.00  0.00    +0.000 A 
ATOM     12  C   UNL     1      -3.962  10.586  16.060  0.00  0.00    +0.000 A 
ATOM     13  C   UNL     1      -3.994  11.499  17.098  0.00  0.00    +0.000 A 
ATOM     14  C   UNL     1      -2.939  11.628  18.000  0.00  0.00    +0.000 A 
BRANCH  14  15
ATOM     15  O   UNL     1      -3.160  12.533  18.999  0.00  0.00    +0.000 OA
ATOM     16  H   UNL     1      -3.987  12.188  19.415  0.00  0.00    +0.000 HD
ENDBRANCH  14  15
BRANCH  13  17
ATOM     17  O   UNL     1      -5.069  12.319  17.324  0.00  0.00    +0.000 OA
ATOM     18  H   UNL     1      -5.719  11.828  17.846  0.00  0.00    +0.000 HD
ENDBRANCH  13  17
ENDBRANCH   7   9
ENDBRANCH   6   7
ENDBRANCH   5   6
ENDBRANCH   4   5
ENDBRANCH   3   4
ENDBRANCH   2   3
ENDBRANCH   1   2
BRANCH   1  19
ATOM     19  C   UNL     1       0.979   4.234  19.949  0.00  0.00    +0.000 C 
BRANCH  19  20
ATOM     20  C   UNL     1       1.258   2.825  20.449  0.00  0.00    +0.000 C 
BRANCH  20  21
ATOM     21  C   UNL     1       2.620   2.352  19.970  0.00  0.00    +0.000 C 
BRANCH  21  22
ATOM     22  C   UNL     1       2.684   2.402  18.454  0.00  0.00    +0.000 C 
BRANCH  22  23
ATOM     23  C   UNL     1       3.497   3.601  17.997  0.00  0.00    +0.000 C 
BRANCH  23  24
ATOM     24  C   UNL     1       4.783   3.683  18.803  0.00  0.00    +0.000 C 
BRANCH  24  25
ATOM     25  C   UNL     1       4.930   5.053  19.442  0.00  0.00    +0.000 C 
BRANCH  25  26
ATOM     26  C   UNL     1       6.298   5.635  19.112  0.00  0.00    +0.000 C 
BRANCH  26  27
ATOM     27  C   UNL     1       6.532   5.587  17.613  0.00  0.00    +0.000 C 
BRANCH  27  28
ATOM     28  C   UNL     1       5.618   6.557  16.871  0.00  0.00    +0.000 C 
BRANCH  28  29
ATOM     29  C   UNL     1       5.408   6.042  15.452  0.00  0.00    +0.000 C 
BRANCH  29  30
ATOM     30  C   UNL     1       6.634   5.317  14.902  0.00  0.00    +0.000 C 
BRANCH  30  31
ATOM     31  C   UNL     1       6.306   3.963  14.237  0.00  0.00    +0.000 C 
ATOM     32  C   UNL     1       5.631   3.008  15.232  0.00  0.00    +0.000 C 
BRANCH  31  34
ATOM     33  C   UNL     1       5.659   2.954  11.962  0.00  0.00    +0.000 C 
ATOM     34  C   UNL     1       5.433   4.071  12.971  0.00  0.00    +0.000 C 
ENDBRANCH  31  34
ENDBRANCH  30  31
ENDBRANCH  29  30
ENDBRANCH  28  29
ENDBRANCH  27  28
ENDBRANCH  26  27
ENDBRANCH  25  26
ENDBRANCH  24  25
ENDBRANCH  23  24
ENDBRANCH  22  23
ENDBRANCH  21  22
ENDBRANCH  20  21
ENDBRANCH  19  20
ENDBRANCH   1  19
TORSDOF 23
ENDMDL
MODEL 7
REMARK VINA RESULT:      -5.6      4.792     10.075
REMARK  Name = 
REMARK  25 active torsions:
REMARK  status: ('A' for Active; 'I' for Inactive)
REMARK    1  A    between atoms: C_1  and  C_2
REMARK    2  A    between atoms: C_2  and  C_3
REMARK    3  A    between atoms: C_3  and  C_4
REMARK    4  A    between atoms: C_3  and  C_5
REMARK    5  A    between atoms: C_5  and  C_6
REMARK    6  A    between atoms: C_6  and  C_7
REMARK    7  A    between atoms: C_7  and  C_8
REMARK    8  A    between atoms: C_8  and  C_9
REMARK    9  A    between atoms: C_9  and  C_10
REMARK   10  A    between atoms: C_10  and  C_11
REMARK   11  A    between atoms: C_11  and  C_12
REMARK   12  A    between atoms: C_12  and  C_13
REMARK   13  A    between atoms: C_13  and  C_14
REMARK   14  A    between atoms: C_14  and  C_15
REMARK   15  A    between atoms: C_15  and  C_16
REMARK   16  A    between atoms: C_16  and  C_17
REMARK   17  A    between atoms: C_17  and  C_18
REMARK   18  A    between atoms: C_18  and  C_19
REMARK   19  A    between atoms: C_19  and  C_20
REMARK   20  A    between atoms: C_20  and  C_21
REMARK   21  A    between atoms: C_21  and  O_22
REMARK   22  A    between atoms: O_22  and  C_23
REMARK   23  A    between atoms: C_23  and  C_25
REMARK   24  A    between atoms: C_29  and  O_30
REMARK   25  A    between atoms: C_31  and  O_32
REMARK                            x       y       z     vdW  Elec       q    Type
REMARK                         _______ _______ _______ _____ _____    ______ ____
ROOT
ATOM      1  C   UNL     1       1.499   6.973  17.565  0.00  0.00    +0.000 C 
ENDROOT
BRANCH   1   2
ATOM      2  C   UNL     1       1.657   8.408  18.057  0.00  0.00    +0.000 C 
BRANCH   2   3
ATOM      3  C   UNL     1       1.803   8.487  19.576  0.00  0.00    +0.000 C 
BRANCH   3   4
ATOM      4  C   UNL     1       0.662   9.257  20.241  0.00  0.00    +0.000 C 
BRANCH   4   5
ATOM      5  C   UNL     1       0.805  10.760  20.043  0.00  0.00    +0.000 C 
BRANCH   5   6
ATOM      6  O   UNL     1      -0.005  11.179  18.936  0.00  0.00    +0.000 OA
BRANCH   6   7
ATOM      7  C   UNL     1      -1.302  11.452  19.222  0.00  0.00    +0.000 C 
ATOM      8  O   UNL     1      -1.733  11.836  20.300  0.00  0.00    +0.000 OA
BRANCH   7   9
ATOM      9  C   UNL     1      -2.201  11.158  18.074  0.00  0.00    +0.000 A 
ATOM     10  C   UNL     1      -1.744  10.251  17.099  0.00  0.00    +0.000 A 
ATOM     11  C   UNL     1      -2.552   9.900  16.004  0.00  0.00    +0.000 A 
ATOM     12  C   UNL     1      -3.825  10.440  15.869  0.00  0.00    +0.000 A 
ATOM     13  C   UNL     1      -4.273  11.315  16.841  0.00  0.00    +0.000 A 
ATOM     14  C   UNL     1      -3.485  11.670  17.936  0.00  0.00    +0.000 A 
BRANCH  14  15
ATOM     15  O   UNL     1      -4.103  12.496  18.831  0.00  0.00    +0.000 OA
ATOM     16  H   UNL     1      -3.821  12.113  19.698  0.00  0.00    +0.000 HD
ENDBRANCH  14  15
BRANCH  13  17
ATOM     17  O   UNL     1      -5.524  11.873  16.809  0.00  0.00    +0.000 OA
ATOM     18  H   UNL     1      -6.102  11.290  16.297  0.00  0.00    +0.000 HD
ENDBRANCH  13  17
ENDBRANCH   7   9
ENDBRANCH   6   7
ENDBRANCH   5   6
ENDBRANCH   4   5
ENDBRANCH   3   4
ENDBRANCH   2   3
ENDBRANCH   1   2
BRANCH   1  19
ATOM     19  C   UNL     1       2.303   6.002  18.416  0.00  0.00    +0.000 C 
BRANCH  19  20
ATOM     20  C   UNL     1       1.974   4.572  18.014  0.00  0.00    +0.000 C 
BRANCH  20  21
ATOM     21  C   UNL     1       3.244   3.746  17.907  0.00  0.00    +0.000 C 
BRANCH  21  22
ATOM     22  C   UNL     1       4.452   4.660  17.799  0.00  0.00    +0.000 C 
BRANCH  22  23
ATOM     23  C   UNL     1       5.493   4.289  18.841  0.00  0.00    +0.000 C 
BRANCH  23  24
ATOM     24  C   UNL     1       6.462   5.444  19.029  0.00  0.00    +0.000 C 
BRANCH  24  25
ATOM     25  C   UNL     1       7.475   5.485  17.897  0.00  0.00    +0.000 C 
BRANCH  25  26
ATOM     26  C   UNL     1       7.086   4.487  16.816  0.00  0.00    +0.000 C 
BRANCH  26  27
ATOM     27  C   UNL     1       7.349   5.082  15.444  0.00  0.00    +0.000 C 
BRANCH  27  28
ATOM     28  C   UNL     1       6.078   5.138  14.604  0.00  0.00    +0.000 C 
BRANCH  28  29
ATOM     29  C   UNL     1       5.875   3.785  13.933  0.00  0.00    +0.000 C 
BRANCH  29  30
ATOM     30  C   UNL     1       6.538   3.705  12.560  0.00  0.00    +0.000 C 
BRANCH  30  31
ATOM     31  C   UNL     1       5.670   3.002  11.494  0.00  0.00    +0.000 C 
ATOM     32  C   UNL     1       5.954   1.494  11.457  0.00  0.00    +0.000 C 
BRANCH  31  34
ATOM     33  C   UNL     1       3.431   3.564  10.361  0.00  0.00    +0.000 C 
ATOM     34  C   UNL     1       4.154   3.227  11.657  0.00  0.00    +0.000 C 
ENDBRANCH  31  34
ENDBRANCH  30  31
ENDBRANCH  29  30
ENDBRANCH  28  29
ENDBRANCH  27  28
ENDBRANCH  26  27
ENDBRANCH  25  26
ENDBRANCH  24  25
ENDBRANCH  23  24
ENDBRANCH  22  23
ENDBRANCH  21  22
ENDBRANCH  20  21
ENDBRANCH  19  20
ENDBRANCH   1  19
TORSDOF 23
ENDMDL
MODEL 8
REMARK VINA RESULT:      -5.6      4.838     10.318
REMARK  Name = 
REMARK  25 active torsions:
REMARK  status: ('A' for Active; 'I' for Inactive)
REMARK    1  A    between atoms: C_1  and  C_2
REMARK    2  A    between atoms: C_2  and  C_3
REMARK    3  A    between atoms: C_3  and  C_4
REMARK    4  A    between atoms: C_3  and  C_5
REMARK    5  A    between atoms: C_5  and  C_6
REMARK    6  A    between atoms: C_6  and  C_7
REMARK    7  A    between atoms: C_7  and  C_8
REMARK    8  A    between atoms: C_8  and  C_9
REMARK    9  A    between atoms: C_9  and  C_10
REMARK   10  A    between atoms: C_10  and  C_11
REMARK   11  A    between atoms: C_11  and  C_12
REMARK   12  A    between atoms: C_12  and  C_13
REMARK   13  A    between atoms: C_13  and  C_14
REMARK   14  A    between atoms: C_14  and  C_15
REMARK   15  A    between atoms: C_15  and  C_16
REMARK   16  A    between atoms: C_16  and  C_17
REMARK   17  A    between atoms: C_17  and  C_18
REMARK   18  A    between atoms: C_18  and  C_19
REMARK   19  A    between atoms: C_19  and  C_20
REMARK   20  A    between atoms: C_20  and  C_21
REMARK   21  A    between atoms: C_21  and  O_22
REMARK   22  A    between atoms: O_22  and  C_23
REMARK   23  A    between atoms: C_23  and  C_25
REMARK   24  A    between atoms: C_29  and  O_30
REMARK   25  A    between atoms: C_31  and  O_32
REMARK                            x       y       z     vdW  Elec       q    Type
REMARK                         _______ _______ _______ _____ _____    ______ ____
ROOT
ATOM      1  C   UNL     1       1.624   8.586  17.765  0.00  0.00    +0.000 C 
ENDROOT
BRANCH   1   2
ATOM      2  C   UNL     1       1.468   9.922  18.484  0.00  0.00    +0.000 C 
BRANCH   2   3
ATOM      3  C   UNL     1       0.587   9.812  19.728  0.00  0.00    +0.000 C 
BRANCH   3   4
ATOM      4  C   UNL     1       0.802  10.962  20.710  0.00  0.00    +0.000 C 
BRANCH   4   5
ATOM      5  C   UNL     1       0.748  12.316  20.014  0.00  0.00    +0.000 C 
BRANCH   5   6
ATOM      6  O   UNL     1      -0.381  13.059  20.493  0.00  0.00    +0.000 OA
BRANCH   6   7
ATOM      7  C   UNL     1      -1.595  12.634  20.063  0.00  0.00    +0.000 C 
ATOM      8  O   UNL     1      -1.879  12.318  18.916  0.00  0.00    +0.000 OA
BRANCH   7   9
ATOM      9  C   UNL     1      -2.612  12.656  21.147  0.00  0.00    +0.000 A 
ATOM     10  C   UNL     1      -2.189  12.332  22.450  0.00  0.00    +0.000 A 
ATOM     11  C   UNL     1      -3.087  12.364  23.531  0.00  0.00    +0.000 A 
ATOM     12  C   UNL     1      -4.413  12.725  23.331  0.00  0.00    +0.000 A 
ATOM     13  C   UNL     1      -4.816  13.061  22.052  0.00  0.00    +0.000 A 
ATOM     14  C   UNL     1      -3.936  13.037  20.970  0.00  0.00    +0.000 A 
BRANCH  14  15
ATOM     15  O   UNL     1      -4.482  13.456  19.790  0.00  0.00    +0.000 OA
ATOM     16  H   UNL     1      -5.243  14.008  20.096  0.00  0.00    +0.000 HD
ENDBRANCH  14  15
BRANCH  13  17
ATOM     17  O   UNL     1      -6.095  13.459  21.764  0.00  0.00    +0.000 OA
ATOM     18  H   UNL     1      -6.158  13.605  20.809  0.00  0.00    +0.000 HD
ENDBRANCH  13  17
ENDBRANCH   7   9
ENDBRANCH   6   7
ENDBRANCH   5   6
ENDBRANCH   4   5
ENDBRANCH   3   4
ENDBRANCH   2   3
ENDBRANCH   1   2
BRANCH   1  19
ATOM     19  C   UNL     1       3.071   8.118  17.772  0.00  0.00    +0.000 C 
BRANCH  19  20
ATOM     20  C   UNL     1       3.218   6.915  18.692  0.00  0.00    +0.000 C 
BRANCH  20  21
ATOM     21  C   UNL     1       1.853   6.381  19.089  0.00  0.00    +0.000 C 
BRANCH  21  22
ATOM     22  C   UNL     1       1.880   5.905  20.530  0.00  0.00    +0.000 C 
BRANCH  22  23
ATOM     23  C   UNL     1       2.125   4.407  20.590  0.00  0.00    +0.000 C 
BRANCH  23  24
ATOM     24  C   UNL     1       0.976   3.675  19.916  0.00  0.00    +0.000 C 
BRANCH  24  25
ATOM     25  C   UNL     1       1.354   3.269  18.502  0.00  0.00    +0.000 C 
BRANCH  25  26
ATOM     26  C   UNL     1       2.096   1.940  18.524  0.00  0.00    +0.000 C 
BRANCH  26  27
ATOM     27  C   UNL     1       3.515   2.132  18.019  0.00  0.00    +0.000 C 
BRANCH  27  28
ATOM     28  C   UNL     1       3.675   3.459  17.286  0.00  0.00    +0.000 C 
BRANCH  28  29
ATOM     29  C   UNL     1       4.903   4.176  17.835  0.00  0.00    +0.000 C 
BRANCH  29  30
ATOM     30  C   UNL     1       6.048   4.234  16.828  0.00  0.00    +0.000 C 
BRANCH  30  31
ATOM     31  C   UNL     1       6.380   5.663  16.349  0.00  0.00    +0.000 C 
ATOM     32  C   UNL     1       5.268   6.216  15.447  0.00  0.00    +0.000 C 
BRANCH  31  34
ATOM     33  C   UNL     1       7.727   6.221  18.468  0.00  0.00    +0.000 C 
ATOM     34  C   UNL     1       6.654   6.668  17.486  0.00  0.00    +0.000 C 
ENDBRANCH  31  34
ENDBRANCH  30  31
ENDBRANCH  29  30
ENDBRANCH  28  29
ENDBRANCH  27  28
ENDBRANCH  26  27
ENDBRANCH  25  26
ENDBRANCH  24  25
ENDBRANCH  23  24
ENDBRANCH  22  23
ENDBRANCH  21  22
ENDBRANCH  20  21
ENDBRANCH  19  20
ENDBRANCH   1  19
TORSDOF 23
ENDMDL
MODEL 9
REMARK VINA RESULT:      -5.6      3.752      9.411
REMARK  Name = 
REMARK  25 active torsions:
REMARK  status: ('A' for Active; 'I' for Inactive)
REMARK    1  A    between atoms: C_1  and  C_2
REMARK    2  A    between atoms: C_2  and  C_3
REMARK    3  A    between atoms: C_3  and  C_4
REMARK    4  A    between atoms: C_3  and  C_5
REMARK    5  A    between atoms: C_5  and  C_6
REMARK    6  A    between atoms: C_6  and  C_7
REMARK    7  A    between atoms: C_7  and  C_8
REMARK    8  A    between atoms: C_8  and  C_9
REMARK    9  A    between atoms: C_9  and  C_10
REMARK   10  A    between atoms: C_10  and  C_11
REMARK   11  A    between atoms: C_11  and  C_12
REMARK   12  A    between atoms: C_12  and  C_13
REMARK   13  A    between atoms: C_13  and  C_14
REMARK   14  A    between atoms: C_14  and  C_15
REMARK   15  A    between atoms: C_15  and  C_16
REMARK   16  A    between atoms: C_16  and  C_17
REMARK   17  A    between atoms: C_17  and  C_18
REMARK   18  A    between atoms: C_18  and  C_19
REMARK   19  A    between atoms: C_19  and  C_20
REMARK   20  A    between atoms: C_20  and  C_21
REMARK   21  A    between atoms: C_21  and  O_22
REMARK   22  A    between atoms: O_22  and  C_23
REMARK   23  A    between atoms: C_23  and  C_25
REMARK   24  A    between atoms: C_29  and  O_30
REMARK   25  A    between atoms: C_31  and  O_32
REMARK                            x       y       z     vdW  Elec       q    Type
REMARK                         _______ _______ _______ _____ _____    ______ ____
ROOT
ATOM      1  C   UNL     1       2.396   6.402  19.928  0.00  0.00    +0.000 C 
ENDROOT
BRANCH   1   2
ATOM      2  C   UNL     1       1.278   7.395  20.231  0.00  0.00    +0.000 C 
BRANCH   2   3
ATOM      3  C   UNL     1       1.640   8.345  21.372  0.00  0.00    +0.000 C 
BRANCH   3   4
ATOM      4  C   UNL     1       0.418   9.034  21.979  0.00  0.00    +0.000 C 
BRANCH   4   5
ATOM      5  C   UNL     1       0.315  10.488  21.541  0.00  0.00    +0.000 C 
BRANCH   5   6
ATOM      6  O   UNL     1      -0.492  10.580  20.358  0.00  0.00    +0.000 OA
BRANCH   6   7
ATOM      7  C   UNL     1      -1.410  11.577  20.345  0.00  0.00    +0.000 C 
ATOM      8  O   UNL     1      -1.559  12.427  21.213  0.00  0.00    +0.000 OA
BRANCH   7   9
ATOM      9  C   UNL     1      -2.306  11.496  19.162  0.00  0.00    +0.000 A 
ATOM     10  C   UNL     1      -3.626  11.965  19.306  0.00  0.00    +0.000 A 
ATOM     11  C   UNL     1      -4.521  11.950  18.222  0.00  0.00    +0.000 A 
ATOM     12  C   UNL     1      -4.113  11.478  16.982  0.00  0.00    +0.000 A 
ATOM     13  C   UNL     1      -2.810  11.037  16.843  0.00  0.00    +0.000 A 
ATOM     14  C   UNL     1      -1.909  11.048  17.908  0.00  0.00    +0.000 A 
BRANCH  14  15
ATOM     15  O   UNL     1      -0.648  10.637  17.584  0.00  0.00    +0.000 OA
ATOM     16  H   UNL     1      -0.340  10.223  18.427  0.00  0.00    +0.000 HD
ENDBRANCH  14  15
BRANCH  13  17
ATOM     17  O   UNL     1      -2.309  10.582  15.652  0.00  0.00    +0.000 OA
ATOM     18  H   UNL     1      -2.753  11.059  14.936  0.00  0.00    +0.000 HD
ENDBRANCH  13  17
ENDBRANCH   7   9
ENDBRANCH   6   7
ENDBRANCH   5   6
ENDBRANCH   4   5
ENDBRANCH   3   4
ENDBRANCH   2   3
ENDBRANCH   1   2
BRANCH   1  19
ATOM     19  C   UNL     1       2.277   5.152  20.786  0.00  0.00    +0.000 C 
BRANCH  19  20
ATOM     20  C   UNL     1       0.922   4.500  20.557  0.00  0.00    +0.000 C 
BRANCH  20  21
ATOM     21  C   UNL     1       1.087   3.014  20.284  0.00  0.00    +0.000 C 
BRANCH  21  22
ATOM     22  C   UNL     1       0.688   2.702  18.852  0.00  0.00    +0.000 C 
BRANCH  22  23
ATOM     23  C   UNL     1       1.921   2.572  17.974  0.00  0.00    +0.000 C 
BRANCH  23  24
ATOM     24  C   UNL     1       2.997   1.797  18.716  0.00  0.00    +0.000 C 
BRANCH  24  25
ATOM     25  C   UNL     1       4.381   2.277  18.311  0.00  0.00    +0.000 C 
BRANCH  25  26
ATOM     26  C   UNL     1       4.458   3.793  18.423  0.00  0.00    +0.000 C 
BRANCH  26  27
ATOM     27  C   UNL     1       5.433   4.180  19.521  0.00  0.00    +0.000 C 
BRANCH  27  28
ATOM     28  C   UNL     1       6.433   5.226  19.039  0.00  0.00    +0.000 C 
BRANCH  28  29
ATOM     29  C   UNL     1       7.157   4.683  17.813  0.00  0.00    +0.000 C 
BRANCH  29  30
ATOM     30  C   UNL     1       7.269   5.714  16.693  0.00  0.00    +0.000 C 
BRANCH  30  31
ATOM     31  C   UNL     1       6.504   5.321  15.411  0.00  0.00    +0.000 C 
ATOM     32  C   UNL     1       6.207   3.815  15.385  0.00  0.00    +0.000 C 
BRANCH  31  34
ATOM     33  C   UNL     1       4.662   6.793  16.436  0.00  0.00    +0.000 C 
ATOM     34  C   UNL     1       5.191   6.098  15.190  0.00  0.00    +0.000 C 
ENDBRANCH  31  34
ENDBRANCH  30  31
ENDBRANCH  29  30
ENDBRANCH  28  29
ENDBRANCH  27  28
ENDBRANCH  26  27
ENDBRANCH  25  26
ENDBRANCH  24  25
ENDBRANCH  23  24
ENDBRANCH  22  23
ENDBRANCH  21  22
ENDBRANCH  20  21
ENDBRANCH  19  20
ENDBRANCH   1  19
TORSDOF 23
ENDMDL
