MODEL 1
REMARK VINA RESULT:      -8.3      0.000      0.000
REMARK  Name = 
REMARK  8 active torsions:
REMARK  status: ('A' for Active; 'I' for Inactive)
REMARK    1  A    between atoms: C_1  and  O_2
REMARK    2  A    between atoms: O_2  and  C_3
REMARK    3  A    between atoms: C_6  and  N_7
REMARK    4  A    between atoms: N_10  and  C_11
REMARK    5  A    between atoms: C_14  and  C_15
REMARK    6  A    between atoms: C_16  and  C_17
REMARK    7  A    between atoms: C_20  and  C_21
REMARK    8  A    between atoms: N_23  and  C_24
REMARK                            x       y       z     vdW  Elec       q    Type
REMARK                         _______ _______ _______ _____ _____    ______ ____
ROOT
ATOM      1  C   UNL     1       9.753  11.339  19.064  0.00  0.00    +0.000 A 
ATOM      2  C   UNL     1      11.033  11.822  18.823  0.00  0.00    +0.000 A 
ATOM      3  C   UNL     1      11.206  13.125  18.338  0.00  0.00    +0.000 A 
ATOM      4  C   UNL     1      10.117  13.997  18.167  0.00  0.00    +0.000 A 
ATOM      5  C   UNL     1      10.390  15.392  17.666  0.00  0.00    +0.000 C 
ATOM      6  C   UNL     1       8.813  13.549  18.479  0.00  0.00    +0.000 A 
ATOM      7  C   UNL     1       8.668  12.202  18.897  0.00  0.00    +0.000 A 
ENDROOT
BRANCH   1  11
ATOM      8  N   UNL     1       8.640   7.861  19.114  0.00  0.00    +0.000 N 
ATOM      9  C   UNL     1       8.737   9.188  18.657  0.00  0.00    +0.000 C 
ATOM     10  O   UNL     1       8.176   9.626  17.683  0.00  0.00    +0.000 OA
ATOM     11  N   UNL     1       9.553   9.980  19.463  0.00  0.00    +0.000 N 
ATOM     12  H   UNL     1       9.089   7.605  19.973  0.00  0.00    +0.000 HD
ATOM     13  H   UNL     1      10.342   9.513  19.877  0.00  0.00    +0.000 HD
BRANCH   8  17
ATOM     14  C   UNL     1       6.272   4.902  17.143  0.00  0.00    +0.000 A 
ATOM     15  C   UNL     1       6.666   6.064  16.482  0.00  0.00    +0.000 A 
ATOM     16  C   UNL     1       7.450   7.024  17.120  0.00  0.00    +0.000 A 
ATOM     17  C   UNL     1       7.861   6.869  18.442  0.00  0.00    +0.000 A 
ATOM     18  C   UNL     1       7.497   5.679  19.095  0.00  0.00    +0.000 A 
ATOM     19  C   UNL     1       6.692   4.718  18.462  0.00  0.00    +0.000 A 
BRANCH  14  21
ATOM     20  C   UNL     1       5.751   3.972  15.031  0.00  0.00    +0.000 C 
ATOM     21  O   UNL     1       5.501   4.027  16.434  0.00  0.00    +0.000 OA
ENDBRANCH  14  21
ENDBRANCH   8  17
ENDBRANCH   1  11
BRANCH   6  22
ATOM     22  C   UNL     1       7.618  14.433  18.482  0.00  0.00    +0.000 A 
ATOM     23  C   UNL     1       7.466  15.517  19.354  0.00  0.00    +0.000 A 
ATOM     24  C   UNL     1       6.282  16.241  19.439  0.00  0.00    +0.000 A 
ATOM     25  C   UNL     1       5.221  15.945  18.587  0.00  0.00    +0.000 A 
ATOM     26  C   UNL     1       5.363  14.920  17.654  0.00  0.00    +0.000 A 
ATOM     27  C   UNL     1       6.543  14.172  17.618  0.00  0.00    +0.000 A 
BRANCH  25  28
ATOM     28  C   UNL     1       4.017  16.797  18.694  0.00  0.00    +0.000 C 
ATOM     29  O   UNL     1       4.017  17.656  19.573  0.00  0.00    +0.000 OA
ATOM     30  N   UNL     1       2.945  16.503  17.860  0.00  0.00    +0.000 N 
ATOM     31  H   UNL     1       2.956  15.619  17.365  0.00  0.00    +0.000 HD
BRANCH  30  32
ATOM     32  C   UNL     1       1.717  17.201  17.904  0.00  0.00    +0.000 A 
ATOM     33  C   UNL     1       0.815  17.067  18.958  0.00  0.00    +0.000 A 
ATOM     34  C   UNL     1      -0.394  17.722  18.887  0.00  0.00    +0.000 A 
ATOM     35  N   UNL     1      -0.764  18.498  17.848  0.00  0.00    +0.000 NA
ATOM     36  C   UNL     1       0.133  18.630  16.846  0.00  0.00    +0.000 A 
ATOM     37  C   UNL     1       1.381  18.030  16.838  0.00  0.00    +0.000 A 
ENDBRANCH  30  32
ENDBRANCH  25  28
ENDBRANCH   6  22
TORSDOF 6
ENDMDL
MODEL 2
REMARK VINA RESULT:      -7.9      4.439      7.374
REMARK  Name = 
REMARK  8 active torsions:
REMARK  status: ('A' for Active; 'I' for Inactive)
REMARK    1  A    between atoms: C_1  and  O_2
REMARK    2  A    between atoms: O_2  and  C_3
REMARK    3  A    between atoms: C_6  and  N_7
REMARK    4  A    between atoms: N_10  and  C_11
REMARK    5  A    between atoms: C_14  and  C_15
REMARK    6  A    between atoms: C_16  and  C_17
REMARK    7  A    between atoms: C_20  and  C_21
REMARK    8  A    between atoms: N_23  and  C_24
REMARK                            x       y       z     vdW  Elec       q    Type
REMARK                         _______ _______ _______ _____ _____    ______ ____
ROOT
ATOM      1  C   UNL     1       0.604  11.080  20.446  0.00  0.00    +0.000 A 
ATOM      2  C   UNL     1      -0.647  11.391  19.929  0.00  0.00    +0.000 A 
ATOM      3  C   UNL     1      -0.883  12.663  19.393  0.00  0.00    +0.000 A 
ATOM      4  C   UNL     1       0.143  13.617  19.283  0.00  0.00    +0.000 A 
ATOM      5  C   UNL     1      -0.185  14.953  18.670  0.00  0.00    +0.000 C 
ATOM      6  C   UNL     1       1.443  13.293  19.734  0.00  0.00    +0.000 A 
ATOM      7  C   UNL     1       1.627  12.024  20.338  0.00  0.00    +0.000 A 
ENDROOT
BRANCH   1  11
ATOM      8  N   UNL     1       1.505   7.588  21.025  0.00  0.00    +0.000 N 
ATOM      9  C   UNL     1       1.270   8.765  20.290  0.00  0.00    +0.000 C 
ATOM     10  O   UNL     1       1.411   8.875  19.098  0.00  0.00    +0.000 OA
ATOM     11  N   UNL     1       0.833   9.822  21.088  0.00  0.00    +0.000 N 
ATOM     12  H   UNL     1       1.295   7.572  22.005  0.00  0.00    +0.000 HD
ATOM     13  H   UNL     1       1.218   9.856  22.016  0.00  0.00    +0.000 HD
BRANCH   8  17
ATOM     14  C   UNL     1       2.922   3.985  19.220  0.00  0.00    +0.000 A 
ATOM     15  C   UNL     1       1.938   3.955  20.207  0.00  0.00    +0.000 A 
ATOM     16  C   UNL     1       1.465   5.131  20.786  0.00  0.00    +0.000 A 
ATOM     17  C   UNL     1       1.961   6.379  20.416  0.00  0.00    +0.000 A 
ATOM     18  C   UNL     1       2.925   6.410  19.392  0.00  0.00    +0.000 A 
ATOM     19  C   UNL     1       3.417   5.227  18.819  0.00  0.00    +0.000 A 
BRANCH  14  21
ATOM     20  C   UNL     1       2.577   2.290  17.606  0.00  0.00    +0.000 C 
ATOM     21  O   UNL     1       3.321   2.780  18.719  0.00  0.00    +0.000 OA
ENDBRANCH  14  21
ENDBRANCH   8  17
ENDBRANCH   1  11
BRANCH   6  22
ATOM     22  C   UNL     1       2.628  14.166  19.525  0.00  0.00    +0.000 A 
ATOM     23  C   UNL     1       3.333  14.229  18.317  0.00  0.00    +0.000 A 
ATOM     24  C   UNL     1       4.521  14.939  18.188  0.00  0.00    +0.000 A 
ATOM     25  C   UNL     1       5.010  15.683  19.258  0.00  0.00    +0.000 A 
ATOM     26  C   UNL     1       4.295  15.705  20.454  0.00  0.00    +0.000 A 
ATOM     27  C   UNL     1       3.129  14.944  20.580  0.00  0.00    +0.000 A 
BRANCH  25  28
ATOM     28  C   UNL     1       6.246  16.461  19.026  0.00  0.00    +0.000 C 
ATOM     29  O   UNL     1       6.111  17.633  18.680  0.00  0.00    +0.000 OA
ATOM     30  N   UNL     1       7.458  15.788  19.125  0.00  0.00    +0.000 N 
ATOM     31  H   UNL     1       7.438  14.776  19.157  0.00  0.00    +0.000 HD
BRANCH  30  32
ATOM     32  C   UNL     1       8.705  16.401  18.870  0.00  0.00    +0.000 A 
ATOM     33  C   UNL     1       9.310  16.376  17.614  0.00  0.00    +0.000 A 
ATOM     34  C   UNL     1      10.562  16.929  17.467  0.00  0.00    +0.000 A 
ATOM     35  N   UNL     1      11.248  17.503  18.476  0.00  0.00    +0.000 NA
ATOM     36  C   UNL     1      10.636  17.533  19.679  0.00  0.00    +0.000 A 
ATOM     37  C   UNL     1       9.371  17.025  19.920  0.00  0.00    +0.000 A 
ENDBRANCH  30  32
ENDBRANCH  25  28
ENDBRANCH   6  22
TORSDOF 6
ENDMDL
MODEL 3
REMARK VINA RESULT:      -7.8      5.848     12.375
REMARK  Name = 
REMARK  8 active torsions:
REMARK  status: ('A' for Active; 'I' for Inactive)
REMARK    1  A    between atoms: C_1  and  O_2
REMARK    2  A    between atoms: O_2  and  C_3
REMARK    3  A    between atoms: C_6  and  N_7
REMARK    4  A    between atoms: N_10  and  C_11
REMARK    5  A    between atoms: C_14  and  C_15
REMARK    6  A    between atoms: C_16  and  C_17
REMARK    7  A    between atoms: C_20  and  C_21
REMARK    8  A    between atoms: N_23  and  C_24
REMARK                            x       y       z     vdW  Elec       q    Type
REMARK                         _______ _______ _______ _____ _____    ______ ____
ROOT
ATOM      1  C   UNL     1       0.491  13.937  19.835  0.00  0.00    +0.000 A 
ATOM      2  C   UNL     1      -0.893  14.020  19.746  0.00  0.00    +0.000 A 
ATOM      3  C   UNL     1      -1.629  12.920  19.288  0.00  0.00    +0.000 A 
ATOM      4  C   UNL     1      -1.011  11.693  18.992  0.00  0.00    +0.000 A 
ATOM      5  C   UNL     1      -1.877  10.549  18.531  0.00  0.00    +0.000 C 
ATOM      6  C   UNL     1       0.388  11.564  19.149  0.00  0.00    +0.000 A 
ATOM      7  C   UNL     1       1.109  12.719  19.544  0.00  0.00    +0.000 A 
ENDROOT
BRANCH   1  11
ATOM      8  N   UNL     1       2.438  16.331  21.788  0.00  0.00    +0.000 N 
ATOM      9  C   UNL     1       1.647  15.194  21.540  0.00  0.00    +0.000 C 
ATOM     10  O   UNL     1       1.308  14.393  22.375  0.00  0.00    +0.000 OA
ATOM     11  N   UNL     1       1.266  15.082  20.204  0.00  0.00    +0.000 N 
ATOM     12  H   UNL     1       2.613  16.978  21.043  0.00  0.00    +0.000 HD
ATOM     13  H   UNL     1       1.939  15.404  19.530  0.00  0.00    +0.000 HD
BRANCH   8  17
ATOM     14  C   UNL     1       3.915  17.252  25.689  0.00  0.00    +0.000 A 
ATOM     15  C   UNL     1       4.670  16.493  24.796  0.00  0.00    +0.000 A 
ATOM     16  C   UNL     1       4.195  16.204  23.518  0.00  0.00    +0.000 A 
ATOM     17  C   UNL     1       2.947  16.647  23.086  0.00  0.00    +0.000 A 
ATOM     18  C   UNL     1       2.203  17.444  23.973  0.00  0.00    +0.000 A 
ATOM     19  C   UNL     1       2.671  17.723  25.267  0.00  0.00    +0.000 A 
BRANCH  14  21
ATOM     20  C   UNL     1       4.863  16.313  27.643  0.00  0.00    +0.000 C 
ATOM     21  O   UNL     1       4.465  17.475  26.918  0.00  0.00    +0.000 OA
ENDBRANCH  14  21
ENDBRANCH   8  17
ENDBRANCH   1  11
BRANCH   6  22
ATOM     22  C   UNL     1       1.116  10.276  19.014  0.00  0.00    +0.000 A 
ATOM     23  C   UNL     1       1.784   9.890  17.846  0.00  0.00    +0.000 A 
ATOM     24  C   UNL     1       2.334   8.622  17.690  0.00  0.00    +0.000 A 
ATOM     25  C   UNL     1       2.297   7.712  18.743  0.00  0.00    +0.000 A 
ATOM     26  C   UNL     1       1.705   8.087  19.948  0.00  0.00    +0.000 A 
ATOM     27  C   UNL     1       1.115   9.348  20.067  0.00  0.00    +0.000 A 
BRANCH  25  28
ATOM     28  C   UNL     1       2.957   6.406  18.524  0.00  0.00    +0.000 C 
ATOM     29  O   UNL     1       3.949   6.395  17.799  0.00  0.00    +0.000 OA
ATOM     30  N   UNL     1       2.354   5.281  19.075  0.00  0.00    +0.000 N 
ATOM     31  H   UNL     1       1.408   5.372  19.427  0.00  0.00    +0.000 HD
BRANCH  30  32
ATOM     32  C   UNL     1       2.849   3.970  18.890  0.00  0.00    +0.000 A 
ATOM     33  C   UNL     1       2.444   3.158  17.831  0.00  0.00    +0.000 A 
ATOM     34  C   UNL     1       2.914   1.866  17.767  0.00  0.00    +0.000 A 
ATOM     35  N   UNL     1       3.755   1.330  18.675  0.00  0.00    +0.000 NA
ATOM     36  C   UNL     1       4.149   2.140  19.681  0.00  0.00    +0.000 A 
ATOM     37  C   UNL     1       3.750   3.459  19.818  0.00  0.00    +0.000 A 
ENDBRANCH  30  32
ENDBRANCH  25  28
ENDBRANCH   6  22
TORSDOF 6
ENDMDL
MODEL 4
REMARK VINA RESULT:      -7.7      4.451     10.935
REMARK  Name = 
REMARK  8 active torsions:
REMARK  status: ('A' for Active; 'I' for Inactive)
REMARK    1  A    between atoms: C_1  and  O_2
REMARK    2  A    between atoms: O_2  and  C_3
REMARK    3  A    between atoms: C_6  and  N_7
REMARK    4  A    between atoms: N_10  and  C_11
REMARK    5  A    between atoms: C_14  and  C_15
REMARK    6  A    between atoms: C_16  and  C_17
REMARK    7  A    between atoms: C_20  and  C_21
REMARK    8  A    between atoms: N_23  and  C_24
REMARK                            x       y       z     vdW  Elec       q    Type
REMARK                         _______ _______ _______ _____ _____    ______ ____
ROOT
ATOM      1  C   UNL     1       1.759  14.520  18.641  0.00  0.00    +0.000 A 
ATOM      2  C   UNL     1       0.585  15.124  19.076  0.00  0.00    +0.000 A 
ATOM      3  C   UNL     1      -0.517  14.334  19.426  0.00  0.00    +0.000 A 
ATOM      4  C   UNL     1      -0.443  12.931  19.432  0.00  0.00    +0.000 A 
ATOM      5  C   UNL     1      -1.665  12.153  19.848  0.00  0.00    +0.000 C 
ATOM      6  C   UNL     1       0.766  12.297  19.067  0.00  0.00    +0.000 A 
ATOM      7  C   UNL     1       1.837  13.126  18.648  0.00  0.00    +0.000 A 
ENDROOT
BRANCH   1  11
ATOM      8  N   UNL     1       5.112  15.914  18.254  0.00  0.00    +0.000 N 
ATOM      9  C   UNL     1       4.092  15.117  18.804  0.00  0.00    +0.000 C 
ATOM     10  O   UNL     1       4.235  14.347  19.721  0.00  0.00    +0.000 OA
ATOM     11  N   UNL     1       2.859  15.313  18.185  0.00  0.00    +0.000 N 
ATOM     12  H   UNL     1       4.884  16.575  17.536  0.00  0.00    +0.000 HD
ATOM     13  H   UNL     1       2.892  15.508  17.199  0.00  0.00    +0.000 HD
BRANCH   8  17
ATOM     14  C   UNL     1       9.158  15.809  19.621  0.00  0.00    +0.000 A 
ATOM     15  C   UNL     1       8.253  16.740  20.128  0.00  0.00    +0.000 A 
ATOM     16  C   UNL     1       6.928  16.766  19.692  0.00  0.00    +0.000 A 
ATOM     17  C   UNL     1       6.460  15.876  18.728  0.00  0.00    +0.000 A 
ATOM     18  C   UNL     1       7.363  14.913  18.247  0.00  0.00    +0.000 A 
ATOM     19  C   UNL     1       8.702  14.895  18.670  0.00  0.00    +0.000 A 
BRANCH  14  21
ATOM     20  C   UNL     1      11.309  14.826  19.687  0.00  0.00    +0.000 C 
ATOM     21  O   UNL     1      10.431  15.869  20.107  0.00  0.00    +0.000 OA
ENDBRANCH  14  21
ENDBRANCH   8  17
ENDBRANCH   1  11
BRANCH   6  22
ATOM     22  C   UNL     1       0.997  10.833  19.188  0.00  0.00    +0.000 A 
ATOM     23  C   UNL     1       0.771  10.115  20.367  0.00  0.00    +0.000 A 
ATOM     24  C   UNL     1       1.131   8.778  20.503  0.00  0.00    +0.000 A 
ATOM     25  C   UNL     1       1.667   8.087  19.420  0.00  0.00    +0.000 A 
ATOM     26  C   UNL     1       1.839   8.751  18.206  0.00  0.00    +0.000 A 
ATOM     27  C   UNL     1       1.517  10.108  18.105  0.00  0.00    +0.000 A 
BRANCH  25  28
ATOM     28  C   UNL     1       1.968   6.653  19.621  0.00  0.00    +0.000 C 
ATOM     29  O   UNL     1       1.776   6.195  20.745  0.00  0.00    +0.000 OA
ATOM     30  N   UNL     1       2.529   5.958  18.556  0.00  0.00    +0.000 N 
ATOM     31  H   UNL     1       2.883   6.494  17.772  0.00  0.00    +0.000 HD
BRANCH  30  32
ATOM     32  C   UNL     1       2.917   4.602  18.637  0.00  0.00    +0.000 A 
ATOM     33  C   UNL     1       4.100   4.195  19.253  0.00  0.00    +0.000 A 
ATOM     34  C   UNL     1       4.443   2.862  19.221  0.00  0.00    +0.000 A 
ATOM     35  N   UNL     1       3.694   1.912  18.624  0.00  0.00    +0.000 NA
ATOM     36  C   UNL     1       2.543   2.325  18.050  0.00  0.00    +0.000 A 
ATOM     37  C   UNL     1       2.103   3.638  18.051  0.00  0.00    +0.000 A 
ENDBRANCH  30  32
ENDBRANCH  25  28
ENDBRANCH   6  22
TORSDOF 6
ENDMDL
MODEL 5
REMARK VINA RESULT:      -7.7      4.474     11.150
REMARK  Name = 
REMARK  8 active torsions:
REMARK  status: ('A' for Active; 'I' for Inactive)
REMARK    1  A    between atoms: C_1  and  O_2
REMARK    2  A    between atoms: O_2  and  C_3
REMARK    3  A    between atoms: C_6  and  N_7
REMARK    4  A    between atoms: N_10  and  C_11
REMARK    5  A    between atoms: C_14  and  C_15
REMARK    6  A    between atoms: C_16  and  C_17
REMARK    7  A    between atoms: C_20  and  C_21
REMARK    8  A    between atoms: N_23  and  C_24
REMARK                            x       y       z     vdW  Elec       q    Type
REMARK                         _______ _______ _______ _____ _____    ______ ____
ROOT
ATOM      1  C   UNL     1       1.634  14.285  18.575  0.00  0.00    +0.000 A 
ATOM      2  C   UNL     1       0.395  14.778  18.965  0.00  0.00    +0.000 A 
ATOM      3  C   UNL     1      -0.631  13.890  19.313  0.00  0.00    +0.000 A 
ATOM      4  C   UNL     1      -0.417  12.502  19.363  0.00  0.00    +0.000 A 
ATOM      5  C   UNL     1      -1.564  11.616  19.773  0.00  0.00    +0.000 C 
ATOM      6  C   UNL     1       0.859  11.984  19.043  0.00  0.00    +0.000 A 
ATOM      7  C   UNL     1       1.851  12.906  18.625  0.00  0.00    +0.000 A 
ENDROOT
BRANCH   1  11
ATOM      8  N   UNL     1       4.853  15.965  18.187  0.00  0.00    +0.000 N 
ATOM      9  C   UNL     1       3.907  15.079  18.735  0.00  0.00    +0.000 C 
ATOM     10  O   UNL     1       4.120  14.319  19.646  0.00  0.00    +0.000 OA
ATOM     11  N   UNL     1       2.659  15.172  18.121  0.00  0.00    +0.000 N 
ATOM     12  H   UNL     1       4.566  16.609  17.474  0.00  0.00    +0.000 HD
ATOM     13  H   UNL     1       2.672  15.376  17.136  0.00  0.00    +0.000 HD
BRANCH   8  17
ATOM     14  C   UNL     1       8.898  16.201  19.541  0.00  0.00    +0.000 A 
ATOM     15  C   UNL     1       7.913  17.032  20.072  0.00  0.00    +0.000 A 
ATOM     16  C   UNL     1       6.590  16.946  19.641  0.00  0.00    +0.000 A 
ATOM     17  C   UNL     1       6.200  16.041  18.657  0.00  0.00    +0.000 A 
ATOM     18  C   UNL     1       7.187  15.176  18.149  0.00  0.00    +0.000 A 
ATOM     19  C   UNL     1       8.523  15.272  18.569  0.00  0.00    +0.000 A 
BRANCH  14  21
ATOM     20  C   UNL     1      11.216  15.876  19.198  0.00  0.00    +0.000 C 
ATOM     21  O   UNL     1      10.162  16.367  20.025  0.00  0.00    +0.000 OA
ENDBRANCH  14  21
ENDBRANCH   8  17
ENDBRANCH   1  11
BRANCH   6  22
ATOM     22  C   UNL     1       1.233  10.556  19.212  0.00  0.00    +0.000 A 
ATOM     23  C   UNL     1       1.711   9.758  18.167  0.00  0.00    +0.000 A 
ATOM     24  C   UNL     1       1.916   8.390  18.311  0.00  0.00    +0.000 A 
ATOM     25  C   UNL     1       1.719   7.782  19.548  0.00  0.00    +0.000 A 
ATOM     26  C   UNL     1       1.315   8.559  20.632  0.00  0.00    +0.000 A 
ATOM     27  C   UNL     1       1.066   9.923  20.454  0.00  0.00    +0.000 A 
BRANCH  25  28
ATOM     28  C   UNL     1       2.017   6.336  19.640  0.00  0.00    +0.000 C 
ATOM     29  O   UNL     1       1.807   5.790  20.721  0.00  0.00    +0.000 OA
ATOM     30  N   UNL     1       2.595   5.727  18.532  0.00  0.00    +0.000 N 
ATOM     31  H   UNL     1       2.962   6.323  17.800  0.00  0.00    +0.000 HD
BRANCH  30  32
ATOM     32  C   UNL     1       2.982   4.369  18.512  0.00  0.00    +0.000 A 
ATOM     33  C   UNL     1       2.273   3.397  17.806  0.00  0.00    +0.000 A 
ATOM     34  C   UNL     1       2.672   2.082  17.901  0.00  0.00    +0.000 A 
ATOM     35  N   UNL     1       3.721   1.671  18.643  0.00  0.00    +0.000 NA
ATOM     36  C   UNL     1       4.404   2.631  19.302  0.00  0.00    +0.000 A 
ATOM     37  C   UNL     1       4.095   3.979  19.250  0.00  0.00    +0.000 A 
ENDBRANCH  30  32
ENDBRANCH  25  28
ENDBRANCH   6  22
TORSDOF 6
ENDMDL
MODEL 6
REMARK VINA RESULT:      -7.7      4.745     11.227
REMARK  Name = 
REMARK  8 active torsions:
REMARK  status: ('A' for Active; 'I' for Inactive)
REMARK    1  A    between atoms: C_1  and  O_2
REMARK    2  A    between atoms: O_2  and  C_3
REMARK    3  A    between atoms: C_6  and  N_7
REMARK    4  A    between atoms: N_10  and  C_11
REMARK    5  A    between atoms: C_14  and  C_15
REMARK    6  A    between atoms: C_16  and  C_17
REMARK    7  A    between atoms: C_20  and  C_21
REMARK    8  A    between atoms: N_23  and  C_24
REMARK                            x       y       z     vdW  Elec       q    Type
REMARK                         _______ _______ _______ _____ _____    ______ ____
ROOT
ATOM      1  C   UNL     1       1.458  14.054  19.899  0.00  0.00    +0.000 A 
ATOM      2  C   UNL     1       0.639  14.604  20.878  0.00  0.00    +0.000 A 
ATOM      3  C   UNL     1      -0.189  13.772  21.642  0.00  0.00    +0.000 A 
ATOM      4  C   UNL     1      -0.155  12.374  21.505  0.00  0.00    +0.000 A 
ATOM      5  C   UNL     1      -1.058  11.548  22.383  0.00  0.00    +0.000 C 
ATOM      6  C   UNL     1       0.727  11.789  20.568  0.00  0.00    +0.000 A 
ATOM      7  C   UNL     1       1.496  12.665  19.761  0.00  0.00    +0.000 A 
ENDROOT
BRANCH   1  11
ATOM      8  N   UNL     1       4.281  15.783  18.358  0.00  0.00    +0.000 N 
ATOM      9  C   UNL     1       3.607  14.961  19.280  0.00  0.00    +0.000 C 
ATOM     10  O   UNL     1       4.130  14.374  20.193  0.00  0.00    +0.000 OA
ATOM     11  N   UNL     1       2.235  14.897  19.043  0.00  0.00    +0.000 N 
ATOM     12  H   UNL     1       3.752  16.286  17.671  0.00  0.00    +0.000 HD
ATOM     13  H   UNL     1       1.956  14.933  18.077  0.00  0.00    +0.000 HD
BRANCH   8  17
ATOM     14  C   UNL     1       8.506  16.412  18.443  0.00  0.00    +0.000 A 
ATOM     15  C   UNL     1       7.630  17.341  19.003  0.00  0.00    +0.000 A 
ATOM     16  C   UNL     1       6.252  17.129  18.989  0.00  0.00    +0.000 A 
ATOM     17  C   UNL     1       5.694  15.995  18.405  0.00  0.00    +0.000 A 
ATOM     18  C   UNL     1       6.580  15.041  17.874  0.00  0.00    +0.000 A 
ATOM     19  C   UNL     1       7.967  15.258  17.872  0.00  0.00    +0.000 A 
BRANCH  14  21
ATOM     20  C   UNL     1      10.716  15.771  17.893  0.00  0.00    +0.000 C 
ATOM     21  O   UNL     1       9.835  16.713  18.503  0.00  0.00    +0.000 OA
ENDBRANCH  14  21
ENDBRANCH   8  17
ENDBRANCH   1  11
BRANCH   6  22
ATOM     22  C   UNL     1       0.953  10.324  20.453  0.00  0.00    +0.000 A 
ATOM     23  C   UNL     1       0.982   9.463  21.555  0.00  0.00    +0.000 A 
ATOM     24  C   UNL     1       1.339   8.123  21.441  0.00  0.00    +0.000 A 
ATOM     25  C   UNL     1       1.607   7.577  20.189  0.00  0.00    +0.000 A 
ATOM     26  C   UNL     1       1.515   8.388  19.059  0.00  0.00    +0.000 A 
ATOM     27  C   UNL     1       1.204   9.743  19.200  0.00  0.00    +0.000 A 
BRANCH  25  28
ATOM     28  C   UNL     1       1.919   6.132  20.140  0.00  0.00    +0.000 C 
ATOM     29  O   UNL     1       1.784   5.496  21.183  0.00  0.00    +0.000 OA
ATOM     30  N   UNL     1       2.427   5.624  18.950  0.00  0.00    +0.000 N 
ATOM     31  H   UNL     1       2.741   6.283  18.247  0.00  0.00    +0.000 HD
BRANCH  30  32
ATOM     32  C   UNL     1       2.820   4.277  18.791  0.00  0.00    +0.000 A 
ATOM     33  C   UNL     1       3.937   3.740  19.431  0.00  0.00    +0.000 A 
ATOM     34  C   UNL     1       4.296   2.438  19.161  0.00  0.00    +0.000 A 
ATOM     35  N   UNL     1       3.626   1.639  18.307  0.00  0.00    +0.000 NA
ATOM     36  C   UNL     1       2.536   2.173  17.712  0.00  0.00    +0.000 A 
ATOM     37  C   UNL     1       2.083   3.462  17.937  0.00  0.00    +0.000 A 
ENDBRANCH  30  32
ENDBRANCH  25  28
ENDBRANCH   6  22
TORSDOF 6
ENDMDL
MODEL 7
REMARK VINA RESULT:      -7.7      4.495      7.208
REMARK  Name = 
REMARK  8 active torsions:
REMARK  status: ('A' for Active; 'I' for Inactive)
REMARK    1  A    between atoms: C_1  and  O_2
REMARK    2  A    between atoms: O_2  and  C_3
REMARK    3  A    between atoms: C_6  and  N_7
REMARK    4  A    between atoms: N_10  and  C_11
REMARK    5  A    between atoms: C_14  and  C_15
REMARK    6  A    between atoms: C_16  and  C_17
REMARK    7  A    between atoms: C_20  and  C_21
REMARK    8  A    between atoms: N_23  and  C_24
REMARK                            x       y       z     vdW  Elec       q    Type
REMARK                         _______ _______ _______ _____ _____    ______ ____
ROOT
ATOM      1  C   UNL     1       0.495  10.901  20.704  0.00  0.00    +0.000 A 
ATOM      2  C   UNL     1      -0.763  11.334  20.305  0.00  0.00    +0.000 A 
ATOM      3  C   UNL     1      -0.939  12.649  19.858  0.00  0.00    +0.000 A 
ATOM      4  C   UNL     1       0.147  13.530  19.719  0.00  0.00    +0.000 A 
ATOM      5  C   UNL     1      -0.121  14.921  19.207  0.00  0.00    +0.000 C 
ATOM      6  C   UNL     1       1.448  13.086  20.047  0.00  0.00    +0.000 A 
ATOM      7  C   UNL     1       1.578  11.772  20.565  0.00  0.00    +0.000 A 
ENDROOT
BRANCH   1  11
ATOM      8  N   UNL     1       1.362   7.372  21.068  0.00  0.00    +0.000 N 
ATOM      9  C   UNL     1       1.187   8.607  20.417  0.00  0.00    +0.000 C 
ATOM     10  O   UNL     1       1.435   8.816  19.255  0.00  0.00    +0.000 OA
ATOM     11  N   UNL     1       0.673   9.593  21.256  0.00  0.00    +0.000 N 
ATOM     12  H   UNL     1       1.064   7.274  22.021  0.00  0.00    +0.000 HD
ATOM     13  H   UNL     1       0.972   9.549  22.215  0.00  0.00    +0.000 HD
BRANCH   8  17
ATOM     14  C   UNL     1       2.863   3.915  19.057  0.00  0.00    +0.000 A 
ATOM     15  C   UNL     1       3.525   5.138  18.974  0.00  0.00    +0.000 A 
ATOM     16  C   UNL     1       3.043   6.264  19.641  0.00  0.00    +0.000 A 
ATOM     17  C   UNL     1       1.879   6.217  20.405  0.00  0.00    +0.000 A 
ATOM     18  C   UNL     1       1.234   4.973  20.520  0.00  0.00    +0.000 A 
ATOM     19  C   UNL     1       1.706   3.842  19.835  0.00  0.00    +0.000 A 
BRANCH  14  21
ATOM     20  C   UNL     1       4.252   3.232  17.268  0.00  0.00    +0.000 C 
ATOM     21  O   UNL     1       3.410   2.876  18.363  0.00  0.00    +0.000 OA
ENDBRANCH  14  21
ENDBRANCH   8  17
ENDBRANCH   1  11
BRANCH   6  22
ATOM     22  C   UNL     1       2.678  13.880  19.792  0.00  0.00    +0.000 A 
ATOM     23  C   UNL     1       3.321  14.638  20.777  0.00  0.00    +0.000 A 
ATOM     24  C   UNL     1       4.383  15.488  20.484  0.00  0.00    +0.000 A 
ATOM     25  C   UNL     1       4.891  15.548  19.189  0.00  0.00    +0.000 A 
ATOM     26  C   UNL     1       4.324  14.751  18.197  0.00  0.00    +0.000 A 
ATOM     27  C   UNL     1       3.226  13.941  18.501  0.00  0.00    +0.000 A 
BRANCH  25  28
ATOM     28  C   UNL     1       6.060  16.427  18.968  0.00  0.00    +0.000 C 
ATOM     29  O   UNL     1       5.831  17.590  18.639  0.00  0.00    +0.000 OA
ATOM     30  N   UNL     1       7.322  15.853  19.058  0.00  0.00    +0.000 N 
ATOM     31  H   UNL     1       7.385  14.842  19.074  0.00  0.00    +0.000 HD
BRANCH  30  32
ATOM     32  C   UNL     1       8.516  16.568  18.810  0.00  0.00    +0.000 A 
ATOM     33  C   UNL     1       9.024  17.512  19.703  0.00  0.00    +0.000 A 
ATOM     34  C   UNL     1      10.150  18.222  19.351  0.00  0.00    +0.000 A 
ATOM     35  N   UNL     1      10.802  18.057  18.182  0.00  0.00    +0.000 NA
ATOM     36  C   UNL     1      10.304  17.125  17.341  0.00  0.00    +0.000 A 
ATOM     37  C   UNL     1       9.193  16.346  17.615  0.00  0.00    +0.000 A 
ENDBRANCH  30  32
ENDBRANCH  25  28
ENDBRANCH   6  22
TORSDOF 6
ENDMDL
MODEL 8
REMARK VINA RESULT:      -7.7      4.403     11.116
REMARK  Name = 
REMARK  8 active torsions:
REMARK  status: ('A' for Active; 'I' for Inactive)
REMARK    1  A    between atoms: C_1  and  O_2
REMARK    2  A    between atoms: O_2  and  C_3
REMARK    3  A    between atoms: C_6  and  N_7
REMARK    4  A    between atoms: N_10  and  C_11
REMARK    5  A    between atoms: C_14  and  C_15
REMARK    6  A    between atoms: C_16  and  C_17
REMARK    7  A    between atoms: C_20  and  C_21
REMARK    8  A    between atoms: N_23  and  C_24
REMARK                            x       y       z     vdW  Elec       q    Type
REMARK                         _______ _______ _______ _____ _____    ______ ____
ROOT
ATOM      1  C   UNL     1       2.032  14.557  18.470  0.00  0.00    +0.000 A 
ATOM      2  C   UNL     1       0.847  15.169  18.860  0.00  0.00    +0.000 A 
ATOM      3  C   UNL     1      -0.281  14.388  19.141  0.00  0.00    +0.000 A 
ATOM      4  C   UNL     1      -0.227  12.984  19.122  0.00  0.00    +0.000 A 
ATOM      5  C   UNL     1      -1.477  12.215  19.463  0.00  0.00    +0.000 C 
ATOM      6  C   UNL     1       0.991  12.340  18.803  0.00  0.00    +0.000 A 
ATOM      7  C   UNL     1       2.091  13.162  18.453  0.00  0.00    +0.000 A 
ENDROOT
BRANCH   1  11
ATOM      8  N   UNL     1       5.350  16.084  18.423  0.00  0.00    +0.000 N 
ATOM      9  C   UNL     1       4.281  15.311  18.915  0.00  0.00    +0.000 C 
ATOM     10  O   UNL     1       4.297  14.688  19.947  0.00  0.00    +0.000 OA
ATOM     11  N   UNL     1       3.163  15.343  18.084  0.00  0.00    +0.000 N 
ATOM     12  H   UNL     1       5.221  16.623  17.588  0.00  0.00    +0.000 HD
ATOM     13  H   UNL     1       3.354  15.399  17.098  0.00  0.00    +0.000 HD
BRANCH   8  17
ATOM     14  C   UNL     1       9.110  16.422  20.422  0.00  0.00    +0.000 A 
ATOM     15  C   UNL     1       8.065  17.299  20.705  0.00  0.00    +0.000 A 
ATOM     16  C   UNL     1       6.832  17.181  20.064  0.00  0.00    +0.000 A 
ATOM     17  C   UNL     1       6.599  16.195  19.108  0.00  0.00    +0.000 A 
ATOM     18  C   UNL     1       7.641  15.286  18.851  0.00  0.00    +0.000 A 
ATOM     19  C   UNL     1       8.889  15.413  19.482  0.00  0.00    +0.000 A 
BRANCH  14  21
ATOM     20  C   UNL     1      10.343  17.810  21.887  0.00  0.00    +0.000 C 
ATOM     21  O   UNL     1      10.277  16.624  21.099  0.00  0.00    +0.000 OA
ENDBRANCH  14  21
ENDBRANCH   8  17
ENDBRANCH   1  11
BRANCH   6  22
ATOM     22  C   UNL     1       1.197  10.871  18.905  0.00  0.00    +0.000 A 
ATOM     23  C   UNL     1       0.870  10.127  20.044  0.00  0.00    +0.000 A 
ATOM     24  C   UNL     1       1.205   8.783  20.173  0.00  0.00    +0.000 A 
ATOM     25  C   UNL     1       1.818   8.113  19.119  0.00  0.00    +0.000 A 
ATOM     26  C   UNL     1       2.091   8.803  17.939  0.00  0.00    +0.000 A 
ATOM     27  C   UNL     1       1.793  10.166  17.848  0.00  0.00    +0.000 A 
BRANCH  25  28
ATOM     28  C   UNL     1       2.087   6.670  19.307  0.00  0.00    +0.000 C 
ATOM     29  O   UNL     1       1.887   6.206  20.428  0.00  0.00    +0.000 OA
ATOM     30  N   UNL     1       2.630   5.973  18.235  0.00  0.00    +0.000 N 
ATOM     31  H   UNL     1       2.995   6.507  17.455  0.00  0.00    +0.000 HD
BRANCH  30  32
ATOM     32  C   UNL     1       2.988   4.607  18.303  0.00  0.00    +0.000 A 
ATOM     33  C   UNL     1       2.159   3.590  17.833  0.00  0.00    +0.000 A 
ATOM     34  C   UNL     1       2.548   2.280  18.008  0.00  0.00    +0.000 A 
ATOM     35  N   UNL     1       3.697   1.916  18.612  0.00  0.00    +0.000 NA
ATOM     36  C   UNL     1       4.494   2.918  19.044  0.00  0.00    +0.000 A 
ATOM     37  C   UNL     1       4.201   4.263  18.893  0.00  0.00    +0.000 A 
ENDBRANCH  30  32
ENDBRANCH  25  28
ENDBRANCH   6  22
TORSDOF 6
ENDMDL
MODEL 9
REMARK VINA RESULT:      -7.7      4.830     11.414
REMARK  Name = 
REMARK  8 active torsions:
REMARK  status: ('A' for Active; 'I' for Inactive)
REMARK    1  A    between atoms: C_1  and  O_2
REMARK    2  A    between atoms: O_2  and  C_3
REMARK    3  A    between atoms: C_6  and  N_7
REMARK    4  A    between atoms: N_10  and  C_11
REMARK    5  A    between atoms: C_14  and  C_15
REMARK    6  A    between atoms: C_16  and  C_17
REMARK    7  A    between atoms: C_20  and  C_21
REMARK    8  A    between atoms: N_23  and  C_24
REMARK                            x       y       z     vdW  Elec       q    Type
REMARK                         _______ _______ _______ _____ _____    ______ ____
ROOT
ATOM      1  C   UNL     1       2.211  14.383  19.070  0.00  0.00    +0.000 A 
ATOM      2  C   UNL     1       0.968  14.988  18.926  0.00  0.00    +0.000 A 
ATOM      3  C   UNL     1      -0.163  14.203  18.669  0.00  0.00    +0.000 A 
ATOM      4  C   UNL     1      -0.093  12.799  18.636  0.00  0.00    +0.000 A 
ATOM      5  C   UNL     1      -1.360  12.026  18.380  0.00  0.00    +0.000 C 
ATOM      6  C   UNL     1       1.149  12.161  18.856  0.00  0.00    +0.000 A 
ATOM      7  C   UNL     1       2.285  12.990  19.040  0.00  0.00    +0.000 A 
ENDROOT
BRANCH   1  11
ATOM      8  N   UNL     1       5.146  15.983  20.541  0.00  0.00    +0.000 N 
ATOM      9  C   UNL     1       3.970  15.210  20.499  0.00  0.00    +0.000 C 
ATOM     10  O   UNL     1       3.487  14.637  21.444  0.00  0.00    +0.000 OA
ATOM     11  N   UNL     1       3.390  15.177  19.233  0.00  0.00    +0.000 N 
ATOM     12  H   UNL     1       5.435  16.479  19.719  0.00  0.00    +0.000 HD
ATOM     13  H   UNL     1       4.032  15.190  18.458  0.00  0.00    +0.000 HD
BRANCH   8  17
ATOM     14  C   UNL     1       7.390  16.497  24.139  0.00  0.00    +0.000 A 
ATOM     15  C   UNL     1       7.664  15.446  23.266  0.00  0.00    +0.000 A 
ATOM     16  C   UNL     1       6.941  15.285  22.084  0.00  0.00    +0.000 A 
ATOM     17  C   UNL     1       5.912  16.156  21.735  0.00  0.00    +0.000 A 
ATOM     18  C   UNL     1       5.662  17.238  22.597  0.00  0.00    +0.000 A 
ATOM     19  C   UNL     1       6.376  17.393  23.796  0.00  0.00    +0.000 A 
BRANCH  14  21
ATOM     20  C   UNL     1       9.111  15.524  25.439  0.00  0.00    +0.000 C 
ATOM     21  O   UNL     1       8.149  16.564  25.271  0.00  0.00    +0.000 OA
ENDBRANCH  14  21
ENDBRANCH   8  17
ENDBRANCH   1  11
BRANCH   6  22
ATOM     22  C   UNL     1       1.305  10.689  18.995  0.00  0.00    +0.000 A 
ATOM     23  C   UNL     1       0.970   9.988  20.158  0.00  0.00    +0.000 A 
ATOM     24  C   UNL     1       1.259   8.637  20.320  0.00  0.00    +0.000 A 
ATOM     25  C   UNL     1       1.832   7.917  19.275  0.00  0.00    +0.000 A 
ATOM     26  C   UNL     1       2.111   8.566  18.074  0.00  0.00    +0.000 A 
ATOM     27  C   UNL     1       1.859   9.935  17.949  0.00  0.00    +0.000 A 
BRANCH  25  28
ATOM     28  C   UNL     1       2.053   6.472  19.499  0.00  0.00    +0.000 C 
ATOM     29  O   UNL     1       1.760   6.027  20.607  0.00  0.00    +0.000 OA
ATOM     30  N   UNL     1       2.657   5.748  18.478  0.00  0.00    +0.000 N 
ATOM     31  H   UNL     1       3.090   6.264  17.721  0.00  0.00    +0.000 HD
BRANCH  30  32
ATOM     32  C   UNL     1       2.977   4.376  18.588  0.00  0.00    +0.000 A 
ATOM     33  C   UNL     1       4.010   3.909  19.400  0.00  0.00    +0.000 A 
ATOM     34  C   UNL     1       4.308   2.565  19.391  0.00  0.00    +0.000 A 
ATOM     35  N   UNL     1       3.653   1.660  18.636  0.00  0.00    +0.000 NA
ATOM     36  C   UNL     1       2.644   2.131  17.871  0.00  0.00    +0.000 A 
ATOM     37  C   UNL     1       2.255   3.459  17.831  0.00  0.00    +0.000 A 
ENDBRANCH  30  32
ENDBRANCH  25  28
ENDBRANCH   6  22
TORSDOF 6
ENDMDL
