MODEL 1
REMARK VINA RESULT:      -3.9      0.000      0.000
REMARK  Name = 
REMARK  9 active torsions:
REMARK  status: ('A' for Active; 'I' for Inactive)
REMARK    1  A    between atoms: N_1  and  C_2
REMARK    2  A    between atoms: C_2  and  C_3
REMARK    3  A    between atoms: C_3  and  C_4
REMARK    4  A    between atoms: C_4  and  C_5
REMARK    5  A    between atoms: C_5  and  N_6
REMARK    6  A    between atoms: N_6  and  C_7
REMARK    7  A    between atoms: C_7  and  C_8
REMARK    8  A    between atoms: C_8  and  C_9
REMARK    9  A    between atoms: C_9  and  N_10
REMARK                            x       y       z     vdW  Elec       q    Type
REMARK                         _______ _______ _______ _____ _____    ______ ____
ROOT
ATOM      1  N   UNL     1       2.552   5.015  18.428  0.00  0.00    +0.000 NA
ATOM      2  H   UNL     1       1.673   5.241  17.904  0.00  0.00    +0.000 HD
ENDROOT
BRANCH   1   3
ATOM      3  C   UNL     1       2.619   5.862  19.623  0.00  0.00    +0.000 C 
BRANCH   3   4
ATOM      4  C   UNL     1       2.006   5.143  20.825  0.00  0.00    +0.000 C 
BRANCH   4   5
ATOM      5  C   UNL     1       1.179   3.937  20.359  0.00  0.00    +0.000 C 
BRANCH   5   6
ATOM      6  C   UNL     1       1.331   2.740  21.302  0.00  0.00    +0.000 C 
BRANCH   6   7
ATOM      7  N   UNL     1       2.678   2.679  21.860  0.00  0.00    +0.000 NA
ATOM      8  H   UNL     1       2.746   1.829  22.463  0.00  0.00    +0.000 HD
ATOM      9  H   UNL     1       2.835   3.516  22.467  0.00  0.00    +0.000 HD
ENDBRANCH   6   7
ENDBRANCH   5   6
ENDBRANCH   4   5
ENDBRANCH   3   4
ENDBRANCH   1   3
BRANCH   1  10
ATOM     10  C   UNL     1       3.701   5.294  17.559  0.00  0.00    +0.000 C 
BRANCH  10  11
ATOM     11  C   UNL     1       4.581   4.048  17.412  0.00  0.00    +0.000 C 
BRANCH  11  12
ATOM     12  C   UNL     1       4.029   2.876  18.232  0.00  0.00    +0.000 C 
BRANCH  12  13
ATOM     13  N   UNL     1       4.767   2.720  19.482  0.00  0.00    +0.000 NA
ATOM     14  H   UNL     1       4.349   1.935  20.034  0.00  0.00    +0.000 HD
ATOM     15  H   UNL     1       4.670   3.597  20.040  0.00  0.00    +0.000 HD
ENDBRANCH  12  13
ENDBRANCH  11  12
ENDBRANCH  10  11
ENDBRANCH   1  10
TORSDOF 9
ENDMDL
MODEL 2
REMARK VINA RESULT:      -3.8      1.628      2.067
REMARK  Name = 
REMARK  9 active torsions:
REMARK  status: ('A' for Active; 'I' for Inactive)
REMARK    1  A    between atoms: N_1  and  C_2
REMARK    2  A    between atoms: C_2  and  C_3
REMARK    3  A    between atoms: C_3  and  C_4
REMARK    4  A    between atoms: C_4  and  C_5
REMARK    5  A    between atoms: C_5  and  N_6
REMARK    6  A    between atoms: N_6  and  C_7
REMARK    7  A    between atoms: C_7  and  C_8
REMARK    8  A    between atoms: C_8  and  C_9
REMARK    9  A    between atoms: C_9  and  N_10
REMARK                            x       y       z     vdW  Elec       q    Type
REMARK                         _______ _______ _______ _____ _____    ______ ____
ROOT
ATOM      1  N   UNL     1       3.081   5.086  20.483  0.00  0.00    +0.000 NA
ATOM      2  H   UNL     1       3.219   4.065  20.296  0.00  0.00    +0.000 HD
ENDROOT
BRANCH   1   3
ATOM      3  C   UNL     1       1.642   5.364  20.540  0.00  0.00    +0.000 C 
BRANCH   3   4
ATOM      4  C   UNL     1       0.840   4.074  20.369  0.00  0.00    +0.000 C 
BRANCH   4   5
ATOM      5  C   UNL     1       1.783   2.889  20.121  0.00  0.00    +0.000 C 
BRANCH   5   6
ATOM      6  C   UNL     1       1.540   2.239  18.756  0.00  0.00    +0.000 C 
BRANCH   6   7
ATOM      7  N   UNL     1       2.684   1.431  18.348  0.00  0.00    +0.000 NA
ATOM      8  H   UNL     1       3.531   1.783  18.849  0.00  0.00    +0.000 HD
ATOM      9  H   UNL     1       2.844   1.557  17.322  0.00  0.00    +0.000 HD
ENDBRANCH   6   7
ENDBRANCH   5   6
ENDBRANCH   4   5
ENDBRANCH   3   4
ENDBRANCH   1   3
BRANCH   1  10
ATOM     10  C   UNL     1       3.689   5.850  19.388  0.00  0.00    +0.000 C 
BRANCH  10  11
ATOM     11  C   UNL     1       5.112   5.355  19.110  0.00  0.00    +0.000 C 
BRANCH  11  12
ATOM     12  C   UNL     1       5.101   3.986  18.417  0.00  0.00    +0.000 C 
BRANCH  12  13
ATOM     13  N   UNL     1       5.278   2.909  19.386  0.00  0.00    +0.000 NA
ATOM     14  H   UNL     1       5.374   3.318  20.344  0.00  0.00    +0.000 HD
ATOM     15  H   UNL     1       6.161   2.398  19.162  0.00  0.00    +0.000 HD
ENDBRANCH  12  13
ENDBRANCH  11  12
ENDBRANCH  10  11
ENDBRANCH   1  10
TORSDOF 9
ENDMDL
MODEL 3
REMARK VINA RESULT:      -3.7      2.311      4.580
REMARK  Name = 
REMARK  9 active torsions:
REMARK  status: ('A' for Active; 'I' for Inactive)
REMARK    1  A    between atoms: N_1  and  C_2
REMARK    2  A    between atoms: C_2  and  C_3
REMARK    3  A    between atoms: C_3  and  C_4
REMARK    4  A    between atoms: C_4  and  C_5
REMARK    5  A    between atoms: C_5  and  N_6
REMARK    6  A    between atoms: N_6  and  C_7
REMARK    7  A    between atoms: C_7  and  C_8
REMARK    8  A    between atoms: C_8  and  C_9
REMARK    9  A    between atoms: C_9  and  N_10
REMARK                            x       y       z     vdW  Elec       q    Type
REMARK                         _______ _______ _______ _____ _____    ______ ____
ROOT
ATOM      1  N   UNL     1       4.870   3.935  16.935  0.00  0.00    +0.000 NA
ATOM      2  H   UNL     1       5.576   3.879  17.707  0.00  0.00    +0.000 HD
ENDROOT
BRANCH   1   3
ATOM      3  C   UNL     1       5.456   4.680  15.816  0.00  0.00    +0.000 C 
BRANCH   3   4
ATOM      4  C   UNL     1       6.728   5.403  16.260  0.00  0.00    +0.000 C 
BRANCH   4   5
ATOM      5  C   UNL     1       7.432   4.610  17.369  0.00  0.00    +0.000 C 
BRANCH   5   6
ATOM      6  C   UNL     1       7.618   5.446  18.640  0.00  0.00    +0.000 C 
BRANCH   6   7
ATOM      7  N   UNL     1       6.498   5.264  19.557  0.00  0.00    +0.000 NA
ATOM      8  H   UNL     1       5.950   4.430  19.245  0.00  0.00    +0.000 HD
ATOM      9  H   UNL     1       5.871   6.098  19.501  0.00  0.00    +0.000 HD
ENDBRANCH   6   7
ENDBRANCH   5   6
ENDBRANCH   4   5
ENDBRANCH   3   4
ENDBRANCH   1   3
BRANCH   1  10
ATOM     10  C   UNL     1       3.685   4.641  17.433  0.00  0.00    +0.000 C 
BRANCH  10  11
ATOM     11  C   UNL     1       3.167   3.986  18.718  0.00  0.00    +0.000 C 
BRANCH  11  12
ATOM     12  C   UNL     1       3.742   2.575  18.895  0.00  0.00    +0.000 C 
BRANCH  12  13
ATOM     13  N   UNL     1       5.005   2.614  19.628  0.00  0.00    +0.000 NA
ATOM     14  H   UNL     1       5.411   1.650  19.666  0.00  0.00    +0.000 HD
ATOM     15  H   UNL     1       4.815   2.925  20.606  0.00  0.00    +0.000 HD
ENDBRANCH  12  13
ENDBRANCH  11  12
ENDBRANCH  10  11
ENDBRANCH   1  10
TORSDOF 9
ENDMDL
MODEL 4
REMARK VINA RESULT:      -3.7      2.814      4.136
REMARK  Name = 
REMARK  9 active torsions:
REMARK  status: ('A' for Active; 'I' for Inactive)
REMARK    1  A    between atoms: N_1  and  C_2
REMARK    2  A    between atoms: C_2  and  C_3
REMARK    3  A    between atoms: C_3  and  C_4
REMARK    4  A    between atoms: C_4  and  C_5
REMARK    5  A    between atoms: C_5  and  N_6
REMARK    6  A    between atoms: N_6  and  C_7
REMARK    7  A    between atoms: C_7  and  C_8
REMARK    8  A    between atoms: C_8  and  C_9
REMARK    9  A    between atoms: C_9  and  N_10
REMARK                            x       y       z     vdW  Elec       q    Type
REMARK                         _______ _______ _______ _____ _____    ______ ____
ROOT
ATOM      1  N   UNL     1       6.103   3.667  16.663  0.00  0.00    +0.000 NA
ATOM      2  H   UNL     1       6.272   2.981  15.890  0.00  0.00    +0.000 HD
ENDROOT
BRANCH   1   3
ATOM      3  C   UNL     1       4.864   4.398  16.381  0.00  0.00    +0.000 C 
BRANCH   3   4
ATOM      4  C   UNL     1       3.873   4.239  17.534  0.00  0.00    +0.000 C 
BRANCH   4   5
ATOM      5  C   UNL     1       3.331   2.804  17.578  0.00  0.00    +0.000 C 
BRANCH   5   6
ATOM      6  C   UNL     1       3.660   2.108  18.902  0.00  0.00    +0.000 C 
BRANCH   6   7
ATOM      7  N   UNL     1       4.923   2.592  19.449  0.00  0.00    +0.000 NA
ATOM      8  H   UNL     1       5.144   3.512  19.005  0.00  0.00    +0.000 HD
ATOM      9  H   UNL     1       5.685   1.922  19.195  0.00  0.00    +0.000 HD
ENDBRANCH   6   7
ENDBRANCH   5   6
ENDBRANCH   4   5
ENDBRANCH   3   4
ENDBRANCH   1   3
BRANCH   1  10
ATOM     10  C   UNL     1       7.230   4.605  16.714  0.00  0.00    +0.000 C 
BRANCH  10  11
ATOM     11  C   UNL     1       7.448   5.109  18.144  0.00  0.00    +0.000 C 
BRANCH  11  12
ATOM     12  C   UNL     1       7.700   6.622  18.169  0.00  0.00    +0.000 C 
BRANCH  12  13
ATOM     13  N   UNL     1       7.320   7.236  16.900  0.00  0.00    +0.000 NA
ATOM     14  H   UNL     1       7.200   8.266  17.037  0.00  0.00    +0.000 HD
ATOM     15  H   UNL     1       6.402   6.840  16.598  0.00  0.00    +0.000 HD
ENDBRANCH  12  13
ENDBRANCH  11  12
ENDBRANCH  10  11
ENDBRANCH   1  10
TORSDOF 9
ENDMDL
MODEL 5
REMARK VINA RESULT:      -3.7      1.719      4.108
REMARK  Name = 
REMARK  9 active torsions:
REMARK  status: ('A' for Active; 'I' for Inactive)
REMARK    1  A    between atoms: N_1  and  C_2
REMARK    2  A    between atoms: C_2  and  C_3
REMARK    3  A    between atoms: C_3  and  C_4
REMARK    4  A    between atoms: C_4  and  C_5
REMARK    5  A    between atoms: C_5  and  N_6
REMARK    6  A    between atoms: N_6  and  C_7
REMARK    7  A    between atoms: C_7  and  C_8
REMARK    8  A    between atoms: C_8  and  C_9
REMARK    9  A    between atoms: C_9  and  N_10
REMARK                            x       y       z     vdW  Elec       q    Type
REMARK                         _______ _______ _______ _____ _____    ______ ____
ROOT
ATOM      1  N   UNL     1       2.238   2.302  19.008  0.00  0.00    +0.000 NA
ATOM      2  H   UNL     1       2.744   2.358  19.924  0.00  0.00    +0.000 HD
ENDROOT
BRANCH   1   3
ATOM      3  C   UNL     1       3.226   2.317  17.925  0.00  0.00    +0.000 C 
BRANCH   3   4
ATOM      4  C   UNL     1       3.523   3.751  17.489  0.00  0.00    +0.000 C 
BRANCH   4   5
ATOM      5  C   UNL     1       4.954   4.143  17.882  0.00  0.00    +0.000 C 
BRANCH   5   6
ATOM      6  C   UNL     1       4.981   5.048  19.117  0.00  0.00    +0.000 C 
BRANCH   6   7
ATOM      7  N   UNL     1       6.340   5.198  19.627  0.00  0.00    +0.000 NA
ATOM      8  H   UNL     1       6.286   5.541  20.613  0.00  0.00    +0.000 HD
ATOM      9  H   UNL     1       6.839   5.924  19.062  0.00  0.00    +0.000 HD
ENDBRANCH   6   7
ENDBRANCH   5   6
ENDBRANCH   4   5
ENDBRANCH   3   4
ENDBRANCH   1   3
BRANCH   1  10
ATOM     10  C   UNL     1       1.354   3.466  18.888  0.00  0.00    +0.000 C 
BRANCH  10  11
ATOM     11  C   UNL     1       0.983   4.007  20.273  0.00  0.00    +0.000 C 
BRANCH  11  12
ATOM     12  C   UNL     1       2.109   3.766  21.286  0.00  0.00    +0.000 C 
BRANCH  12  13
ATOM     13  N   UNL     1       1.827   2.596  22.113  0.00  0.00    +0.000 NA
ATOM     14  H   UNL     1       2.470   2.593  22.938  0.00  0.00    +0.000 HD
ATOM     15  H   UNL     1       2.015   1.736  21.552  0.00  0.00    +0.000 HD
ENDBRANCH  12  13
ENDBRANCH  11  12
ENDBRANCH  10  11
ENDBRANCH   1  10
TORSDOF 9
ENDMDL
MODEL 6
REMARK VINA RESULT:      -3.7      2.255      4.856
REMARK  Name = 
REMARK  9 active torsions:
REMARK  status: ('A' for Active; 'I' for Inactive)
REMARK    1  A    between atoms: N_1  and  C_2
REMARK    2  A    between atoms: C_2  and  C_3
REMARK    3  A    between atoms: C_3  and  C_4
REMARK    4  A    between atoms: C_4  and  C_5
REMARK    5  A    between atoms: C_5  and  N_6
REMARK    6  A    between atoms: N_6  and  C_7
REMARK    7  A    between atoms: C_7  and  C_8
REMARK    8  A    between atoms: C_8  and  C_9
REMARK    9  A    between atoms: C_9  and  N_10
REMARK                            x       y       z     vdW  Elec       q    Type
REMARK                         _______ _______ _______ _____ _____    ______ ____
ROOT
ATOM      1  N   UNL     1       5.049   2.834  19.339  0.00  0.00    +0.000 NA
ATOM      2  H   UNL     1       5.943   2.962  19.869  0.00  0.00    +0.000 HD
ENDROOT
BRANCH   1   3
ATOM      3  C   UNL     1       4.664   4.121  18.750  0.00  0.00    +0.000 C 
BRANCH   3   4
ATOM      4  C   UNL     1       4.793   4.075  17.228  0.00  0.00    +0.000 C 
BRANCH   4   5
ATOM      5  C   UNL     1       5.713   5.201  16.736  0.00  0.00    +0.000 C 
BRANCH   5   6
ATOM      6  C   UNL     1       7.004   4.657  16.119  0.00  0.00    +0.000 C 
BRANCH   6   7
ATOM      7  N   UNL     1       7.933   4.212  17.153  0.00  0.00    +0.000 NA
ATOM      8  H   UNL     1       7.384   3.987  18.013  0.00  0.00    +0.000 HD
ATOM      9  H   UNL     1       8.587   4.994  17.385  0.00  0.00    +0.000 HD
ENDBRANCH   6   7
ENDBRANCH   5   6
ENDBRANCH   4   5
ENDBRANCH   3   4
ENDBRANCH   1   3
BRANCH   1  10
ATOM     10  C   UNL     1       4.010   2.385  20.271  0.00  0.00    +0.000 C 
BRANCH  10  11
ATOM     11  C   UNL     1       2.736   3.221  20.102  0.00  0.00    +0.000 C 
BRANCH  11  12
ATOM     12  C   UNL     1       1.623   2.409  19.428  0.00  0.00    +0.000 C 
BRANCH  12  13
ATOM     13  N   UNL     1       2.155   1.601  18.334  0.00  0.00    +0.000 NA
ATOM     14  H   UNL     1       2.512   0.695  18.716  0.00  0.00    +0.000 HD
ATOM     15  H   UNL     1       2.959   2.109  17.901  0.00  0.00    +0.000 HD
ENDBRANCH  12  13
ENDBRANCH  11  12
ENDBRANCH  10  11
ENDBRANCH   1  10
TORSDOF 9
ENDMDL
MODEL 7
REMARK VINA RESULT:      -3.7      1.751      1.929
REMARK  Name = 
REMARK  9 active torsions:
REMARK  status: ('A' for Active; 'I' for Inactive)
REMARK    1  A    between atoms: N_1  and  C_2
REMARK    2  A    between atoms: C_2  and  C_3
REMARK    3  A    between atoms: C_3  and  C_4
REMARK    4  A    between atoms: C_4  and  C_5
REMARK    5  A    between atoms: C_5  and  N_6
REMARK    6  A    between atoms: N_6  and  C_7
REMARK    7  A    between atoms: C_7  and  C_8
REMARK    8  A    between atoms: C_8  and  C_9
REMARK    9  A    between atoms: C_9  and  N_10
REMARK                            x       y       z     vdW  Elec       q    Type
REMARK                         _______ _______ _______ _____ _____    ______ ____
ROOT
ATOM      1  N   UNL     1       4.079   5.473  19.776  0.00  0.00    +0.000 NA
ATOM      2  H   UNL     1       4.029   4.466  20.063  0.00  0.00    +0.000 HD
ENDROOT
BRANCH   1   3
ATOM      3  C   UNL     1       2.714   6.000  19.675  0.00  0.00    +0.000 C 
BRANCH   3   4
ATOM      4  C   UNL     1       1.797   5.314  20.687  0.00  0.00    +0.000 C 
BRANCH   4   5
ATOM      5  C   UNL     1       1.155   4.067  20.065  0.00  0.00    +0.000 C 
BRANCH   5   6
ATOM      6  C   UNL     1       1.339   2.828  20.946  0.00  0.00    +0.000 C 
BRANCH   6   7
ATOM      7  N   UNL     1       2.195   3.121  22.091  0.00  0.00    +0.000 NA
ATOM      8  H   UNL     1       2.324   4.157  22.149  0.00  0.00    +0.000 HD
ATOM      9  H   UNL     1       3.135   2.689  21.936  0.00  0.00    +0.000 HD
ENDBRANCH   6   7
ENDBRANCH   5   6
ENDBRANCH   4   5
ENDBRANCH   3   4
ENDBRANCH   1   3
BRANCH   1  10
ATOM     10  C   UNL     1       4.740   5.556  18.469  0.00  0.00    +0.000 C 
BRANCH  10  11
ATOM     11  C   UNL     1       5.679   4.364  18.263  0.00  0.00    +0.000 C 
BRANCH  11  12
ATOM     12  C   UNL     1       6.779   4.690  17.244  0.00  0.00    +0.000 C 
BRANCH  12  13
ATOM     13  N   UNL     1       8.065   4.149  17.673  0.00  0.00    +0.000 NA
ATOM     14  H   UNL     1       8.311   4.543  18.611  0.00  0.00    +0.000 HD
ATOM     15  H   UNL     1       8.799   4.449  16.993  0.00  0.00    +0.000 HD
ENDBRANCH  12  13
ENDBRANCH  11  12
ENDBRANCH  10  11
ENDBRANCH   1  10
TORSDOF 9
ENDMDL
MODEL 8
REMARK VINA RESULT:      -3.6      1.801      2.766
REMARK  Name = 
REMARK  9 active torsions:
REMARK  status: ('A' for Active; 'I' for Inactive)
REMARK    1  A    between atoms: N_1  and  C_2
REMARK    2  A    between atoms: C_2  and  C_3
REMARK    3  A    between atoms: C_3  and  C_4
REMARK    4  A    between atoms: C_4  and  C_5
REMARK    5  A    between atoms: C_5  and  N_6
REMARK    6  A    between atoms: N_6  and  C_7
REMARK    7  A    between atoms: C_7  and  C_8
REMARK    8  A    between atoms: C_8  and  C_9
REMARK    9  A    between atoms: C_9  and  N_10
REMARK                            x       y       z     vdW  Elec       q    Type
REMARK                         _______ _______ _______ _____ _____    ______ ____
ROOT
ATOM      1  N   UNL     1       2.200   1.658  18.573  0.00  0.00    +0.000 NA
ATOM      2  H   UNL     1       1.778   0.944  17.932  0.00  0.00    +0.000 HD
ENDROOT
BRANCH   1   3
ATOM      3  C   UNL     1       1.321   2.831  18.613  0.00  0.00    +0.000 C 
BRANCH   3   4
ATOM      4  C   UNL     1       0.764   3.036  20.022  0.00  0.00    +0.000 C 
BRANCH   4   5
ATOM      5  C   UNL     1       1.794   3.758  20.902  0.00  0.00    +0.000 C 
BRANCH   5   6
ATOM      6  C   UNL     1       1.869   5.254  20.585  0.00  0.00    +0.000 C 
BRANCH   6   7
ATOM      7  N   UNL     1       3.218   5.638  20.182  0.00  0.00    +0.000 NA
ATOM      8  H   UNL     1       3.143   6.343  19.414  0.00  0.00    +0.000 HD
ATOM      9  H   UNL     1       3.712   4.799  19.800  0.00  0.00    +0.000 HD
ENDBRANCH   6   7
ENDBRANCH   5   6
ENDBRANCH   4   5
ENDBRANCH   3   4
ENDBRANCH   1   3
BRANCH   1  10
ATOM     10  C   UNL     1       3.515   2.042  18.049  0.00  0.00    +0.000 C 
BRANCH  10  11
ATOM     11  C   UNL     1       3.432   3.384  17.314  0.00  0.00    +0.000 C 
BRANCH  11  12
ATOM     12  C   UNL     1       4.797   4.081  17.270  0.00  0.00    +0.000 C 
BRANCH  12  13
ATOM     13  N   UNL     1       5.692   3.418  16.326  0.00  0.00    +0.000 NA
ATOM     14  H   UNL     1       6.537   4.015  16.174  0.00  0.00    +0.000 HD
ATOM     15  H   UNL     1       5.198   3.315  15.412  0.00  0.00    +0.000 HD
ENDBRANCH  12  13
ENDBRANCH  11  12
ENDBRANCH  10  11
ENDBRANCH   1  10
TORSDOF 9
ENDMDL
MODEL 9
REMARK VINA RESULT:      -3.6      2.364      3.117
REMARK  Name = 
REMARK  9 active torsions:
REMARK  status: ('A' for Active; 'I' for Inactive)
REMARK    1  A    between atoms: N_1  and  C_2
REMARK    2  A    between atoms: C_2  and  C_3
REMARK    3  A    between atoms: C_3  and  C_4
REMARK    4  A    between atoms: C_4  and  C_5
REMARK    5  A    between atoms: C_5  and  N_6
REMARK    6  A    between atoms: N_6  and  C_7
REMARK    7  A    between atoms: C_7  and  C_8
REMARK    8  A    between atoms: C_8  and  C_9
REMARK    9  A    between atoms: C_9  and  N_10
REMARK                            x       y       z     vdW  Elec       q    Type
REMARK                         _______ _______ _______ _____ _____    ______ ____
ROOT
ATOM      1  N   UNL     1       5.123   3.368  17.912  0.00  0.00    +0.000 NA
ATOM      2  H   UNL     1       5.491   3.320  16.933  0.00  0.00    +0.000 HD
ENDROOT
BRANCH   1   3
ATOM      3  C   UNL     1       3.659   3.435  17.862  0.00  0.00    +0.000 C 
BRANCH   3   4
ATOM      4  C   UNL     1       3.045   2.121  18.345  0.00  0.00    +0.000 C 
BRANCH   4   5
ATOM      5  C   UNL     1       2.092   2.379  19.520  0.00  0.00    +0.000 C 
BRANCH   5   6
ATOM      6  C   UNL     1       2.849   2.718  20.808  0.00  0.00    +0.000 C 
BRANCH   6   7
ATOM      7  N   UNL     1       1.947   2.744  21.955  0.00  0.00    +0.000 NA
ATOM      8  H   UNL     1       1.559   3.710  22.046  0.00  0.00    +0.000 HD
ATOM      9  H   UNL     1       2.490   2.533  22.822  0.00  0.00    +0.000 HD
ENDBRANCH   6   7
ENDBRANCH   5   6
ENDBRANCH   4   5
ENDBRANCH   3   4
ENDBRANCH   1   3
BRANCH   1  10
ATOM     10  C   UNL     1       5.652   4.576  18.554  0.00  0.00    +0.000 C 
BRANCH  10  11
ATOM     11  C   UNL     1       7.066   4.880  18.049  0.00  0.00    +0.000 C 
BRANCH  11  12
ATOM     12  C   UNL     1       7.762   5.922  18.934  0.00  0.00    +0.000 C 
BRANCH  12  13
ATOM     13  N   UNL     1       7.878   5.445  20.310  0.00  0.00    +0.000 NA
ATOM     14  H   UNL     1       7.827   4.400  20.318  0.00  0.00    +0.000 HD
ATOM     15  H   UNL     1       7.072   5.814  20.862  0.00  0.00    +0.000 HD
ENDBRANCH  12  13
ENDBRANCH  11  12
ENDBRANCH  10  11
ENDBRANCH   1  10
TORSDOF 9
ENDMDL
