MODEL 1
REMARK VINA RESULT:      -8.3      0.000      0.000
REMARK  Name = 
REMARK  5 active torsions:
REMARK  status: ('A' for Active; 'I' for Inactive)
REMARK    1  A    between atoms: C_1  and  C_2
REMARK    2  A    between atoms: C_2  and  C_3
REMARK    3  A    between atoms: C_4  and  C_5
REMARK    4  A    between atoms: C_5  and  N_6
REMARK    5  A    between atoms: N_14  and  C_15
REMARK                            x       y       z     vdW  Elec       q    Type
REMARK                         _______ _______ _______ _____ _____    ______ ____
ROOT
ATOM      1  N   UNL     1       6.442   4.967  16.558  0.00  0.00    +0.000 N 
ATOM      2  C   UNL     1       7.484   4.760  17.459  0.00  0.00    +0.000 C 
ATOM      3  O   UNL     1       8.337   3.882  17.363  0.00  0.00    +0.000 OA
ATOM      4  C   UNL     1       7.514   5.761  18.598  0.00  0.00    +0.000 C 
ATOM      5  C   UNL     1       7.621   7.185  18.042  0.00  0.00    +0.000 C 
ATOM      6  C   UNL     1       6.809   7.375  16.762  0.00  0.00    +0.000 C 
ATOM      7  C   UNL     1       5.751   6.271  16.615  0.00  0.00    +0.000 C 
ATOM      8  C   UNL     1       4.719   6.398  17.761  0.00  0.00    +0.000 C 
ATOM      9  N   UNL     1       4.988   5.557  18.927  0.00  0.00    +0.000 N 
ATOM     10  C   UNL     1       6.321   5.540  19.546  0.00  0.00    +0.000 C 
ENDROOT
BRANCH   9  11
ATOM     11  C   UNL     1       4.228   4.381  19.011  0.00  0.00    +0.000 A 
ATOM     12  N   UNL     1       4.845   3.233  19.383  0.00  0.00    +0.000 NA
ATOM     13  C   UNL     1       4.111   2.102  19.480  0.00  0.00    +0.000 A 
ATOM     14  C   UNL     1       2.768   2.023  19.161  0.00  0.00    +0.000 A 
ATOM     15  C   UNL     1       2.138   3.179  18.732  0.00  0.00    +0.000 A 
ATOM     16  C   UNL     1       2.868   4.362  18.672  0.00  0.00    +0.000 A 
ATOM     17  F   UNL     1       2.246   5.474  18.239  0.00  0.00    +0.000 F 
ENDBRANCH   9  11
BRANCH   1  18
ATOM     18  C   UNL     1       6.244   4.099  15.398  0.00  0.00    +0.000 C 
BRANCH  18  22
ATOM     19  C   UNL     1       7.529   4.999  11.814  0.00  0.00    +0.000 C 
ATOM     20  C   UNL     1       6.733   4.299  12.883  0.00  0.00    +0.000 C 
ATOM     21  C   UNL     1       5.736   3.272  12.435  0.00  0.00    +0.000 C 
ATOM     22  C   UNL     1       6.928   4.646  14.173  0.00  0.00    +0.000 C 
ENDBRANCH  18  22
ENDBRANCH   1  18
TORSDOF 3
ENDMDL
MODEL 2
REMARK VINA RESULT:      -8.1      2.912      6.068
REMARK  Name = 
REMARK  5 active torsions:
REMARK  status: ('A' for Active; 'I' for Inactive)
REMARK    1  A    between atoms: C_1  and  C_2
REMARK    2  A    between atoms: C_2  and  C_3
REMARK    3  A    between atoms: C_4  and  C_5
REMARK    4  A    between atoms: C_5  and  N_6
REMARK    5  A    between atoms: N_14  and  C_15
REMARK                            x       y       z     vdW  Elec       q    Type
REMARK                         _______ _______ _______ _____ _____    ______ ____
ROOT
ATOM      1  N   UNL     1       2.400   4.826  19.583  0.00  0.00    +0.000 N 
ATOM      2  C   UNL     1       2.602   3.748  20.443  0.00  0.00    +0.000 C 
ATOM      3  O   UNL     1       2.695   3.828  21.665  0.00  0.00    +0.000 OA
ATOM      4  C   UNL     1       2.665   2.407  19.738  0.00  0.00    +0.000 C 
ATOM      5  C   UNL     1       1.374   2.169  18.947  0.00  0.00    +0.000 C 
ATOM      6  C   UNL     1       0.840   3.447  18.302  0.00  0.00    +0.000 C 
ATOM      7  C   UNL     1       1.939   4.518  18.215  0.00  0.00    +0.000 C 
ATOM      8  C   UNL     1       3.053   4.028  17.259  0.00  0.00    +0.000 C 
ATOM      9  N   UNL     1       4.180   3.366  17.916  0.00  0.00    +0.000 N 
ATOM     10  C   UNL     1       3.950   2.296  18.898  0.00  0.00    +0.000 C 
ENDROOT
BRANCH   9  11
ATOM     11  C   UNL     1       5.327   4.154  18.085  0.00  0.00    +0.000 A 
ATOM     12  N   UNL     1       5.606   4.642  19.319  0.00  0.00    +0.000 NA
ATOM     13  C   UNL     1       6.721   5.388  19.487  0.00  0.00    +0.000 A 
ATOM     14  C   UNL     1       7.573   5.746  18.459  0.00  0.00    +0.000 A 
ATOM     15  C   UNL     1       7.271   5.295  17.185  0.00  0.00    +0.000 A 
ATOM     16  C   UNL     1       6.154   4.486  17.003  0.00  0.00    +0.000 A 
ATOM     17  F   UNL     1       5.865   4.068  15.757  0.00  0.00    +0.000 F 
ENDBRANCH   9  11
BRANCH   1  18
ATOM     18  C   UNL     1       2.319   6.200  20.077  0.00  0.00    +0.000 C 
BRANCH  18  22
ATOM     19  C   UNL     1       2.000   9.271  17.675  0.00  0.00    +0.000 C 
ATOM     20  C   UNL     1       1.828   8.440  18.919  0.00  0.00    +0.000 C 
ATOM     21  C   UNL     1       1.105   9.071  20.071  0.00  0.00    +0.000 C 
ATOM     22  C   UNL     1       2.353   7.197  18.950  0.00  0.00    +0.000 C 
ENDBRANCH  18  22
ENDBRANCH   1  18
TORSDOF 3
ENDMDL
MODEL 3
REMARK VINA RESULT:      -7.9      0.952      1.163
REMARK  Name = 
REMARK  5 active torsions:
REMARK  status: ('A' for Active; 'I' for Inactive)
REMARK    1  A    between atoms: C_1  and  C_2
REMARK    2  A    between atoms: C_2  and  C_3
REMARK    3  A    between atoms: C_4  and  C_5
REMARK    4  A    between atoms: C_5  and  N_6
REMARK    5  A    between atoms: N_14  and  C_15
REMARK                            x       y       z     vdW  Elec       q    Type
REMARK                         _______ _______ _______ _____ _____    ______ ____
ROOT
ATOM      1  N   UNL     1       6.922   5.011  16.446  0.00  0.00    +0.000 N 
ATOM      2  C   UNL     1       7.597   4.804  17.647  0.00  0.00    +0.000 C 
ATOM      3  O   UNL     1       8.403   3.901  17.857  0.00  0.00    +0.000 OA
ATOM      4  C   UNL     1       7.279   5.835  18.712  0.00  0.00    +0.000 C 
ATOM      5  C   UNL     1       7.613   7.240  18.197  0.00  0.00    +0.000 C 
ATOM      6  C   UNL     1       7.280   7.413  16.716  0.00  0.00    +0.000 C 
ATOM      7  C   UNL     1       6.296   6.332  16.245  0.00  0.00    +0.000 C 
ATOM      8  C   UNL     1       4.946   6.519  16.978  0.00  0.00    +0.000 C 
ATOM      9  N   UNL     1       4.783   5.706  18.183  0.00  0.00    +0.000 N 
ATOM     10  C   UNL     1       5.833   5.672  19.211  0.00  0.00    +0.000 C 
ENDROOT
BRANCH   9  11
ATOM     11  C   UNL     1       3.999   4.552  18.031  0.00  0.00    +0.000 A 
ATOM     12  N   UNL     1       4.616   3.345  18.006  0.00  0.00    +0.000 NA
ATOM     13  C   UNL     1       3.861   2.231  17.875  0.00  0.00    +0.000 A 
ATOM     14  C   UNL     1       2.489   2.244  17.700  0.00  0.00    +0.000 A 
ATOM     15  C   UNL     1       1.854   3.474  17.673  0.00  0.00    +0.000 A 
ATOM     16  C   UNL     1       2.610   4.627  17.854  0.00  0.00    +0.000 A 
ATOM     17  F   UNL     1       1.981   5.817  17.811  0.00  0.00    +0.000 F 
ENDBRANCH   9  11
BRANCH   1  18
ATOM     18  C   UNL     1       7.093   4.114  15.303  0.00  0.00    +0.000 C 
BRANCH  18  22
ATOM     19  C   UNL     1       4.426   3.853  12.453  0.00  0.00    +0.000 C 
ATOM     20  C   UNL     1       5.781   3.856  13.109  0.00  0.00    +0.000 C 
ATOM     21  C   UNL     1       6.967   3.570  12.236  0.00  0.00    +0.000 C 
ATOM     22  C   UNL     1       5.862   4.078  14.438  0.00  0.00    +0.000 C 
ENDBRANCH  18  22
ENDBRANCH   1  18
TORSDOF 3
ENDMDL
MODEL 4
REMARK VINA RESULT:      -7.6      2.612      5.763
REMARK  Name = 
REMARK  5 active torsions:
REMARK  status: ('A' for Active; 'I' for Inactive)
REMARK    1  A    between atoms: C_1  and  C_2
REMARK    2  A    between atoms: C_2  and  C_3
REMARK    3  A    between atoms: C_4  and  C_5
REMARK    4  A    between atoms: C_5  and  N_6
REMARK    5  A    between atoms: N_14  and  C_15
REMARK                            x       y       z     vdW  Elec       q    Type
REMARK                         _______ _______ _______ _____ _____    ______ ____
ROOT
ATOM      1  N   UNL     1       2.592   4.399  19.575  0.00  0.00    +0.000 N 
ATOM      2  C   UNL     1       2.876   3.194  20.215  0.00  0.00    +0.000 C 
ATOM      3  O   UNL     1       3.269   3.086  21.374  0.00  0.00    +0.000 OA
ATOM      4  C   UNL     1       2.622   1.971  19.356  0.00  0.00    +0.000 C 
ATOM      5  C   UNL     1       1.161   1.950  18.893  0.00  0.00    +0.000 C 
ATOM      6  C   UNL     1       0.630   3.345  18.568  0.00  0.00    +0.000 C 
ATOM      7  C   UNL     1       1.786   4.332  18.341  0.00  0.00    +0.000 C 
ATOM      8  C   UNL     1       2.578   3.906  17.081  0.00  0.00    +0.000 C 
ATOM      9  N   UNL     1       3.750   3.072  17.344  0.00  0.00    +0.000 N 
ATOM     10  C   UNL     1       3.648   1.890  18.211  0.00  0.00    +0.000 C 
ENDROOT
BRANCH   9  11
ATOM     11  C   UNL     1       4.984   3.740  17.315  0.00  0.00    +0.000 A 
ATOM     12  N   UNL     1       5.602   4.018  18.489  0.00  0.00    +0.000 NA
ATOM     13  C   UNL     1       6.798   4.647  18.461  0.00  0.00    +0.000 A 
ATOM     14  C   UNL     1       7.413   5.087  17.304  0.00  0.00    +0.000 A 
ATOM     15  C   UNL     1       6.767   4.852  16.101  0.00  0.00    +0.000 A 
ATOM     16  C   UNL     1       5.558   4.165  16.108  0.00  0.00    +0.000 A 
ATOM     17  F   UNL     1       4.935   3.957  14.934  0.00  0.00    +0.000 F 
ENDBRANCH   9  11
BRANCH   1  18
ATOM     18  C   UNL     1       2.782   5.687  20.241  0.00  0.00    +0.000 C 
BRANCH  18  22
ATOM     19  C   UNL     1       1.824   8.579  17.787  0.00  0.00    +0.000 C 
ATOM     20  C   UNL     1       2.655   7.494  18.420  0.00  0.00    +0.000 C 
ATOM     21  C   UNL     1       3.998   7.217  17.811  0.00  0.00    +0.000 C 
ATOM     22  C   UNL     1       2.147   6.811  19.466  0.00  0.00    +0.000 C 
ENDBRANCH  18  22
ENDBRANCH   1  18
TORSDOF 3
ENDMDL
MODEL 5
REMARK VINA RESULT:      -7.6      1.211      1.460
REMARK  Name = 
REMARK  5 active torsions:
REMARK  status: ('A' for Active; 'I' for Inactive)
REMARK    1  A    between atoms: C_1  and  C_2
REMARK    2  A    between atoms: C_2  and  C_3
REMARK    3  A    between atoms: C_4  and  C_5
REMARK    4  A    between atoms: C_5  and  N_6
REMARK    5  A    between atoms: N_14  and  C_15
REMARK                            x       y       z     vdW  Elec       q    Type
REMARK                         _______ _______ _______ _____ _____    ______ ____
ROOT
ATOM      1  N   UNL     1       6.679   5.040  16.515  0.00  0.00    +0.000 N 
ATOM      2  C   UNL     1       7.506   4.727  17.592  0.00  0.00    +0.000 C 
ATOM      3  O   UNL     1       8.312   3.800  17.617  0.00  0.00    +0.000 OA
ATOM      4  C   UNL     1       7.362   5.673  18.768  0.00  0.00    +0.000 C 
ATOM      5  C   UNL     1       7.656   7.110  18.324  0.00  0.00    +0.000 C 
ATOM      6  C   UNL     1       7.129   7.408  16.921  0.00  0.00    +0.000 C 
ATOM      7  C   UNL     1       6.063   6.382  16.506  0.00  0.00    +0.000 C 
ATOM      8  C   UNL     1       4.831   6.526  17.431  0.00  0.00    +0.000 C 
ATOM      9  N   UNL     1       4.814   5.620  18.579  0.00  0.00    +0.000 N 
ATOM     10  C   UNL     1       5.993   5.489  19.447  0.00  0.00    +0.000 C 
ENDROOT
BRANCH   9  11
ATOM     11  C   UNL     1       3.989   4.493  18.446  0.00  0.00    +0.000 A 
ATOM     12  N   UNL     1       2.840   4.608  17.735  0.00  0.00    +0.000 NA
ATOM     13  C   UNL     1       2.052   3.518  17.592  0.00  0.00    +0.000 A 
ATOM     14  C   UNL     1       2.311   2.295  18.181  0.00  0.00    +0.000 A 
ATOM     15  C   UNL     1       3.457   2.179  18.951  0.00  0.00    +0.000 A 
ATOM     16  C   UNL     1       4.303   3.277  19.070  0.00  0.00    +0.000 A 
ATOM     17  F   UNL     1       5.405   3.154  19.832  0.00  0.00    +0.000 F 
ENDBRANCH   9  11
BRANCH   1  18
ATOM     18  C   UNL     1       6.671   4.237  15.292  0.00  0.00    +0.000 C 
BRANCH  18  22
ATOM     19  C   UNL     1       7.771   5.634  11.807  0.00  0.00    +0.000 C 
ATOM     20  C   UNL     1       7.143   4.703  12.810  0.00  0.00    +0.000 C 
ATOM     21  C   UNL     1       6.422   3.502  12.273  0.00  0.00    +0.000 C 
ATOM     22  C   UNL     1       7.228   5.004  14.122  0.00  0.00    +0.000 C 
ENDBRANCH  18  22
ENDBRANCH   1  18
TORSDOF 3
ENDMDL
MODEL 6
REMARK VINA RESULT:      -7.6      2.991      5.089
REMARK  Name = 
REMARK  5 active torsions:
REMARK  status: ('A' for Active; 'I' for Inactive)
REMARK    1  A    between atoms: C_1  and  C_2
REMARK    2  A    between atoms: C_2  and  C_3
REMARK    3  A    between atoms: C_4  and  C_5
REMARK    4  A    between atoms: C_5  and  N_6
REMARK    5  A    between atoms: N_14  and  C_15
REMARK                            x       y       z     vdW  Elec       q    Type
REMARK                         _______ _______ _______ _____ _____    ______ ____
ROOT
ATOM      1  N   UNL     1       2.928   3.882  18.178  0.00  0.00    +0.000 N 
ATOM      2  C   UNL     1       1.666   3.468  18.601  0.00  0.00    +0.000 C 
ATOM      3  O   UNL     1       0.758   3.104  17.859  0.00  0.00    +0.000 OA
ATOM      4  C   UNL     1       1.498   3.464  20.108  0.00  0.00    +0.000 C 
ATOM      5  C   UNL     1       2.554   2.558  20.751  0.00  0.00    +0.000 C 
ATOM      6  C   UNL     1       3.906   2.644  20.045  0.00  0.00    +0.000 C 
ATOM      7  C   UNL     1       4.000   3.919  19.193  0.00  0.00    +0.000 C 
ATOM      8  C   UNL     1       3.959   5.156  20.122  0.00  0.00    +0.000 C 
ATOM      9  N   UNL     1       2.633   5.745  20.304  0.00  0.00    +0.000 N 
ATOM     10  C   UNL     1       1.481   4.902  20.656  0.00  0.00    +0.000 C 
ENDROOT
BRANCH   9  11
ATOM     11  C   UNL     1       2.376   6.897  19.546  0.00  0.00    +0.000 A 
ATOM     12  N   UNL     1       2.904   6.988  18.300  0.00  0.00    +0.000 NA
ATOM     13  C   UNL     1       2.643   8.090  17.562  0.00  0.00    +0.000 A 
ATOM     14  C   UNL     1       1.917   9.173  18.020  0.00  0.00    +0.000 A 
ATOM     15  C   UNL     1       1.414   9.113  19.310  0.00  0.00    +0.000 A 
ATOM     16  C   UNL     1       1.633   7.966  20.066  0.00  0.00    +0.000 A 
ATOM     17  F   UNL     1       1.151   7.928  21.322  0.00  0.00    +0.000 F 
ENDBRANCH   9  11
BRANCH   1  18
ATOM     18  C   UNL     1       3.277   3.959  16.760  0.00  0.00    +0.000 C 
BRANCH  18  22
ATOM     19  C   UNL     1       7.073   4.458  15.958  0.00  0.00    +0.000 C 
ATOM     20  C   UNL     1       5.608   4.788  16.069  0.00  0.00    +0.000 C 
ATOM     21  C   UNL     1       5.184   6.170  15.667  0.00  0.00    +0.000 C 
ATOM     22  C   UNL     1       4.764   3.852  16.549  0.00  0.00    +0.000 C 
ENDBRANCH  18  22
ENDBRANCH   1  18
TORSDOF 3
ENDMDL
MODEL 7
REMARK VINA RESULT:      -7.5      3.080      6.591
REMARK  Name = 
REMARK  5 active torsions:
REMARK  status: ('A' for Active; 'I' for Inactive)
REMARK    1  A    between atoms: C_1  and  C_2
REMARK    2  A    between atoms: C_2  and  C_3
REMARK    3  A    between atoms: C_4  and  C_5
REMARK    4  A    between atoms: C_5  and  N_6
REMARK    5  A    between atoms: N_14  and  C_15
REMARK                            x       y       z     vdW  Elec       q    Type
REMARK                         _______ _______ _______ _____ _____    ______ ____
ROOT
ATOM      1  N   UNL     1       2.457   5.301  19.383  0.00  0.00    +0.000 N 
ATOM      2  C   UNL     1       2.572   4.420  20.455  0.00  0.00    +0.000 C 
ATOM      3  O   UNL     1       2.614   4.749  21.638  0.00  0.00    +0.000 OA
ATOM      4  C   UNL     1       2.606   2.960  20.046  0.00  0.00    +0.000 C 
ATOM      5  C   UNL     1       1.342   2.609  19.253  0.00  0.00    +0.000 C 
ATOM      6  C   UNL     1       0.896   3.743  18.331  0.00  0.00    +0.000 C 
ATOM      7  C   UNL     1       2.044   4.733  18.084  0.00  0.00    +0.000 C 
ATOM      8  C   UNL     1       3.177   4.016  17.311  0.00  0.00    +0.000 C 
ATOM      9  N   UNL     1       4.242   3.466  18.149  0.00  0.00    +0.000 N 
ATOM     10  C   UNL     1       3.920   2.632  19.316  0.00  0.00    +0.000 C 
ENDROOT
BRANCH   9  11
ATOM     11  C   UNL     1       5.415   4.232  18.212  0.00  0.00    +0.000 A 
ATOM     12  N   UNL     1       5.784   4.760  19.405  0.00  0.00    +0.000 NA
ATOM     13  C   UNL     1       6.923   5.485  19.472  0.00  0.00    +0.000 A 
ATOM     14  C   UNL     1       7.716   5.780  18.378  0.00  0.00    +0.000 A 
ATOM     15  C   UNL     1       7.323   5.287  17.145  0.00  0.00    +0.000 A 
ATOM     16  C   UNL     1       6.179   4.500  17.067  0.00  0.00    +0.000 A 
ATOM     17  F   UNL     1       5.801   4.040  15.860  0.00  0.00    +0.000 F 
ENDBRANCH   9  11
BRANCH   1  18
ATOM     18  C   UNL     1       2.417   6.751  19.579  0.00  0.00    +0.000 C 
BRANCH  18  22
ATOM     19  C   UNL     1      -0.211   8.488  21.898  0.00  0.00    +0.000 C 
ATOM     20  C   UNL     1       0.791   8.332  20.785  0.00  0.00    +0.000 C 
ATOM     21  C   UNL     1       1.021   9.520  19.898  0.00  0.00    +0.000 C 
ATOM     22  C   UNL     1       1.401   7.140  20.620  0.00  0.00    +0.000 C 
ENDBRANCH  18  22
ENDBRANCH   1  18
TORSDOF 3
ENDMDL
MODEL 8
REMARK VINA RESULT:      -7.3      1.346      1.695
REMARK  Name = 
REMARK  5 active torsions:
REMARK  status: ('A' for Active; 'I' for Inactive)
REMARK    1  A    between atoms: C_1  and  C_2
REMARK    2  A    between atoms: C_2  and  C_3
REMARK    3  A    between atoms: C_4  and  C_5
REMARK    4  A    between atoms: C_5  and  N_6
REMARK    5  A    between atoms: N_14  and  C_15
REMARK                            x       y       z     vdW  Elec       q    Type
REMARK                         _______ _______ _______ _____ _____    ______ ____
ROOT
ATOM      1  N   UNL     1       6.893   4.910  16.481  0.00  0.00    +0.000 N 
ATOM      2  C   UNL     1       7.625   4.763  17.657  0.00  0.00    +0.000 C 
ATOM      3  O   UNL     1       8.492   3.914  17.848  0.00  0.00    +0.000 OA
ATOM      4  C   UNL     1       7.286   5.790  18.720  0.00  0.00    +0.000 C 
ATOM      5  C   UNL     1       7.513   7.204  18.173  0.00  0.00    +0.000 C 
ATOM      6  C   UNL     1       7.114   7.334  16.704  0.00  0.00    +0.000 C 
ATOM      7  C   UNL     1       6.180   6.188  16.286  0.00  0.00    +0.000 C 
ATOM      8  C   UNL     1       4.850   6.304  17.070  0.00  0.00    +0.000 C 
ATOM      9  N   UNL     1       4.783   5.501  18.291  0.00  0.00    +0.000 N 
ATOM     10  C   UNL     1       5.872   5.548  19.277  0.00  0.00    +0.000 C 
ENDROOT
BRANCH   9  11
ATOM     11  C   UNL     1       4.067   4.300  18.184  0.00  0.00    +0.000 A 
ATOM     12  N   UNL     1       3.022   4.240  17.322  0.00  0.00    +0.000 NA
ATOM     13  C   UNL     1       2.340   3.078  17.206  0.00  0.00    +0.000 A 
ATOM     14  C   UNL     1       2.600   1.951  17.964  0.00  0.00    +0.000 A 
ATOM     15  C   UNL     1       3.633   2.017  18.884  0.00  0.00    +0.000 A 
ATOM     16  C   UNL     1       4.375   3.189  18.982  0.00  0.00    +0.000 A 
ATOM     17  F   UNL     1       5.366   3.244  19.891  0.00  0.00    +0.000 F 
ENDBRANCH   9  11
BRANCH   1  18
ATOM     18  C   UNL     1       7.075   4.007  15.344  0.00  0.00    +0.000 C 
BRANCH  18  22
ATOM     19  C   UNL     1       4.493   3.863  12.408  0.00  0.00    +0.000 C 
ATOM     20  C   UNL     1       5.829   3.848  13.103  0.00  0.00    +0.000 C 
ATOM     21  C   UNL     1       7.043   3.624  12.250  0.00  0.00    +0.000 C 
ATOM     22  C   UNL     1       5.869   4.002  14.442  0.00  0.00    +0.000 C 
ENDBRANCH  18  22
ENDBRANCH   1  18
TORSDOF 3
ENDMDL
MODEL 9
REMARK VINA RESULT:      -7.2      2.802      4.985
REMARK  Name = 
REMARK  5 active torsions:
REMARK  status: ('A' for Active; 'I' for Inactive)
REMARK    1  A    between atoms: C_1  and  C_2
REMARK    2  A    between atoms: C_2  and  C_3
REMARK    3  A    between atoms: C_4  and  C_5
REMARK    4  A    between atoms: C_5  and  N_6
REMARK    5  A    between atoms: N_14  and  C_15
REMARK                            x       y       z     vdW  Elec       q    Type
REMARK                         _______ _______ _______ _____ _____    ______ ____
ROOT
ATOM      1  N   UNL     1       3.805   4.260  17.767  0.00  0.00    +0.000 N 
ATOM      2  C   UNL     1       2.582   3.604  17.640  0.00  0.00    +0.000 C 
ATOM      3  O   UNL     1       2.042   3.318  16.574  0.00  0.00    +0.000 OA
ATOM      4  C   UNL     1       1.954   3.220  18.965  0.00  0.00    +0.000 C 
ATOM      5  C   UNL     1       2.912   2.324  19.759  0.00  0.00    +0.000 C 
ATOM      6  C   UNL     1       4.372   2.743  19.597  0.00  0.00    +0.000 C 
ATOM      7  C   UNL     1       4.475   4.186  19.080  0.00  0.00    +0.000 C 
ATOM      8  C   UNL     1       3.903   5.151  20.146  0.00  0.00    +0.000 C 
ATOM      9  N   UNL     1       2.497   5.511  19.959  0.00  0.00    +0.000 N 
ATOM     10  C   UNL     1       1.483   4.472  19.726  0.00  0.00    +0.000 C 
ENDROOT
BRANCH   9  11
ATOM     11  C   UNL     1       2.269   6.769  19.383  0.00  0.00    +0.000 A 
ATOM     12  N   UNL     1       2.664   6.980  18.103  0.00  0.00    +0.000 NA
ATOM     13  C   UNL     1       2.430   8.187  17.541  0.00  0.00    +0.000 A 
ATOM     14  C   UNL     1       1.864   9.256  18.212  0.00  0.00    +0.000 A 
ATOM     15  C   UNL     1       1.502   9.067  19.536  0.00  0.00    +0.000 A 
ATOM     16  C   UNL     1       1.692   7.817  20.115  0.00  0.00    +0.000 A 
ATOM     17  F   UNL     1       1.349   7.652  21.406  0.00  0.00    +0.000 F 
ENDBRANCH   9  11
BRANCH   1  18
ATOM     18  C   UNL     1       4.558   4.716  16.599  0.00  0.00    +0.000 C 
BRANCH  18  22
ATOM     19  C   UNL     1       7.462   7.164  17.537  0.00  0.00    +0.000 C 
ATOM     20  C   UNL     1       6.765   5.862  17.248  0.00  0.00    +0.000 C 
ATOM     21  C   UNL     1       7.597   4.614  17.290  0.00  0.00    +0.000 C 
ATOM     22  C   UNL     1       5.452   5.880  16.936  0.00  0.00    +0.000 C 
ENDBRANCH  18  22
ENDBRANCH   1  18
TORSDOF 3
ENDMDL
