MODEL 1
REMARK VINA RESULT:      -8.9      0.000      0.000
REMARK  Name = 
REMARK  8 active torsions:
REMARK  status: ('A' for Active; 'I' for Inactive)
REMARK    1  A    between atoms: C_1  and  C_2
REMARK    2  A    between atoms: C_2  and  C_4
REMARK    3  A    between atoms: C_7  and  N_8
REMARK    4  A    between atoms: N_11  and  C_12
REMARK    5  A    between atoms: C_15  and  N_16
REMARK    6  A    between atoms: N_16  and  S_17
REMARK    7  A    between atoms: S_17  and  C_20
REMARK    8  A    between atoms: C_23  and  C_24
REMARK                            x       y       z     vdW  Elec       q    Type
REMARK                         _______ _______ _______ _____ _____    ______ ____
ROOT
ATOM      1  C   UNL     1       7.540   6.474  18.465  0.00  0.00    +0.000 A 
ATOM      2  C   UNL     1       6.956   5.525  19.317  0.00  0.00    +0.000 A 
ATOM      3  C   UNL     1       6.046   4.585  18.819  0.00  0.00    +0.000 A 
ATOM      4  C   UNL     1       5.740   4.578  17.463  0.00  0.00    +0.000 A 
ATOM      5  C   UNL     1       6.305   5.530  16.614  0.00  0.00    +0.000 A 
ATOM      6  C   UNL     1       7.185   6.493  17.117  0.00  0.00    +0.000 A 
ENDROOT
BRANCH   1  10
ATOM      7  N   UNL     1       9.482   9.476  19.097  0.00  0.00    +0.000 N 
ATOM      8  C   UNL     1       8.459   8.732  18.523  0.00  0.00    +0.000 C 
ATOM      9  O   UNL     1       7.601   9.187  17.776  0.00  0.00    +0.000 OA
ATOM     10  N   UNL     1       8.501   7.405  18.926  0.00  0.00    +0.000 N 
ATOM     11  H   UNL     1      10.332   8.970  19.300  0.00  0.00    +0.000 HD
ATOM     12  H   UNL     1       8.836   7.274  19.870  0.00  0.00    +0.000 HD
BRANCH   7  16
ATOM     13  C   UNL     1       9.650  13.693  18.780  0.00  0.00    +0.000 A 
ATOM     14  C   UNL     1       9.211  13.103  19.963  0.00  0.00    +0.000 A 
ATOM     15  C   UNL     1       9.179  11.711  20.079  0.00  0.00    +0.000 A 
ATOM     16  C   UNL     1       9.570  10.887  19.018  0.00  0.00    +0.000 A 
ATOM     17  C   UNL     1      10.069  11.479  17.855  0.00  0.00    +0.000 A 
ATOM     18  C   UNL     1      10.097  12.879  17.729  0.00  0.00    +0.000 A 
BRANCH  13  20
ATOM     19  C   UNL     1       8.494  15.815  17.849  0.00  0.00    +0.000 C 
ATOM     20  C   UNL     1       9.638  15.180  18.605  0.00  0.00    +0.000 C 
ATOM     21  O   UNL     1      10.547  15.860  19.076  0.00  0.00    +0.000 OA
ENDBRANCH  13  20
ENDBRANCH   7  16
ENDBRANCH   1  10
BRANCH   4  22
ATOM     22  N   UNL     1       4.853   3.614  16.913  0.00  0.00    +0.000 N 
ATOM     23  H   UNL     1       5.255   2.829  16.402  0.00  0.00    +0.000 HD
BRANCH  22  24
ATOM     24  S   UNL     1       3.490   3.159  17.801  0.00  0.00    +0.000 S 
ATOM     25  O   UNL     1       2.463   2.838  16.834  0.00  0.00    +0.000 OA
ATOM     26  O   UNL     1       3.889   2.203  18.812  0.00  0.00    +0.000 OA
BRANCH  24  27
ATOM     27  C   UNL     1       3.019   4.676  18.591  0.00  0.00    +0.000 A 
ATOM     28  C   UNL     1       2.713   4.672  19.955  0.00  0.00    +0.000 A 
ATOM     29  C   UNL     1       2.244   5.842  20.555  0.00  0.00    +0.000 A 
ATOM     30  C   UNL     1       2.092   7.015  19.801  0.00  0.00    +0.000 A 
ATOM     31  C   UNL     1       1.552   8.269  20.425  0.00  0.00    +0.000 C 
ATOM     32  C   UNL     1       2.445   7.012  18.444  0.00  0.00    +0.000 A 
ATOM     33  C   UNL     1       2.907   5.845  17.835  0.00  0.00    +0.000 A 
ENDBRANCH  24  27
ENDBRANCH  22  24
ENDBRANCH   4  22
TORSDOF 6
ENDMDL
MODEL 2
REMARK VINA RESULT:      -8.8      0.517      1.426
REMARK  Name = 
REMARK  8 active torsions:
REMARK  status: ('A' for Active; 'I' for Inactive)
REMARK    1  A    between atoms: C_1  and  C_2
REMARK    2  A    between atoms: C_2  and  C_4
REMARK    3  A    between atoms: C_7  and  N_8
REMARK    4  A    between atoms: N_11  and  C_12
REMARK    5  A    between atoms: C_15  and  N_16
REMARK    6  A    between atoms: N_16  and  S_17
REMARK    7  A    between atoms: S_17  and  C_20
REMARK    8  A    between atoms: C_23  and  C_24
REMARK                            x       y       z     vdW  Elec       q    Type
REMARK                         _______ _______ _______ _____ _____    ______ ____
ROOT
ATOM      1  C   UNL     1       7.465   6.362  18.473  0.00  0.00    +0.000 A 
ATOM      2  C   UNL     1       6.784   5.510  19.354  0.00  0.00    +0.000 A 
ATOM      3  C   UNL     1       5.852   4.583  18.874  0.00  0.00    +0.000 A 
ATOM      4  C   UNL     1       5.620   4.491  17.505  0.00  0.00    +0.000 A 
ATOM      5  C   UNL     1       6.281   5.348  16.625  0.00  0.00    +0.000 A 
ATOM      6  C   UNL     1       7.185   6.298  17.108  0.00  0.00    +0.000 A 
ENDROOT
BRANCH   1  10
ATOM      7  N   UNL     1       9.451   9.333  19.108  0.00  0.00    +0.000 N 
ATOM      8  C   UNL     1       8.402   8.612  18.554  0.00  0.00    +0.000 C 
ATOM      9  O   UNL     1       7.520   9.092  17.852  0.00  0.00    +0.000 OA
ATOM     10  N   UNL     1       8.449   7.274  18.921  0.00  0.00    +0.000 N 
ATOM     11  H   UNL     1      10.305   8.816  19.265  0.00  0.00    +0.000 HD
ATOM     12  H   UNL     1       8.819   7.117  19.848  0.00  0.00    +0.000 HD
BRANCH   7  16
ATOM     13  C   UNL     1       9.844  13.547  19.041  0.00  0.00    +0.000 A 
ATOM     14  C   UNL     1      10.066  12.811  17.879  0.00  0.00    +0.000 A 
ATOM     15  C   UNL     1       9.912  11.422  17.892  0.00  0.00    +0.000 A 
ATOM     16  C   UNL     1       9.547  10.746  19.062  0.00  0.00    +0.000 A 
ATOM     17  C   UNL     1       9.264  11.490  20.209  0.00  0.00    +0.000 A 
ATOM     18  C   UNL     1       9.424  12.887  20.205  0.00  0.00    +0.000 A 
BRANCH  13  20
ATOM     19  C   UNL     1      10.746  15.639  20.272  0.00  0.00    +0.000 C 
ATOM     20  C   UNL     1      10.060  15.029  19.072  0.00  0.00    +0.000 C 
ATOM     21  O   UNL     1       9.683  15.723  18.130  0.00  0.00    +0.000 OA
ENDBRANCH  13  20
ENDBRANCH   7  16
ENDBRANCH   1  10
BRANCH   4  22
ATOM     22  N   UNL     1       4.712   3.535  16.976  0.00  0.00    +0.000 N 
ATOM     23  H   UNL     1       5.086   2.797  16.381  0.00  0.00    +0.000 HD
BRANCH  22  24
ATOM     24  S   UNL     1       3.448   2.983  17.950  0.00  0.00    +0.000 S 
ATOM     25  O   UNL     1       2.431   2.481  17.052  0.00  0.00    +0.000 OA
ATOM     26  O   UNL     1       3.996   2.148  18.998  0.00  0.00    +0.000 OA
BRANCH  24  27
ATOM     27  C   UNL     1       2.828   4.482  18.668  0.00  0.00    +0.000 A 
ATOM     28  C   UNL     1       2.724   5.629  17.875  0.00  0.00    +0.000 A 
ATOM     29  C   UNL     1       2.335   6.834  18.462  0.00  0.00    +0.000 A 
ATOM     30  C   UNL     1       2.039   6.894  19.832  0.00  0.00    +0.000 A 
ATOM     31  C   UNL     1       1.657   8.190  20.484  0.00  0.00    +0.000 C 
ATOM     32  C   UNL     1       2.107   5.724  20.603  0.00  0.00    +0.000 A 
ATOM     33  C   UNL     1       2.503   4.518  20.025  0.00  0.00    +0.000 A 
ENDBRANCH  24  27
ENDBRANCH  22  24
ENDBRANCH   4  22
TORSDOF 6
ENDMDL
MODEL 3
REMARK VINA RESULT:      -8.8      5.593      9.218
REMARK  Name = 
REMARK  8 active torsions:
REMARK  status: ('A' for Active; 'I' for Inactive)
REMARK    1  A    between atoms: C_1  and  C_2
REMARK    2  A    between atoms: C_2  and  C_4
REMARK    3  A    between atoms: C_7  and  N_8
REMARK    4  A    between atoms: N_11  and  C_12
REMARK    5  A    between atoms: C_15  and  N_16
REMARK    6  A    between atoms: N_16  and  S_17
REMARK    7  A    between atoms: S_17  and  C_20
REMARK    8  A    between atoms: C_23  and  C_24
REMARK                            x       y       z     vdW  Elec       q    Type
REMARK                         _______ _______ _______ _____ _____    ______ ____
ROOT
ATOM      1  C   UNL     1       1.663   8.455  19.923  0.00  0.00    +0.000 A 
ATOM      2  C   UNL     1       1.624   7.360  20.798  0.00  0.00    +0.000 A 
ATOM      3  C   UNL     1       2.085   6.104  20.390  0.00  0.00    +0.000 A 
ATOM      4  C   UNL     1       2.609   5.949  19.111  0.00  0.00    +0.000 A 
ATOM      5  C   UNL     1       2.634   7.029  18.230  0.00  0.00    +0.000 A 
ATOM      6  C   UNL     1       2.140   8.276  18.625  0.00  0.00    +0.000 A 
ENDROOT
BRANCH   1  10
ATOM      7  N   UNL     1      -0.270  11.350  20.953  0.00  0.00    +0.000 N 
ATOM      8  C   UNL     1      -0.085  10.030  20.566  0.00  0.00    +0.000 C 
ATOM      9  O   UNL     1      -0.980   9.197  20.478  0.00  0.00    +0.000 OA
ATOM     10  N   UNL     1       1.251   9.750  20.321  0.00  0.00    +0.000 N 
ATOM     11  H   UNL     1       0.390  12.015  20.576  0.00  0.00    +0.000 HD
ATOM     12  H   UNL     1       1.892  10.263  20.910  0.00  0.00    +0.000 HD
BRANCH   7  16
ATOM     13  C   UNL     1      -3.988  12.782  22.383  0.00  0.00    +0.000 A 
ATOM     14  C   UNL     1      -3.050  12.271  23.278  0.00  0.00    +0.000 A 
ATOM     15  C   UNL     1      -1.813  11.821  22.811  0.00  0.00    +0.000 A 
ATOM     16  C   UNL     1      -1.494  11.862  21.449  0.00  0.00    +0.000 A 
ATOM     17  C   UNL     1      -2.409  12.432  20.561  0.00  0.00    +0.000 A 
ATOM     18  C   UNL     1      -3.660  12.879  21.023  0.00  0.00    +0.000 A 
BRANCH  13  20
ATOM     19  C   UNL     1      -5.872  12.679  24.156  0.00  0.00    +0.000 C 
ATOM     20  C   UNL     1      -5.345  13.214  22.845  0.00  0.00    +0.000 C 
ATOM     21  O   UNL     1      -6.006  13.994  22.162  0.00  0.00    +0.000 OA
ENDBRANCH  13  20
ENDBRANCH   7  16
ENDBRANCH   1  10
BRANCH   4  22
ATOM     22  N   UNL     1       3.125   4.699  18.674  0.00  0.00    +0.000 N 
ATOM     23  H   UNL     1       2.835   4.353  17.761  0.00  0.00    +0.000 HD
BRANCH  22  24
ATOM     24  S   UNL     1       4.735   4.317  19.012  0.00  0.00    +0.000 S 
ATOM     25  O   UNL     1       5.268   5.429  19.769  0.00  0.00    +0.000 OA
ATOM     26  O   UNL     1       4.796   2.966  19.528  0.00  0.00    +0.000 OA
BRANCH  24  27
ATOM     27  C   UNL     1       5.488   4.360  17.406  0.00  0.00    +0.000 A 
ATOM     28  C   UNL     1       6.851   4.648  17.296  0.00  0.00    +0.000 A 
ATOM     29  C   UNL     1       7.423   4.783  16.029  0.00  0.00    +0.000 A 
ATOM     30  C   UNL     1       6.640   4.620  14.876  0.00  0.00    +0.000 A 
ATOM     31  C   UNL     1       7.233   4.800  13.510  0.00  0.00    +0.000 C 
ATOM     32  C   UNL     1       5.284   4.288  15.006  0.00  0.00    +0.000 A 
ATOM     33  C   UNL     1       4.704   4.159  16.268  0.00  0.00    +0.000 A 
ENDBRANCH  24  27
ENDBRANCH  22  24
ENDBRANCH   4  22
TORSDOF 6
ENDMDL
MODEL 4
REMARK VINA RESULT:      -8.8      5.450      9.155
REMARK  Name = 
REMARK  8 active torsions:
REMARK  status: ('A' for Active; 'I' for Inactive)
REMARK    1  A    between atoms: C_1  and  C_2
REMARK    2  A    between atoms: C_2  and  C_4
REMARK    3  A    between atoms: C_7  and  N_8
REMARK    4  A    between atoms: N_11  and  C_12
REMARK    5  A    between atoms: C_15  and  N_16
REMARK    6  A    between atoms: N_16  and  S_17
REMARK    7  A    between atoms: S_17  and  C_20
REMARK    8  A    between atoms: C_23  and  C_24
REMARK                            x       y       z     vdW  Elec       q    Type
REMARK                         _______ _______ _______ _____ _____    ______ ____
ROOT
ATOM      1  C   UNL     1       1.746   8.702  19.364  0.00  0.00    +0.000 A 
ATOM      2  C   UNL     1       2.268   8.336  18.116  0.00  0.00    +0.000 A 
ATOM      3  C   UNL     1       2.766   7.045  17.902  0.00  0.00    +0.000 A 
ATOM      4  C   UNL     1       2.718   6.113  18.933  0.00  0.00    +0.000 A 
ATOM      5  C   UNL     1       2.216   6.477  20.182  0.00  0.00    +0.000 A 
ATOM      6  C   UNL     1       1.752   7.776  20.407  0.00  0.00    +0.000 A 
ENDROOT
BRANCH   1  10
ATOM      7  N   UNL     1      -0.377  11.457  20.405  0.00  0.00    +0.000 N 
ATOM      8  C   UNL     1      -0.016  10.123  20.273  0.00  0.00    +0.000 C 
ATOM      9  O   UNL     1      -0.658   9.180  20.719  0.00  0.00    +0.000 OA
ATOM     10  N   UNL     1       1.188   9.982  19.599  0.00  0.00    +0.000 N 
ATOM     11  H   UNL     1      -0.062  12.073  19.668  0.00  0.00    +0.000 HD
ATOM     12  H   UNL     1       1.844  10.732  19.769  0.00  0.00    +0.000 HD
BRANCH   7  16
ATOM     13  C   UNL     1      -3.657  12.701  22.774  0.00  0.00    +0.000 A 
ATOM     14  C   UNL     1      -2.497  12.230  23.386  0.00  0.00    +0.000 A 
ATOM     15  C   UNL     1      -1.404  11.843  22.607  0.00  0.00    +0.000 A 
ATOM     16  C   UNL     1      -1.452  11.907  21.210  0.00  0.00    +0.000 A 
ATOM     17  C   UNL     1      -2.590  12.439  20.600  0.00  0.00    +0.000 A 
ATOM     18  C   UNL     1      -3.697  12.823  21.378  0.00  0.00    +0.000 A 
BRANCH  13  20
ATOM     19  C   UNL     1      -5.419  14.466  23.470  0.00  0.00    +0.000 C 
ATOM     20  C   UNL     1      -4.865  13.065  23.580  0.00  0.00    +0.000 C 
ATOM     21  O   UNL     1      -5.388  12.228  24.312  0.00  0.00    +0.000 OA
ENDBRANCH  13  20
ENDBRANCH   7  16
ENDBRANCH   1  10
BRANCH   4  22
ATOM     22  N   UNL     1       3.176   4.782  18.742  0.00  0.00    +0.000 N 
ATOM     23  H   UNL     1       2.776   4.242  17.976  0.00  0.00    +0.000 HD
BRANCH  22  24
ATOM     24  S   UNL     1       4.816   4.443  18.965  0.00  0.00    +0.000 S 
ATOM     25  O   UNL     1       5.348   5.517  19.774  0.00  0.00    +0.000 OA
ATOM     26  O   UNL     1       4.956   3.061  19.374  0.00  0.00    +0.000 OA
BRANCH  24  27
ATOM     27  C   UNL     1       5.476   4.633  17.329  0.00  0.00    +0.000 A 
ATOM     28  C   UNL     1       4.810   4.049  16.248  0.00  0.00    +0.000 A 
ATOM     29  C   UNL     1       5.382   4.110  14.977  0.00  0.00    +0.000 A 
ATOM     30  C   UNL     1       6.608   4.763  14.780  0.00  0.00    +0.000 A 
ATOM     31  C   UNL     1       7.253   4.803  13.426  0.00  0.00    +0.000 C 
ATOM     32  C   UNL     1       7.241   5.382  15.868  0.00  0.00    +0.000 A 
ATOM     33  C   UNL     1       6.680   5.317  17.143  0.00  0.00    +0.000 A 
ENDBRANCH  24  27
ENDBRANCH  22  24
ENDBRANCH   4  22
TORSDOF 6
ENDMDL
MODEL 5
REMARK VINA RESULT:      -8.8      0.618      1.471
REMARK  Name = 
REMARK  8 active torsions:
REMARK  status: ('A' for Active; 'I' for Inactive)
REMARK    1  A    between atoms: C_1  and  C_2
REMARK    2  A    between atoms: C_2  and  C_4
REMARK    3  A    between atoms: C_7  and  N_8
REMARK    4  A    between atoms: N_11  and  C_12
REMARK    5  A    between atoms: C_15  and  N_16
REMARK    6  A    between atoms: N_16  and  S_17
REMARK    7  A    between atoms: S_17  and  C_20
REMARK    8  A    between atoms: C_23  and  C_24
REMARK                            x       y       z     vdW  Elec       q    Type
REMARK                         _______ _______ _______ _____ _____    ______ ____
ROOT
ATOM      1  C   UNL     1       7.504   6.530  18.291  0.00  0.00    +0.000 A 
ATOM      2  C   UNL     1       7.077   6.689  16.965  0.00  0.00    +0.000 A 
ATOM      3  C   UNL     1       6.103   5.843  16.423  0.00  0.00    +0.000 A 
ATOM      4  C   UNL     1       5.537   4.851  17.218  0.00  0.00    +0.000 A 
ATOM      5  C   UNL     1       5.970   4.677  18.532  0.00  0.00    +0.000 A 
ATOM      6  C   UNL     1       6.969   5.499  19.063  0.00  0.00    +0.000 A 
ENDROOT
BRANCH   1  10
ATOM      7  N   UNL     1       9.470   9.422  19.263  0.00  0.00    +0.000 N 
ATOM      8  C   UNL     1       8.478   8.749  18.564  0.00  0.00    +0.000 C 
ATOM      9  O   UNL     1       7.696   9.277  17.781  0.00  0.00    +0.000 OA
ATOM     10  N   UNL     1       8.450   7.400  18.885  0.00  0.00    +0.000 N 
ATOM     11  H   UNL     1      10.287   8.877  19.501  0.00  0.00    +0.000 HD
ATOM     12  H   UNL     1       8.703   7.201  19.843  0.00  0.00    +0.000 HD
BRANCH   7  16
ATOM     13  C   UNL     1       9.975  13.623  19.386  0.00  0.00    +0.000 A 
ATOM     14  C   UNL     1      10.177  12.934  18.191  0.00  0.00    +0.000 A 
ATOM     15  C   UNL     1       9.986  11.551  18.142  0.00  0.00    +0.000 A 
ATOM     16  C   UNL     1       9.604  10.833  19.281  0.00  0.00    +0.000 A 
ATOM     17  C   UNL     1       9.342  11.532  20.461  0.00  0.00    +0.000 A 
ATOM     18  C   UNL     1       9.539  12.922  20.519  0.00  0.00    +0.000 A 
BRANCH  13  20
ATOM     19  C   UNL     1      10.681  15.670  20.806  0.00  0.00    +0.000 C 
ATOM     20  C   UNL     1      10.232  15.095  19.483  0.00  0.00    +0.000 C 
ATOM     21  O   UNL     1      10.077  15.811  18.495  0.00  0.00    +0.000 OA
ENDBRANCH  13  20
ENDBRANCH   7  16
ENDBRANCH   1  10
BRANCH   4  22
ATOM     22  N   UNL     1       4.517   4.000  16.716  0.00  0.00    +0.000 N 
ATOM     23  H   UNL     1       4.778   3.286  16.038  0.00  0.00    +0.000 HD
BRANCH  22  24
ATOM     24  S   UNL     1       3.313   3.459  17.771  0.00  0.00    +0.000 S 
ATOM     25  O   UNL     1       2.189   3.075  16.944  0.00  0.00    +0.000 OA
ATOM     26  O   UNL     1       3.899   2.529  18.712  0.00  0.00    +0.000 OA
BRANCH  24  27
ATOM     27  C   UNL     1       2.856   4.943  18.629  0.00  0.00    +0.000 A 
ATOM     28  C   UNL     1       2.528   4.877  19.986  0.00  0.00    +0.000 A 
ATOM     29  C   UNL     1       2.070   6.023  20.637  0.00  0.00    +0.000 A 
ATOM     30  C   UNL     1       1.950   7.235  19.941  0.00  0.00    +0.000 A 
ATOM     31  C   UNL     1       1.422   8.465  20.619  0.00  0.00    +0.000 C 
ATOM     32  C   UNL     1       2.325   7.294  18.591  0.00  0.00    +0.000 A 
ATOM     33  C   UNL     1       2.776   6.151  17.931  0.00  0.00    +0.000 A 
ENDBRANCH  24  27
ENDBRANCH  22  24
ENDBRANCH   4  22
TORSDOF 6
ENDMDL
MODEL 6
REMARK VINA RESULT:      -8.8      4.974      8.418
REMARK  Name = 
REMARK  8 active torsions:
REMARK  status: ('A' for Active; 'I' for Inactive)
REMARK    1  A    between atoms: C_1  and  C_2
REMARK    2  A    between atoms: C_2  and  C_4
REMARK    3  A    between atoms: C_7  and  N_8
REMARK    4  A    between atoms: N_11  and  C_12
REMARK    5  A    between atoms: C_15  and  N_16
REMARK    6  A    between atoms: N_16  and  S_17
REMARK    7  A    between atoms: S_17  and  C_20
REMARK    8  A    between atoms: C_23  and  C_24
REMARK                            x       y       z     vdW  Elec       q    Type
REMARK                         _______ _______ _______ _____ _____    ______ ____
ROOT
ATOM      1  C   UNL     1       1.870   7.474  20.373  0.00  0.00    +0.000 A 
ATOM      2  C   UNL     1       2.293   7.452  19.036  0.00  0.00    +0.000 A 
ATOM      3  C   UNL     1       2.425   6.239  18.350  0.00  0.00    +0.000 A 
ATOM      4  C   UNL     1       2.108   5.049  18.995  0.00  0.00    +0.000 A 
ATOM      5  C   UNL     1       1.703   5.063  20.330  0.00  0.00    +0.000 A 
ATOM      6  C   UNL     1       1.607   6.271  21.027  0.00  0.00    +0.000 A 
ENDROOT
BRANCH   1  10
ATOM      7  N   UNL     1       0.511  10.551  21.738  0.00  0.00    +0.000 N 
ATOM      8  C   UNL     1       0.498   9.405  20.955  0.00  0.00    +0.000 C 
ATOM      9  O   UNL     1      -0.445   9.045  20.261  0.00  0.00    +0.000 OA
ATOM     10  N   UNL     1       1.678   8.686  21.079  0.00  0.00    +0.000 N 
ATOM     11  H   UNL     1       1.419  10.969  21.890  0.00  0.00    +0.000 HD
ATOM     12  H   UNL     1       2.097   8.741  21.997  0.00  0.00    +0.000 HD
BRANCH   7  16
ATOM     13  C   UNL     1      -2.940  12.937  22.297  0.00  0.00    +0.000 A 
ATOM     14  C   UNL     1      -2.594  11.982  23.252  0.00  0.00    +0.000 A 
ATOM     15  C   UNL     1      -1.441  11.211  23.082  0.00  0.00    +0.000 A 
ATOM     16  C   UNL     1      -0.624  11.370  21.957  0.00  0.00    +0.000 A 
ATOM     17  C   UNL     1      -0.937  12.370  21.033  0.00  0.00    +0.000 A 
ATOM     18  C   UNL     1      -2.099  13.144  21.194  0.00  0.00    +0.000 A 
BRANCH  13  20
ATOM     19  C   UNL     1      -5.521  13.004  22.497  0.00  0.00    +0.000 C 
ATOM     20  C   UNL     1      -4.201  13.735  22.422  0.00  0.00    +0.000 C 
ATOM     21  O   UNL     1      -4.148  14.962  22.464  0.00  0.00    +0.000 OA
ENDBRANCH  13  20
ENDBRANCH   7  16
ENDBRANCH   1  10
BRANCH   4  22
ATOM     22  N   UNL     1       2.190   3.801  18.320  0.00  0.00    +0.000 N 
ATOM     23  H   UNL     1       1.777   3.731  17.391  0.00  0.00    +0.000 HD
BRANCH  22  24
ATOM     24  S   UNL     1       3.607   2.892  18.452  0.00  0.00    +0.000 S 
ATOM     25  O   UNL     1       3.707   2.493  19.839  0.00  0.00    +0.000 OA
ATOM     26  O   UNL     1       3.633   1.910  17.389  0.00  0.00    +0.000 OA
BRANCH  24  27
ATOM     27  C   UNL     1       4.871   4.101  18.157  0.00  0.00    +0.000 A 
ATOM     28  C   UNL     1       5.586   4.624  19.238  0.00  0.00    +0.000 A 
ATOM     29  C   UNL     1       6.509   5.648  19.018  0.00  0.00    +0.000 A 
ATOM     30  C   UNL     1       6.727   6.142  17.723  0.00  0.00    +0.000 A 
ATOM     31  C   UNL     1       7.686   7.269  17.479  0.00  0.00    +0.000 C 
ATOM     32  C   UNL     1       6.032   5.576  16.644  0.00  0.00    +0.000 A 
ATOM     33  C   UNL     1       5.103   4.558  16.857  0.00  0.00    +0.000 A 
ENDBRANCH  24  27
ENDBRANCH  22  24
ENDBRANCH   4  22
TORSDOF 6
ENDMDL
MODEL 7
REMARK VINA RESULT:      -8.8      4.926      8.263
REMARK  Name = 
REMARK  8 active torsions:
REMARK  status: ('A' for Active; 'I' for Inactive)
REMARK    1  A    between atoms: C_1  and  C_2
REMARK    2  A    between atoms: C_2  and  C_4
REMARK    3  A    between atoms: C_7  and  N_8
REMARK    4  A    between atoms: N_11  and  C_12
REMARK    5  A    between atoms: C_15  and  N_16
REMARK    6  A    between atoms: N_16  and  S_17
REMARK    7  A    between atoms: S_17  and  C_20
REMARK    8  A    between atoms: C_23  and  C_24
REMARK                            x       y       z     vdW  Elec       q    Type
REMARK                         _______ _______ _______ _____ _____    ______ ____
ROOT
ATOM      1  C   UNL     1       1.817   7.333  20.387  0.00  0.00    +0.000 A 
ATOM      2  C   UNL     1       1.488   6.093  20.954  0.00  0.00    +0.000 A 
ATOM      3  C   UNL     1       1.646   4.910  20.223  0.00  0.00    +0.000 A 
ATOM      4  C   UNL     1       2.157   4.966  18.931  0.00  0.00    +0.000 A 
ATOM      5  C   UNL     1       2.470   6.197  18.355  0.00  0.00    +0.000 A 
ATOM      6  C   UNL     1       2.278   7.382  19.072  0.00  0.00    +0.000 A 
ENDROOT
BRANCH   1  10
ATOM      7  N   UNL     1       0.682  10.463  21.834  0.00  0.00    +0.000 N 
ATOM      8  C   UNL     1       0.579   9.332  21.036  0.00  0.00    +0.000 C 
ATOM      9  O   UNL     1      -0.403   9.039  20.364  0.00  0.00    +0.000 OA
ATOM     10  N   UNL     1       1.717   8.542  21.116  0.00  0.00    +0.000 N 
ATOM     11  H   UNL     1       1.616  10.823  21.967  0.00  0.00    +0.000 HD
ATOM     12  H   UNL     1       2.163   8.557  22.023  0.00  0.00    +0.000 HD
BRANCH   7  16
ATOM     13  C   UNL     1      -2.486  13.125  22.729  0.00  0.00    +0.000 A 
ATOM     14  C   UNL     1      -1.586  13.433  21.710  0.00  0.00    +0.000 A 
ATOM     15  C   UNL     1      -0.555  12.544  21.396  0.00  0.00    +0.000 A 
ATOM     16  C   UNL     1      -0.396  11.343  22.097  0.00  0.00    +0.000 A 
ATOM     17  C   UNL     1      -1.335  11.005  23.074  0.00  0.00    +0.000 A 
ATOM     18  C   UNL     1      -2.370  11.899  23.400  0.00  0.00    +0.000 A 
BRANCH  13  20
ATOM     19  C   UNL     1      -4.898  13.538  23.573  0.00  0.00    +0.000 C 
ATOM     20  C   UNL     1      -3.562  14.085  23.128  0.00  0.00    +0.000 C 
ATOM     21  O   UNL     1      -3.348  15.295  23.092  0.00  0.00    +0.000 OA
ENDBRANCH  13  20
ENDBRANCH   7  16
ENDBRANCH   1  10
BRANCH   4  22
ATOM     22  N   UNL     1       2.370   3.784  18.172  0.00  0.00    +0.000 N 
ATOM     23  H   UNL     1       2.052   3.771  17.205  0.00  0.00    +0.000 HD
BRANCH  22  24
ATOM     24  S   UNL     1       3.816   2.934  18.374  0.00  0.00    +0.000 S 
ATOM     25  O   UNL     1       3.881   2.566  19.771  0.00  0.00    +0.000 OA
ATOM     26  O   UNL     1       3.918   1.933  17.332  0.00  0.00    +0.000 OA
BRANCH  24  27
ATOM     27  C   UNL     1       5.042   4.186  18.098  0.00  0.00    +0.000 A 
ATOM     28  C   UNL     1       5.762   4.692  19.184  0.00  0.00    +0.000 A 
ATOM     29  C   UNL     1       6.653   5.748  18.984  0.00  0.00    +0.000 A 
ATOM     30  C   UNL     1       6.835   6.290  17.703  0.00  0.00    +0.000 A 
ATOM     31  C   UNL     1       7.760   7.450  17.480  0.00  0.00    +0.000 C 
ATOM     32  C   UNL     1       6.136   5.741  16.617  0.00  0.00    +0.000 A 
ATOM     33  C   UNL     1       5.239   4.692  16.811  0.00  0.00    +0.000 A 
ENDBRANCH  24  27
ENDBRANCH  22  24
ENDBRANCH   4  22
TORSDOF 6
ENDMDL
MODEL 8
REMARK VINA RESULT:      -8.7      6.761     10.792
REMARK  Name = 
REMARK  8 active torsions:
REMARK  status: ('A' for Active; 'I' for Inactive)
REMARK    1  A    between atoms: C_1  and  C_2
REMARK    2  A    between atoms: C_2  and  C_4
REMARK    3  A    between atoms: C_7  and  N_8
REMARK    4  A    between atoms: N_11  and  C_12
REMARK    5  A    between atoms: C_15  and  N_16
REMARK    6  A    between atoms: N_16  and  S_17
REMARK    7  A    between atoms: S_17  and  C_20
REMARK    8  A    between atoms: C_23  and  C_24
REMARK                            x       y       z     vdW  Elec       q    Type
REMARK                         _______ _______ _______ _____ _____    ______ ____
ROOT
ATOM      1  C   UNL     1       0.688  11.005  18.892  0.00  0.00    +0.000 A 
ATOM      2  C   UNL     1       1.390  12.035  19.534  0.00  0.00    +0.000 A 
ATOM      3  C   UNL     1       0.721  12.952  20.353  0.00  0.00    +0.000 A 
ATOM      4  C   UNL     1      -0.650  12.822  20.550  0.00  0.00    +0.000 A 
ATOM      5  C   UNL     1      -1.356  11.810  19.900  0.00  0.00    +0.000 A 
ATOM      6  C   UNL     1      -0.694  10.916  19.053  0.00  0.00    +0.000 A 
ENDROOT
BRANCH   1  10
ATOM      7  N   UNL     1       2.414   8.039  17.709  0.00  0.00    +0.000 N 
ATOM      8  C   UNL     1       1.819   8.856  18.660  0.00  0.00    +0.000 C 
ATOM      9  O   UNL     1       1.695   8.572  19.845  0.00  0.00    +0.000 OA
ATOM     10  N   UNL     1       1.342  10.033  18.098  0.00  0.00    +0.000 N 
ATOM     11  H   UNL     1       2.848   8.514  16.930  0.00  0.00    +0.000 HD
ATOM     12  H   UNL     1       1.007   9.928  17.151  0.00  0.00    +0.000 HD
BRANCH   7  16
ATOM     13  C   UNL     1       3.641   4.080  18.569  0.00  0.00    +0.000 A 
ATOM     14  C   UNL     1       2.287   4.368  18.410  0.00  0.00    +0.000 A 
ATOM     15  C   UNL     1       1.882   5.669  18.101  0.00  0.00    +0.000 A 
ATOM     16  C   UNL     1       2.814   6.702  17.957  0.00  0.00    +0.000 A 
ATOM     17  C   UNL     1       4.174   6.400  18.054  0.00  0.00    +0.000 A 
ATOM     18  C   UNL     1       4.588   5.095  18.372  0.00  0.00    +0.000 A 
BRANCH  13  20
ATOM     19  C   UNL     1       3.549   1.516  18.216  0.00  0.00    +0.000 C 
ATOM     20  C   UNL     1       4.101   2.710  18.960  0.00  0.00    +0.000 C 
ATOM     21  O   UNL     1       4.916   2.573  19.870  0.00  0.00    +0.000 OA
ENDBRANCH  13  20
ENDBRANCH   7  16
ENDBRANCH   1  10
BRANCH   4  22
ATOM     22  N   UNL     1      -1.357  13.708  21.406  0.00  0.00    +0.000 N 
ATOM     23  H   UNL     1      -2.201  14.151  21.046  0.00  0.00    +0.000 HD
BRANCH  22  24
ATOM     24  S   UNL     1      -1.495  13.322  23.045  0.00  0.00    +0.000 S 
ATOM     25  O   UNL     1      -0.990  11.975  23.191  0.00  0.00    +0.000 OA
ATOM     26  O   UNL     1      -0.952  14.412  23.828  0.00  0.00    +0.000 OA
BRANCH  24  27
ATOM     27  C   UNL     1      -3.252  13.258  23.281  0.00  0.00    +0.000 A 
ATOM     28  C   UNL     1      -4.078  14.082  22.510  0.00  0.00    +0.000 A 
ATOM     29  C   UNL     1      -5.450  14.108  22.766  0.00  0.00    +0.000 A 
ATOM     30  C   UNL     1      -5.999  13.306  23.777  0.00  0.00    +0.000 A 
ATOM     31  C   UNL     1      -7.467  13.353  24.088  0.00  0.00    +0.000 C 
ATOM     32  C   UNL     1      -5.162  12.453  24.511  0.00  0.00    +0.000 A 
ATOM     33  C   UNL     1      -3.789  12.428  24.267  0.00  0.00    +0.000 A 
ENDBRANCH  24  27
ENDBRANCH  22  24
ENDBRANCH   4  22
TORSDOF 6
ENDMDL
MODEL 9
REMARK VINA RESULT:      -8.6      1.051      1.407
REMARK  Name = 
REMARK  8 active torsions:
REMARK  status: ('A' for Active; 'I' for Inactive)
REMARK    1  A    between atoms: C_1  and  C_2
REMARK    2  A    between atoms: C_2  and  C_4
REMARK    3  A    between atoms: C_7  and  N_8
REMARK    4  A    between atoms: N_11  and  C_12
REMARK    5  A    between atoms: C_15  and  N_16
REMARK    6  A    between atoms: N_16  and  S_17
REMARK    7  A    between atoms: S_17  and  C_20
REMARK    8  A    between atoms: C_23  and  C_24
REMARK                            x       y       z     vdW  Elec       q    Type
REMARK                         _______ _______ _______ _____ _____    ______ ____
ROOT
ATOM      1  C   UNL     1       8.082   7.156  18.598  0.00  0.00    +0.000 A 
ATOM      2  C   UNL     1       7.483   7.182  17.330  0.00  0.00    +0.000 A 
ATOM      3  C   UNL     1       6.673   6.124  16.902  0.00  0.00    +0.000 A 
ATOM      4  C   UNL     1       6.441   5.050  17.754  0.00  0.00    +0.000 A 
ATOM      5  C   UNL     1       7.048   5.010  19.010  0.00  0.00    +0.000 A 
ATOM      6  C   UNL     1       7.887   6.049  19.424  0.00  0.00    +0.000 A 
ENDROOT
BRANCH   1  10
ATOM      7  N   UNL     1       9.625  10.399  19.129  0.00  0.00    +0.000 N 
ATOM      8  C   UNL     1       8.786   9.489  18.500  0.00  0.00    +0.000 C 
ATOM      9  O   UNL     1       8.039   9.759  17.566  0.00  0.00    +0.000 OA
ATOM     10  N   UNL     1       8.865   8.232  19.081  0.00  0.00    +0.000 N 
ATOM     11  H   UNL     1      10.465  10.013  19.537  0.00  0.00    +0.000 HD
ATOM     12  H   UNL     1       9.036   8.250  20.077  0.00  0.00    +0.000 HD
BRANCH   7  16
ATOM     13  C   UNL     1       9.503  14.542  18.270  0.00  0.00    +0.000 A 
ATOM     14  C   UNL     1       8.855  14.048  19.401  0.00  0.00    +0.000 A 
ATOM     15  C   UNL     1       8.915  12.684  19.700  0.00  0.00    +0.000 A 
ATOM     16  C   UNL     1       9.609  11.792  18.875  0.00  0.00    +0.000 A 
ATOM     17  C   UNL     1      10.311  12.297  17.778  0.00  0.00    +0.000 A 
ATOM     18  C   UNL     1      10.248  13.667  17.467  0.00  0.00    +0.000 A 
BRANCH  13  20
ATOM     19  C   UNL     1      10.508  16.599  17.061  0.00  0.00    +0.000 C 
ATOM     20  C   UNL     1       9.405  15.987  17.891  0.00  0.00    +0.000 C 
ATOM     21  O   UNL     1       8.436  16.651  18.254  0.00  0.00    +0.000 OA
ENDBRANCH  13  20
ENDBRANCH   7  16
ENDBRANCH   1  10
BRANCH   4  22
ATOM     22  N   UNL     1       5.592   3.977  17.372  0.00  0.00    +0.000 N 
ATOM     23  H   UNL     1       6.021   3.148  16.964  0.00  0.00    +0.000 HD
BRANCH  22  24
ATOM     24  S   UNL     1       4.274   3.589  18.354  0.00  0.00    +0.000 S 
ATOM     25  O   UNL     1       3.353   2.843  17.524  0.00  0.00    +0.000 OA
ATOM     26  O   UNL     1       4.766   3.043  19.601  0.00  0.00    +0.000 OA
BRANCH  24  27
ATOM     27  C   UNL     1       3.542   5.175  18.663  0.00  0.00    +0.000 A 
ATOM     28  C   UNL     1       3.048   5.465  19.938  0.00  0.00    +0.000 A 
ATOM     29  C   UNL     1       2.380   6.672  20.156  0.00  0.00    +0.000 A 
ATOM     30  C   UNL     1       2.216   7.592  19.109  0.00  0.00    +0.000 A 
ATOM     31  C   UNL     1       1.466   8.874  19.320  0.00  0.00    +0.000 C 
ATOM     32  C   UNL     1       2.756   7.303  17.848  0.00  0.00    +0.000 A 
ATOM     33  C   UNL     1       3.417   6.096  17.621  0.00  0.00    +0.000 A 
ENDBRANCH  24  27
ENDBRANCH  22  24
ENDBRANCH   4  22
TORSDOF 6
ENDMDL
