MODEL 1
REMARK VINA RESULT:      -6.4      0.000      0.000
REMARK  Name = 
REMARK  6 active torsions:
REMARK  status: ('A' for Active; 'I' for Inactive)
REMARK    1  A    between atoms: C_1  and  N_2
REMARK    2  A    between atoms: N_13  and  C_14
REMARK    3  A    between atoms: C_14  and  O_15
REMARK    4  A    between atoms: O_15  and  C_16
REMARK    5  A    between atoms: C_16  and  C_17
REMARK    6  A    between atoms: C_17  and  O_18
REMARK                            x       y       z     vdW  Elec       q    Type
REMARK                         _______ _______ _______ _____ _____    ______ ____
ROOT
ATOM      1  C   UNL     1       8.222   6.087  19.055  0.00  0.00    +0.000 C 
ATOM      2  N   UNL     1       6.980   6.254  18.324  0.00  0.00    +0.000 N 
ATOM      3  C   UNL     1       6.026   5.315  18.510  0.00  0.00    +0.000 A 
ATOM      4  N   UNL     1       6.052   4.314  19.368  0.00  0.00    +0.000 NA
ATOM      5  C   UNL     1       4.850   3.683  19.212  0.00  0.00    +0.000 A 
ATOM      6  C   UNL     1       4.297   2.545  19.906  0.00  0.00    +0.000 A 
ATOM      7  O   UNL     1       4.868   1.873  20.759  0.00  0.00    +0.000 OA
ATOM      8  N   UNL     1       2.995   2.272  19.511  0.00  0.00    +0.000 N 
ATOM      9  C   UNL     1       2.289   3.004  18.578  0.00  0.00    +0.000 A 
ATOM     10  N   UNL     1       1.007   2.620  18.367  0.00  0.00    +0.000 N 
ATOM     11  N   UNL     1       2.790   4.013  17.915  0.00  0.00    +0.000 NA
ATOM     12  C   UNL     1       4.068   4.306  18.267  0.00  0.00    +0.000 A 
ATOM     13  N   UNL     1       4.848   5.324  17.787  0.00  0.00    +0.000 N 
ATOM     14  H   UNL     1       7.102   6.597  17.373  0.00  0.00    +0.000 HD
ATOM     15  H   UNL     1       2.556   1.511  19.999  0.00  0.00    +0.000 HD
ATOM     16  H   UNL     1       0.749   1.660  18.548  0.00  0.00    +0.000 HD
ATOM     17  H   UNL     1       0.594   3.014  17.528  0.00  0.00    +0.000 HD
ENDROOT
BRANCH  13  18
ATOM     18  C   UNL     1       4.440   6.313  16.811  0.00  0.00    +0.000 C 
BRANCH  18  19
ATOM     19  O   UNL     1       5.438   6.398  15.785  0.00  0.00    +0.000 OA
BRANCH  19  20
ATOM     20  C   UNL     1       5.528   5.164  15.061  0.00  0.00    +0.000 C 
BRANCH  20  21
ATOM     21  C   UNL     1       6.980   4.948  14.643  0.00  0.00    +0.000 C 
BRANCH  21  22
ATOM     22  O   UNL     1       7.775   4.634  15.783  0.00  0.00    +0.000 OA
ATOM     23  H   UNL     1       7.657   5.378  16.404  0.00  0.00    +0.000 HD
ENDBRANCH  21  22
ENDBRANCH  20  21
ENDBRANCH  19  20
ENDBRANCH  18  19
ENDBRANCH  13  18
TORSDOF 5
ENDMDL
MODEL 2
REMARK VINA RESULT:      -6.4      2.135      3.124
REMARK  Name = 
REMARK  6 active torsions:
REMARK  status: ('A' for Active; 'I' for Inactive)
REMARK    1  A    between atoms: C_1  and  N_2
REMARK    2  A    between atoms: N_13  and  C_14
REMARK    3  A    between atoms: C_14  and  O_15
REMARK    4  A    between atoms: O_15  and  C_16
REMARK    5  A    between atoms: C_16  and  C_17
REMARK    6  A    between atoms: C_17  and  O_18
REMARK                            x       y       z     vdW  Elec       q    Type
REMARK                         _______ _______ _______ _____ _____    ______ ____
ROOT
ATOM      1  C   UNL     1       1.988   8.672  18.490  0.00  0.00    +0.000 C 
ATOM      2  N   UNL     1       2.901   7.786  17.792  0.00  0.00    +0.000 N 
ATOM      3  C   UNL     1       2.919   6.492  18.182  0.00  0.00    +0.000 A 
ATOM      4  N   UNL     1       2.121   5.913  19.057  0.00  0.00    +0.000 NA
ATOM      5  C   UNL     1       2.502   4.600  19.070  0.00  0.00    +0.000 A 
ATOM      6  C   UNL     1       1.966   3.480  19.806  0.00  0.00    +0.000 A 
ATOM      7  O   UNL     1       1.068   3.530  20.640  0.00  0.00    +0.000 OA
ATOM      8  N   UNL     1       2.580   2.285  19.462  0.00  0.00    +0.000 N 
ATOM      9  C   UNL     1       3.576   2.160  18.514  0.00  0.00    +0.000 A 
ATOM     10  N   UNL     1       4.010   0.899  18.271  0.00  0.00    +0.000 N 
ATOM     11  N   UNL     1       4.095   3.170  17.868  0.00  0.00    +0.000 NA
ATOM     12  C   UNL     1       3.527   4.360  18.185  0.00  0.00    +0.000 A 
ATOM     13  N   UNL     1       3.822   5.588  17.654  0.00  0.00    +0.000 N 
ATOM     14  H   UNL     1       3.800   8.208  17.571  0.00  0.00    +0.000 HD
ATOM     15  H   UNL     1       2.209   1.472  19.922  0.00  0.00    +0.000 HD
ATOM     16  H   UNL     1       3.924   0.204  19.000  0.00  0.00    +0.000 HD
ATOM     17  H   UNL     1       4.884   0.860  17.756  0.00  0.00    +0.000 HD
ENDROOT
BRANCH  13  18
ATOM     18  C   UNL     1       4.799   5.848  16.616  0.00  0.00    +0.000 C 
BRANCH  18  19
ATOM     19  O   UNL     1       5.790   6.751  17.121  0.00  0.00    +0.000 OA
BRANCH  19  20
ATOM     20  C   UNL     1       7.089   6.144  17.102  0.00  0.00    +0.000 C 
BRANCH  20  21
ATOM     21  C   UNL     1       7.358   5.526  18.471  0.00  0.00    +0.000 C 
BRANCH  21  22
ATOM     22  O   UNL     1       7.045   4.136  18.450  0.00  0.00    +0.000 OA
ATOM     23  H   UNL     1       6.561   3.984  17.616  0.00  0.00    +0.000 HD
ENDBRANCH  21  22
ENDBRANCH  20  21
ENDBRANCH  19  20
ENDBRANCH  18  19
ENDBRANCH  13  18
TORSDOF 5
ENDMDL
MODEL 3
REMARK VINA RESULT:      -6.3      1.996      3.003
REMARK  Name = 
REMARK  6 active torsions:
REMARK  status: ('A' for Active; 'I' for Inactive)
REMARK    1  A    between atoms: C_1  and  N_2
REMARK    2  A    between atoms: N_13  and  C_14
REMARK    3  A    between atoms: C_14  and  O_15
REMARK    4  A    between atoms: O_15  and  C_16
REMARK    5  A    between atoms: C_16  and  C_17
REMARK    6  A    between atoms: C_17  and  O_18
REMARK                            x       y       z     vdW  Elec       q    Type
REMARK                         _______ _______ _______ _____ _____    ______ ____
ROOT
ATOM      1  C   UNL     1       2.103   8.548  17.826  0.00  0.00    +0.000 C 
ATOM      2  N   UNL     1       3.320   7.769  17.695  0.00  0.00    +0.000 N 
ATOM      3  C   UNL     1       3.379   6.602  18.374  0.00  0.00    +0.000 A 
ATOM      4  N   UNL     1       2.410   6.032  19.061  0.00  0.00    +0.000 NA
ATOM      5  C   UNL     1       2.941   4.857  19.515  0.00  0.00    +0.000 A 
ATOM      6  C   UNL     1       2.339   3.799  20.291  0.00  0.00    +0.000 A 
ATOM      7  O   UNL     1       1.204   3.802  20.755  0.00  0.00    +0.000 OA
ATOM      8  N   UNL     1       3.197   2.722  20.463  0.00  0.00    +0.000 N 
ATOM      9  C   UNL     1       4.474   2.647  19.944  0.00  0.00    +0.000 A 
ATOM     10  N   UNL     1       5.139   1.487  20.169  0.00  0.00    +0.000 N 
ATOM     11  N   UNL     1       5.044   3.612  19.272  0.00  0.00    +0.000 NA
ATOM     12  C   UNL     1       4.238   4.688  19.090  0.00  0.00    +0.000 A 
ATOM     13  N   UNL     1       4.529   5.834  18.399  0.00  0.00    +0.000 N 
ATOM     14  H   UNL     1       4.171   8.329  17.677  0.00  0.00    +0.000 HD
ATOM     15  H   UNL     1       2.803   1.945  20.964  0.00  0.00    +0.000 HD
ATOM     16  H   UNL     1       4.895   0.933  20.978  0.00  0.00    +0.000 HD
ATOM     17  H   UNL     1       6.135   1.545  19.986  0.00  0.00    +0.000 HD
ENDROOT
BRANCH  13  18
ATOM     18  C   UNL     1       5.767   6.108  17.697  0.00  0.00    +0.000 C 
BRANCH  18  19
ATOM     19  O   UNL     1       5.465   6.510  16.355  0.00  0.00    +0.000 OA
BRANCH  19  20
ATOM     20  C   UNL     1       5.450   5.377  15.476  0.00  0.00    +0.000 C 
BRANCH  20  21
ATOM     21  C   UNL     1       6.565   4.422  15.892  0.00  0.00    +0.000 C 
BRANCH  21  22
ATOM     22  O   UNL     1       6.172   3.075  15.646  0.00  0.00    +0.000 OA
ATOM     23  H   UNL     1       6.607   2.540  16.337  0.00  0.00    +0.000 HD
ENDBRANCH  21  22
ENDBRANCH  20  21
ENDBRANCH  19  20
ENDBRANCH  18  19
ENDBRANCH  13  18
TORSDOF 5
ENDMDL
MODEL 4
REMARK VINA RESULT:      -6.3      1.967      2.881
REMARK  Name = 
REMARK  6 active torsions:
REMARK  status: ('A' for Active; 'I' for Inactive)
REMARK    1  A    between atoms: C_1  and  N_2
REMARK    2  A    between atoms: N_13  and  C_14
REMARK    3  A    between atoms: C_14  and  O_15
REMARK    4  A    between atoms: O_15  and  C_16
REMARK    5  A    between atoms: C_16  and  C_17
REMARK    6  A    between atoms: C_17  and  O_18
REMARK                            x       y       z     vdW  Elec       q    Type
REMARK                         _______ _______ _______ _____ _____    ______ ____
ROOT
ATOM      1  C   UNL     1       2.185   8.606  18.091  0.00  0.00    +0.000 C 
ATOM      2  N   UNL     1       3.252   7.709  17.690  0.00  0.00    +0.000 N 
ATOM      3  C   UNL     1       3.132   6.411  18.049  0.00  0.00    +0.000 A 
ATOM      4  N   UNL     1       2.097   5.840  18.633  0.00  0.00    +0.000 NA
ATOM      5  C   UNL     1       2.436   4.520  18.742  0.00  0.00    +0.000 A 
ATOM      6  C   UNL     1       1.685   3.404  19.265  0.00  0.00    +0.000 A 
ATOM      7  O   UNL     1       0.577   3.463  19.788  0.00  0.00    +0.000 OA
ATOM      8  N   UNL     1       2.357   2.200  19.105  0.00  0.00    +0.000 N 
ATOM      9  C   UNL     1       3.590   2.065  18.502  0.00  0.00    +0.000 A 
ATOM     10  N   UNL     1       4.059   0.798  18.385  0.00  0.00    +0.000 N 
ATOM     11  N   UNL     1       4.297   3.071  18.058  0.00  0.00    +0.000 NA
ATOM     12  C   UNL     1       3.678   4.269  18.205  0.00  0.00    +0.000 A 
ATOM     13  N   UNL     1       4.138   5.495  17.806  0.00  0.00    +0.000 N 
ATOM     14  H   UNL     1       4.183   8.116  17.758  0.00  0.00    +0.000 HD
ATOM     15  H   UNL     1       1.851   1.391  19.419  0.00  0.00    +0.000 HD
ATOM     16  H   UNL     1       3.745   0.099  19.043  0.00  0.00    +0.000 HD
ATOM     17  H   UNL     1       5.046   0.747  18.158  0.00  0.00    +0.000 HD
ENDROOT
BRANCH  13  18
ATOM     18  C   UNL     1       5.388   5.746  17.117  0.00  0.00    +0.000 C 
BRANCH  18  19
ATOM     19  O   UNL     1       5.112   6.048  15.743  0.00  0.00    +0.000 OA
BRANCH  19  20
ATOM     20  C   UNL     1       5.506   4.961  14.895  0.00  0.00    +0.000 C 
BRANCH  20  21
ATOM     21  C   UNL     1       6.969   4.631  15.172  0.00  0.00    +0.000 C 
BRANCH  21  22
ATOM     22  O   UNL     1       7.816   5.464  14.386  0.00  0.00    +0.000 OA
ATOM     23  H   UNL     1       8.006   6.247  14.937  0.00  0.00    +0.000 HD
ENDBRANCH  21  22
ENDBRANCH  20  21
ENDBRANCH  19  20
ENDBRANCH  18  19
ENDBRANCH  13  18
TORSDOF 5
ENDMDL
MODEL 5
REMARK VINA RESULT:      -6.3      2.112      3.121
REMARK  Name = 
REMARK  6 active torsions:
REMARK  status: ('A' for Active; 'I' for Inactive)
REMARK    1  A    between atoms: C_1  and  N_2
REMARK    2  A    between atoms: N_13  and  C_14
REMARK    3  A    between atoms: C_14  and  O_15
REMARK    4  A    between atoms: O_15  and  C_16
REMARK    5  A    between atoms: C_16  and  C_17
REMARK    6  A    between atoms: C_17  and  O_18
REMARK                            x       y       z     vdW  Elec       q    Type
REMARK                         _______ _______ _______ _____ _____    ______ ____
ROOT
ATOM      1  C   UNL     1       2.082   8.205  17.975  0.00  0.00    +0.000 C 
ATOM      2  N   UNL     1       3.290   7.409  18.085  0.00  0.00    +0.000 N 
ATOM      3  C   UNL     1       3.136   6.077  18.249  0.00  0.00    +0.000 A 
ATOM      4  N   UNL     1       2.007   5.397  18.214  0.00  0.00    +0.000 NA
ATOM      5  C   UNL     1       2.375   4.091  18.384  0.00  0.00    +0.000 A 
ATOM      6  C   UNL     1       1.575   2.890  18.397  0.00  0.00    +0.000 A 
ATOM      7  O   UNL     1       0.352   2.838  18.316  0.00  0.00    +0.000 OA
ATOM      8  N   UNL     1       2.350   1.744  18.503  0.00  0.00    +0.000 N 
ATOM      9  C   UNL     1       3.729   1.735  18.569  0.00  0.00    +0.000 A 
ATOM     10  N   UNL     1       4.313   0.512  18.609  0.00  0.00    +0.000 N 
ATOM     11  N   UNL     1       4.463   2.815  18.596  0.00  0.00    +0.000 NA
ATOM     12  C   UNL     1       3.739   3.959  18.505  0.00  0.00    +0.000 A 
ATOM     13  N   UNL     1       4.217   5.242  18.466  0.00  0.00    +0.000 N 
ATOM     14  H   UNL     1       4.031   7.852  18.625  0.00  0.00    +0.000 HD
ATOM     15  H   UNL     1       1.835   0.882  18.474  0.00  0.00    +0.000 HD
ATOM     16  H   UNL     1       3.789  -0.268  18.981  0.00  0.00    +0.000 HD
ATOM     17  H   UNL     1       5.288   0.534  18.889  0.00  0.00    +0.000 HD
ENDROOT
BRANCH  13  18
ATOM     18  C   UNL     1       5.613   5.626  18.492  0.00  0.00    +0.000 C 
BRANCH  18  19
ATOM     19  O   UNL     1       5.973   6.171  17.215  0.00  0.00    +0.000 OA
BRANCH  19  20
ATOM     20  C   UNL     1       6.892   5.306  16.534  0.00  0.00    +0.000 C 
BRANCH  20  21
ATOM     21  C   UNL     1       6.118   4.485  15.506  0.00  0.00    +0.000 C 
BRANCH  21  22
ATOM     22  O   UNL     1       5.979   3.142  15.958  0.00  0.00    +0.000 OA
ATOM     23  H   UNL     1       5.618   2.642  15.200  0.00  0.00    +0.000 HD
ENDBRANCH  21  22
ENDBRANCH  20  21
ENDBRANCH  19  20
ENDBRANCH  18  19
ENDBRANCH  13  18
TORSDOF 5
ENDMDL
MODEL 6
REMARK VINA RESULT:      -6.2      2.573      3.211
REMARK  Name = 
REMARK  6 active torsions:
REMARK  status: ('A' for Active; 'I' for Inactive)
REMARK    1  A    between atoms: C_1  and  N_2
REMARK    2  A    between atoms: N_13  and  C_14
REMARK    3  A    between atoms: C_14  and  O_15
REMARK    4  A    between atoms: O_15  and  C_16
REMARK    5  A    between atoms: C_16  and  C_17
REMARK    6  A    between atoms: C_17  and  O_18
REMARK                            x       y       z     vdW  Elec       q    Type
REMARK                         _______ _______ _______ _____ _____    ______ ____
ROOT
ATOM      1  C   UNL     1       1.387   8.188  20.788  0.00  0.00    +0.000 C 
ATOM      2  N   UNL     1       2.156   7.585  19.715  0.00  0.00    +0.000 N 
ATOM      3  C   UNL     1       2.430   6.266  19.821  0.00  0.00    +0.000 A 
ATOM      4  N   UNL     1       1.984   5.432  20.740  0.00  0.00    +0.000 NA
ATOM      5  C   UNL     1       2.497   4.214  20.392  0.00  0.00    +0.000 A 
ATOM      6  C   UNL     1       2.321   2.918  21.003  0.00  0.00    +0.000 A 
ATOM      7  O   UNL     1       1.698   2.687  22.034  0.00  0.00    +0.000 OA
ATOM      8  N   UNL     1       2.942   1.909  20.281  0.00  0.00    +0.000 N 
ATOM      9  C   UNL     1       3.634   2.101  19.102  0.00  0.00    +0.000 A 
ATOM     10  N   UNL     1       4.119   0.984  18.509  0.00  0.00    +0.000 N 
ATOM     11  N   UNL     1       3.831   3.273  18.557  0.00  0.00    +0.000 NA
ATOM     12  C   UNL     1       3.248   4.289  19.241  0.00  0.00    +0.000 A 
ATOM     13  N   UNL     1       3.240   5.617  18.907  0.00  0.00    +0.000 N 
ATOM     14  H   UNL     1       2.902   8.178  19.357  0.00  0.00    +0.000 HD
ATOM     15  H   UNL     1       2.810   0.984  20.650  0.00  0.00    +0.000 HD
ATOM     16  H   UNL     1       4.322   0.176  19.082  0.00  0.00    +0.000 HD
ATOM     17  H   UNL     1       4.809   1.170  17.788  0.00  0.00    +0.000 HD
ENDROOT
BRANCH  13  18
ATOM     18  C   UNL     1       3.845   6.195  17.725  0.00  0.00    +0.000 C 
BRANCH  18  19
ATOM     19  O   UNL     1       5.271   6.170  17.869  0.00  0.00    +0.000 OA
BRANCH  19  20
ATOM     20  C   UNL     1       5.901   5.834  16.625  0.00  0.00    +0.000 C 
BRANCH  20  21
ATOM     21  C   UNL     1       6.741   4.576  16.827  0.00  0.00    +0.000 C 
BRANCH  21  22
ATOM     22  O   UNL     1       6.652   4.142  18.181  0.00  0.00    +0.000 OA
ATOM     23  H   UNL     1       5.899   4.628  18.569  0.00  0.00    +0.000 HD
ENDBRANCH  21  22
ENDBRANCH  20  21
ENDBRANCH  19  20
ENDBRANCH  18  19
ENDBRANCH  13  18
TORSDOF 5
ENDMDL
MODEL 7
REMARK VINA RESULT:      -6.2      2.184      3.282
REMARK  Name = 
REMARK  6 active torsions:
REMARK  status: ('A' for Active; 'I' for Inactive)
REMARK    1  A    between atoms: C_1  and  N_2
REMARK    2  A    between atoms: N_13  and  C_14
REMARK    3  A    between atoms: C_14  and  O_15
REMARK    4  A    between atoms: O_15  and  C_16
REMARK    5  A    between atoms: C_16  and  C_17
REMARK    6  A    between atoms: C_17  and  O_18
REMARK                            x       y       z     vdW  Elec       q    Type
REMARK                         _______ _______ _______ _____ _____    ______ ____
ROOT
ATOM      1  C   UNL     1       6.302   4.004  13.929  0.00  0.00    +0.000 C 
ATOM      2  N   UNL     1       6.236   5.019  14.963  0.00  0.00    +0.000 N 
ATOM      3  C   UNL     1       5.322   4.841  15.943  0.00  0.00    +0.000 A 
ATOM      4  N   UNL     1       4.551   3.789  16.128  0.00  0.00    +0.000 NA
ATOM      5  C   UNL     1       3.844   4.064  17.266  0.00  0.00    +0.000 A 
ATOM      6  C   UNL     1       2.874   3.267  17.977  0.00  0.00    +0.000 A 
ATOM      7  O   UNL     1       2.446   2.171  17.629  0.00  0.00    +0.000 OA
ATOM      8  N   UNL     1       2.456   3.875  19.152  0.00  0.00    +0.000 N 
ATOM      9  C   UNL     1       2.918   5.092  19.612  0.00  0.00    +0.000 A 
ATOM     10  N   UNL     1       2.436   5.495  20.813  0.00  0.00    +0.000 N 
ATOM     11  N   UNL     1       3.768   5.840  18.960  0.00  0.00    +0.000 NA
ATOM     12  C   UNL     1       4.194   5.283  17.799  0.00  0.00    +0.000 A 
ATOM     13  N   UNL     1       5.108   5.797  16.918  0.00  0.00    +0.000 N 
ATOM     14  H   UNL     1       6.355   5.970  14.619  0.00  0.00    +0.000 HD
ATOM     15  H   UNL     1       1.809   3.335  19.700  0.00  0.00    +0.000 HD
ATOM     16  H   UNL     1       1.533   5.157  21.115  0.00  0.00    +0.000 HD
ATOM     17  H   UNL     1       2.605   6.475  21.013  0.00  0.00    +0.000 HD
ENDROOT
BRANCH  13  18
ATOM     18  C   UNL     1       5.824   7.047  17.076  0.00  0.00    +0.000 C 
BRANCH  18  19
ATOM     19  O   UNL     1       7.233   6.791  17.007  0.00  0.00    +0.000 OA
BRANCH  19  20
ATOM     20  C   UNL     1       7.832   6.895  18.306  0.00  0.00    +0.000 C 
BRANCH  20  21
ATOM     21  C   UNL     1       7.601   5.587  19.057  0.00  0.00    +0.000 C 
BRANCH  21  22
ATOM     22  O   UNL     1       8.585   5.427  20.074  0.00  0.00    +0.000 OA
ATOM     23  H   UNL     1       8.815   6.330  20.367  0.00  0.00    +0.000 HD
ENDBRANCH  21  22
ENDBRANCH  20  21
ENDBRANCH  19  20
ENDBRANCH  18  19
ENDBRANCH  13  18
TORSDOF 5
ENDMDL
MODEL 8
REMARK VINA RESULT:      -6.1      2.156      4.952
REMARK  Name = 
REMARK  6 active torsions:
REMARK  status: ('A' for Active; 'I' for Inactive)
REMARK    1  A    between atoms: C_1  and  N_2
REMARK    2  A    between atoms: N_13  and  C_14
REMARK    3  A    between atoms: C_14  and  O_15
REMARK    4  A    between atoms: O_15  and  C_16
REMARK    5  A    between atoms: C_16  and  C_17
REMARK    6  A    between atoms: C_17  and  O_18
REMARK                            x       y       z     vdW  Elec       q    Type
REMARK                         _______ _______ _______ _____ _____    ______ ____
ROOT
ATOM      1  C   UNL     1       2.145   6.478  20.263  0.00  0.00    +0.000 C 
ATOM      2  N   UNL     1       2.213   5.357  19.344  0.00  0.00    +0.000 N 
ATOM      3  C   UNL     1       3.170   5.400  18.391  0.00  0.00    +0.000 A 
ATOM      4  N   UNL     1       4.126   6.299  18.265  0.00  0.00    +0.000 NA
ATOM      5  C   UNL     1       4.861   5.885  17.189  0.00  0.00    +0.000 A 
ATOM      6  C   UNL     1       6.052   6.449  16.599  0.00  0.00    +0.000 A 
ATOM      7  O   UNL     1       6.602   7.490  16.943  0.00  0.00    +0.000 OA
ATOM      8  N   UNL     1       6.547   5.665  15.567  0.00  0.00    +0.000 N 
ATOM      9  C   UNL     1       5.990   4.473  15.152  0.00  0.00    +0.000 A 
ATOM     10  N   UNL     1       6.652   3.819  14.166  0.00  0.00    +0.000 N 
ATOM     11  N   UNL     1       4.893   3.970  15.652  0.00  0.00    +0.000 NA
ATOM     12  C   UNL     1       4.371   4.714  16.659  0.00  0.00    +0.000 A 
ATOM     13  N   UNL     1       3.257   4.434  17.406  0.00  0.00    +0.000 N 
ATOM     14  H   UNL     1       1.304   4.998  19.061  0.00  0.00    +0.000 HD
ATOM     15  H   UNL     1       7.400   6.001  15.154  0.00  0.00    +0.000 HD
ATOM     16  H   UNL     1       7.227   4.352  13.528  0.00  0.00    +0.000 HD
ATOM     17  H   UNL     1       6.109   3.083  13.727  0.00  0.00    +0.000 HD
ENDROOT
BRANCH  13  18
ATOM     18  C   UNL     1       2.424   3.257  17.274  0.00  0.00    +0.000 C 
BRANCH  18  19
ATOM     19  O   UNL     1       2.375   2.574  18.534  0.00  0.00    +0.000 OA
BRANCH  19  20
ATOM     20  C   UNL     1       3.507   1.707  18.686  0.00  0.00    +0.000 C 
BRANCH  20  21
ATOM     21  C   UNL     1       4.294   2.145  19.918  0.00  0.00    +0.000 C 
BRANCH  21  22
ATOM     22  O   UNL     1       5.383   2.978  19.532  0.00  0.00    +0.000 OA
ATOM     23  H   UNL     1       5.916   2.449  18.907  0.00  0.00    +0.000 HD
ENDBRANCH  21  22
ENDBRANCH  20  21
ENDBRANCH  19  20
ENDBRANCH  18  19
ENDBRANCH  13  18
TORSDOF 5
ENDMDL
MODEL 9
REMARK VINA RESULT:      -6.0      1.899      2.868
REMARK  Name = 
REMARK  6 active torsions:
REMARK  status: ('A' for Active; 'I' for Inactive)
REMARK    1  A    between atoms: C_1  and  N_2
REMARK    2  A    between atoms: N_13  and  C_14
REMARK    3  A    between atoms: C_14  and  O_15
REMARK    4  A    between atoms: O_15  and  C_16
REMARK    5  A    between atoms: C_16  and  C_17
REMARK    6  A    between atoms: C_17  and  O_18
REMARK                            x       y       z     vdW  Elec       q    Type
REMARK                         _______ _______ _______ _____ _____    ______ ____
ROOT
ATOM      1  C   UNL     1       8.012   6.166  18.861  0.00  0.00    +0.000 C 
ATOM      2  N   UNL     1       6.687   6.348  18.298  0.00  0.00    +0.000 N 
ATOM      3  C   UNL     1       5.790   5.359  18.504  0.00  0.00    +0.000 A 
ATOM      4  N   UNL     1       5.946   4.288  19.255  0.00  0.00    +0.000 NA
ATOM      5  C   UNL     1       4.752   3.626  19.181  0.00  0.00    +0.000 A 
ATOM      6  C   UNL     1       4.319   2.408  19.824  0.00  0.00    +0.000 A 
ATOM      7  O   UNL     1       5.007   1.686  20.538  0.00  0.00    +0.000 OA
ATOM      8  N   UNL     1       2.988   2.121  19.558  0.00  0.00    +0.000 N 
ATOM      9  C   UNL     1       2.155   2.906  18.787  0.00  0.00    +0.000 A 
ATOM     10  N   UNL     1       0.868   2.492  18.691  0.00  0.00    +0.000 N 
ATOM     11  N   UNL     1       2.545   3.990  18.169  0.00  0.00    +0.000 NA
ATOM     12  C   UNL     1       3.846   4.300  18.396  0.00  0.00    +0.000 A 
ATOM     13  N   UNL     1       4.534   5.387  17.927  0.00  0.00    +0.000 N 
ATOM     14  H   UNL     1       6.685   6.781  17.376  0.00  0.00    +0.000 HD
ATOM     15  H   UNL     1       2.632   1.302  20.020  0.00  0.00    +0.000 HD
ATOM     16  H   UNL     1       0.661   1.510  18.809  0.00  0.00    +0.000 HD
ATOM     17  H   UNL     1       0.348   2.944  17.946  0.00  0.00    +0.000 HD
ENDROOT
BRANCH  13  18
ATOM     18  C   UNL     1       3.985   6.444  17.102  0.00  0.00    +0.000 C 
BRANCH  18  19
ATOM     19  O   UNL     1       3.697   7.580  17.927  0.00  0.00    +0.000 OA
BRANCH  19  20
ATOM     20  C   UNL     1       2.290   7.673  18.192  0.00  0.00    +0.000 C 
BRANCH  20  21
ATOM     21  C   UNL     1       2.081   7.747  19.701  0.00  0.00    +0.000 C 
BRANCH  21  22
ATOM     22  O   UNL     1       2.289   6.465  20.287  0.00  0.00    +0.000 OA
ATOM     23  H   UNL     1       3.056   6.080  19.821  0.00  0.00    +0.000 HD
ENDBRANCH  21  22
ENDBRANCH  20  21
ENDBRANCH  19  20
ENDBRANCH  18  19
ENDBRANCH  13  18
TORSDOF 5
ENDMDL
