MODEL 1
REMARK VINA RESULT:      -8.1      0.000      0.000
REMARK  Name = 
REMARK  5 active torsions:
REMARK  status: ('A' for Active; 'I' for Inactive)
REMARK    1  A    between atoms: C_1  and  O_2
REMARK    2  A    between atoms: O_2  and  C_3
REMARK    3  A    between atoms: C_8  and  N_9
REMARK    4  A    between atoms: N_12  and  C_13
REMARK    5  A    between atoms: N_21  and  C_22
REMARK                            x       y       z     vdW  Elec       q    Type
REMARK                         _______ _______ _______ _____ _____    ______ ____
ROOT
ATOM      1  N   UNL     1       8.445  10.318  18.101  0.00  0.00    +0.000 N 
ATOM      2  C   UNL     1       8.288   8.937  18.173  0.00  0.00    +0.000 C 
ATOM      3  O   UNL     1       8.981   8.206  18.872  0.00  0.00    +0.000 OA
ATOM      4  N   UNL     1       7.278   8.485  17.354  0.00  0.00    +0.000 N 
ATOM      5  H   UNL     1       7.592  10.859  18.192  0.00  0.00    +0.000 HD
ATOM      6  H   UNL     1       7.068   9.077  16.561  0.00  0.00    +0.000 HD
ENDROOT
BRANCH   4   7
ATOM      7  C   UNL     1       6.691   7.202  17.396  0.00  0.00    +0.000 A 
ATOM      8  C   UNL     1       7.460   6.012  17.506  0.00  0.00    +0.000 A 
ATOM      9  C   UNL     1       6.877   4.807  17.934  0.00  0.00    +0.000 A 
ATOM     10  C   UNL     1       5.522   4.822  18.185  0.00  0.00    +0.000 A 
ATOM     11  C   UNL     1       4.754   5.923  17.868  0.00  0.00    +0.000 A 
ATOM     12  C   UNL     1       5.305   7.137  17.511  0.00  0.00    +0.000 A 
ATOM     13  C   UNL     1       3.398   5.670  18.313  0.00  0.00    +0.000 C 
ATOM     14  O   UNL     1       2.444   6.372  18.032  0.00  0.00    +0.000 OA
ATOM     15  N   UNL     1       3.469   4.577  19.127  0.00  0.00    +0.000 N 
ATOM     16  C   UNL     1       2.530   4.452  20.214  0.00  0.00    +0.000 C 
ATOM     17  C   UNL     1       4.696   3.977  19.070  0.00  0.00    +0.000 C 
ATOM     18  O   UNL     1       5.136   3.043  19.713  0.00  0.00    +0.000 OA
ENDBRANCH   4   7
BRANCH   1  24
ATOM     19  C   UNL     1       9.689  11.267  20.000  0.00  0.00    +0.000 A 
ATOM     20  C   UNL     1      10.862  11.879  20.473  0.00  0.00    +0.000 A 
ATOM     21  C   UNL     1      11.927  12.152  19.613  0.00  0.00    +0.000 A 
ATOM     22  C   UNL     1      11.838  11.830  18.267  0.00  0.00    +0.000 A 
ATOM     23  C   UNL     1      10.678  11.230  17.778  0.00  0.00    +0.000 A 
ATOM     24  C   UNL     1       9.604  10.938  18.640  0.00  0.00    +0.000 A 
BRANCH  19  26
ATOM     25  C   UNL     1       8.533  11.709  22.012  0.00  0.00    +0.000 C 
ATOM     26  O   UNL     1       8.621  10.951  20.803  0.00  0.00    +0.000 OA
ENDBRANCH  19  26
ENDBRANCH   1  24
TORSDOF 3
ENDMDL
MODEL 2
REMARK VINA RESULT:      -7.9      2.316      8.464
REMARK  Name = 
REMARK  5 active torsions:
REMARK  status: ('A' for Active; 'I' for Inactive)
REMARK    1  A    between atoms: C_1  and  O_2
REMARK    2  A    between atoms: O_2  and  C_3
REMARK    3  A    between atoms: C_8  and  N_9
REMARK    4  A    between atoms: N_12  and  C_13
REMARK    5  A    between atoms: N_21  and  C_22
REMARK                            x       y       z     vdW  Elec       q    Type
REMARK                         _______ _______ _______ _____ _____    ______ ____
ROOT
ATOM      1  N   UNL     1       6.897   7.763  16.929  0.00  0.00    +0.000 N 
ATOM      2  C   UNL     1       7.826   8.192  17.872  0.00  0.00    +0.000 C 
ATOM      3  O   UNL     1       8.367   7.451  18.685  0.00  0.00    +0.000 OA
ATOM      4  N   UNL     1       8.054   9.548  17.799  0.00  0.00    +0.000 N 
ATOM      5  H   UNL     1       7.057   8.085  15.981  0.00  0.00    +0.000 HD
ATOM      6  H   UNL     1       7.297  10.092  17.404  0.00  0.00    +0.000 HD
ENDROOT
BRANCH   4   7
ATOM      7  C   UNL     1       9.117  10.243  18.414  0.00  0.00    +0.000 A 
ATOM      8  C   UNL     1      10.254  10.696  17.692  0.00  0.00    +0.000 A 
ATOM      9  C   UNL     1      11.092  11.698  18.210  0.00  0.00    +0.000 A 
ATOM     10  C   UNL     1      10.792  12.176  19.467  0.00  0.00    +0.000 A 
ATOM     11  C   UNL     1       9.820  11.577  20.241  0.00  0.00    +0.000 A 
ATOM     12  C   UNL     1       8.941  10.640  19.736  0.00  0.00    +0.000 A 
ATOM     13  C   UNL     1       9.684  12.340  21.465  0.00  0.00    +0.000 C 
ATOM     14  O   UNL     1       9.033  11.979  22.427  0.00  0.00    +0.000 OA
ATOM     15  N   UNL     1      10.354  13.510  21.253  0.00  0.00    +0.000 N 
ATOM     16  C   UNL     1       9.901  14.706  21.918  0.00  0.00    +0.000 C 
ATOM     17  C   UNL     1      11.087  13.477  20.099  0.00  0.00    +0.000 C 
ATOM     18  O   UNL     1      11.732  14.357  19.562  0.00  0.00    +0.000 OA
ENDBRANCH   4   7
BRANCH   1  24
ATOM     19  C   UNL     1       6.666   5.444  16.141  0.00  0.00    +0.000 A 
ATOM     20  C   UNL     1       6.058   4.186  16.291  0.00  0.00    +0.000 A 
ATOM     21  C   UNL     1       5.128   3.955  17.307  0.00  0.00    +0.000 A 
ATOM     22  C   UNL     1       4.781   4.973  18.181  0.00  0.00    +0.000 A 
ATOM     23  C   UNL     1       5.368   6.231  18.042  0.00  0.00    +0.000 A 
ATOM     24  C   UNL     1       6.317   6.470  17.030  0.00  0.00    +0.000 A 
BRANCH  19  26
ATOM     25  C   UNL     1       7.407   5.050  13.933  0.00  0.00    +0.000 C 
ATOM     26  O   UNL     1       7.606   5.722  15.179  0.00  0.00    +0.000 OA
ENDBRANCH  19  26
ENDBRANCH   1  24
TORSDOF 3
ENDMDL
MODEL 3
REMARK VINA RESULT:      -7.7      4.713      7.393
REMARK  Name = 
REMARK  5 active torsions:
REMARK  status: ('A' for Active; 'I' for Inactive)
REMARK    1  A    between atoms: C_1  and  O_2
REMARK    2  A    between atoms: O_2  and  C_3
REMARK    3  A    between atoms: C_8  and  N_9
REMARK    4  A    between atoms: N_12  and  C_13
REMARK    5  A    between atoms: N_21  and  C_22
REMARK                            x       y       z     vdW  Elec       q    Type
REMARK                         _______ _______ _______ _____ _____    ______ ____
ROOT
ATOM      1  N   UNL     1       4.715   7.330  17.103  0.00  0.00    +0.000 N 
ATOM      2  C   UNL     1       3.568   7.140  17.867  0.00  0.00    +0.000 C 
ATOM      3  O   UNL     1       3.218   6.055  18.316  0.00  0.00    +0.000 OA
ATOM      4  N   UNL     1       2.862   8.309  18.044  0.00  0.00    +0.000 N 
ATOM      5  H   UNL     1       5.304   8.108  17.383  0.00  0.00    +0.000 HD
ATOM      6  H   UNL     1       3.003   9.012  17.330  0.00  0.00    +0.000 HD
ENDROOT
BRANCH   4   7
ATOM      7  C   UNL     1       1.823   8.514  18.977  0.00  0.00    +0.000 A 
ATOM      8  C   UNL     1       1.776   7.844  20.230  0.00  0.00    +0.000 A 
ATOM      9  C   UNL     1       0.985   8.330  21.285  0.00  0.00    +0.000 A 
ATOM     10  C   UNL     1       0.218   9.446  21.029  0.00  0.00    +0.000 A 
ATOM     11  C   UNL     1       0.109   9.954  19.751  0.00  0.00    +0.000 A 
ATOM     12  C   UNL     1       0.922   9.542  18.715  0.00  0.00    +0.000 A 
ATOM     13  C   UNL     1      -0.696  11.158  19.812  0.00  0.00    +0.000 C 
ATOM     14  O   UNL     1      -1.117  11.749  18.835  0.00  0.00    +0.000 OA
ATOM     15  N   UNL     1      -0.787  11.481  21.135  0.00  0.00    +0.000 N 
ATOM     16  C   UNL     1      -0.905  12.868  21.510  0.00  0.00    +0.000 C 
ATOM     17  C   UNL     1      -0.307  10.483  21.938  0.00  0.00    +0.000 C 
ATOM     18  O   UNL     1      -0.159  10.460  23.145  0.00  0.00    +0.000 OA
ENDBRANCH   4   7
BRANCH   1  24
ATOM     19  C   UNL     1       6.365   5.519  17.331  0.00  0.00    +0.000 A 
ATOM     20  C   UNL     1       7.025   4.425  16.749  0.00  0.00    +0.000 A 
ATOM     21  C   UNL     1       6.742   4.028  15.441  0.00  0.00    +0.000 A 
ATOM     22  C   UNL     1       5.807   4.722  14.688  0.00  0.00    +0.000 A 
ATOM     23  C   UNL     1       5.148   5.817  15.247  0.00  0.00    +0.000 A 
ATOM     24  C   UNL     1       5.416   6.216  16.570  0.00  0.00    +0.000 A 
BRANCH  19  26
ATOM     25  C   UNL     1       7.934   5.820  19.072  0.00  0.00    +0.000 C 
ATOM     26  O   UNL     1       6.582   5.938  18.621  0.00  0.00    +0.000 OA
ENDBRANCH  19  26
ENDBRANCH   1  24
TORSDOF 3
ENDMDL
MODEL 4
REMARK VINA RESULT:      -7.7      6.138      8.063
REMARK  Name = 
REMARK  5 active torsions:
REMARK  status: ('A' for Active; 'I' for Inactive)
REMARK    1  A    between atoms: C_1  and  O_2
REMARK    2  A    between atoms: O_2  and  C_3
REMARK    3  A    between atoms: C_8  and  N_9
REMARK    4  A    between atoms: N_12  and  C_13
REMARK    5  A    between atoms: N_21  and  C_22
REMARK                            x       y       z     vdW  Elec       q    Type
REMARK                         _______ _______ _______ _____ _____    ______ ____
ROOT
ATOM      1  N   UNL     1       0.811  10.344  21.776  0.00  0.00    +0.000 N 
ATOM      2  C   UNL     1       0.626   9.264  20.917  0.00  0.00    +0.000 C 
ATOM      3  O   UNL     1      -0.331   9.149  20.161  0.00  0.00    +0.000 OA
ATOM      4  N   UNL     1       1.633   8.332  21.030  0.00  0.00    +0.000 N 
ATOM      5  H   UNL     1       1.736  10.759  21.762  0.00  0.00    +0.000 HD
ATOM      6  H   UNL     1       2.114   8.321  21.920  0.00  0.00    +0.000 HD
ENDROOT
BRANCH   4   7
ATOM      7  C   UNL     1       1.888   7.277  20.127  0.00  0.00    +0.000 A 
ATOM      8  C   UNL     1       2.456   7.491  18.842  0.00  0.00    +0.000 A 
ATOM      9  C   UNL     1       3.056   6.439  18.129  0.00  0.00    +0.000 A 
ATOM     10  C   UNL     1       3.017   5.189  18.707  0.00  0.00    +0.000 A 
ATOM     11  C   UNL     1       2.276   4.957  19.848  0.00  0.00    +0.000 A 
ATOM     12  C   UNL     1       1.735   5.978  20.603  0.00  0.00    +0.000 A 
ATOM     13  C   UNL     1       2.490   3.582  20.252  0.00  0.00    +0.000 C 
ATOM     14  O   UNL     1       1.851   3.018  21.121  0.00  0.00    +0.000 OA
ATOM     15  N   UNL     1       3.557   3.140  19.526  0.00  0.00    +0.000 N 
ATOM     16  C   UNL     1       4.427   2.143  20.098  0.00  0.00    +0.000 C 
ATOM     17  C   UNL     1       3.906   4.022  18.542  0.00  0.00    +0.000 C 
ATOM     18  O   UNL     1       4.845   3.994  17.769  0.00  0.00    +0.000 OA
ENDBRANCH   4   7
BRANCH   1  24
ATOM     19  C   UNL     1      -0.361  12.453  21.295  0.00  0.00    +0.000 A 
ATOM     20  C   UNL     1      -1.431  13.317  21.580  0.00  0.00    +0.000 A 
ATOM     21  C   UNL     1      -2.373  12.994  22.559  0.00  0.00    +0.000 A 
ATOM     22  C   UNL     1      -2.257  11.814  23.277  0.00  0.00    +0.000 A 
ATOM     23  C   UNL     1      -1.196  10.948  23.014  0.00  0.00    +0.000 A 
ATOM     24  C   UNL     1      -0.250  11.258  22.019  0.00  0.00    +0.000 A 
BRANCH  19  26
ATOM     25  C   UNL     1       0.104  12.589  18.982  0.00  0.00    +0.000 C 
ATOM     26  O   UNL     1       0.579  12.704  20.326  0.00  0.00    +0.000 OA
ENDBRANCH  19  26
ENDBRANCH   1  24
TORSDOF 3
ENDMDL
MODEL 5
REMARK VINA RESULT:      -7.7      5.213      7.912
REMARK  Name = 
REMARK  5 active torsions:
REMARK  status: ('A' for Active; 'I' for Inactive)
REMARK    1  A    between atoms: C_1  and  O_2
REMARK    2  A    between atoms: O_2  and  C_3
REMARK    3  A    between atoms: C_8  and  N_9
REMARK    4  A    between atoms: N_12  and  C_13
REMARK    5  A    between atoms: N_21  and  C_22
REMARK                            x       y       z     vdW  Elec       q    Type
REMARK                         _______ _______ _______ _____ _____    ______ ____
ROOT
ATOM      1  N   UNL     1       0.403  10.320  17.837  0.00  0.00    +0.000 N 
ATOM      2  C   UNL     1       1.216   9.409  18.504  0.00  0.00    +0.000 C 
ATOM      3  O   UNL     1       1.193   9.234  19.717  0.00  0.00    +0.000 OA
ATOM      4  N   UNL     1       2.060   8.740  17.647  0.00  0.00    +0.000 N 
ATOM      5  H   UNL     1      -0.072   9.962  17.015  0.00  0.00    +0.000 HD
ATOM      6  H   UNL     1       2.277   9.227  16.787  0.00  0.00    +0.000 HD
ENDROOT
BRANCH   4   7
ATOM      7  C   UNL     1       2.802   7.579  17.954  0.00  0.00    +0.000 A 
ATOM      8  C   UNL     1       2.250   6.489  18.680  0.00  0.00    +0.000 A 
ATOM      9  C   UNL     1       2.843   5.215  18.641  0.00  0.00    +0.000 A 
ATOM     10  C   UNL     1       4.009   5.091  17.917  0.00  0.00    +0.000 A 
ATOM     11  C   UNL     1       4.646   6.200  17.400  0.00  0.00    +0.000 A 
ATOM     12  C   UNL     1       4.055   7.447  17.364  0.00  0.00    +0.000 A 
ATOM     13  C   UNL     1       5.791   5.746  16.635  0.00  0.00    +0.000 C 
ATOM     14  O   UNL     1       6.652   6.483  16.193  0.00  0.00    +0.000 OA
ATOM     15  N   UNL     1       5.629   4.400  16.481  0.00  0.00    +0.000 N 
ATOM     16  C   UNL     1       6.148   3.765  15.295  0.00  0.00    +0.000 C 
ATOM     17  C   UNL     1       4.612   3.916  17.256  0.00  0.00    +0.000 C 
ATOM     18  O   UNL     1       4.141   2.796  17.310  0.00  0.00    +0.000 OA
ENDBRANCH   4   7
BRANCH   1  24
ATOM     19  C   UNL     1      -1.690  11.150  18.828  0.00  0.00    +0.000 A 
ATOM     20  C   UNL     1      -2.353  12.155  19.552  0.00  0.00    +0.000 A 
ATOM     21  C   UNL     1      -1.667  13.283  20.007  0.00  0.00    +0.000 A 
ATOM     22  C   UNL     1      -0.315  13.433  19.740  0.00  0.00    +0.000 A 
ATOM     23  C   UNL     1       0.358  12.449  19.015  0.00  0.00    +0.000 A 
ATOM     24  C   UNL     1      -0.322  11.302  18.563  0.00  0.00    +0.000 A 
BRANCH  19  26
ATOM     25  C   UNL     1      -3.248  10.210  17.321  0.00  0.00    +0.000 C 
ATOM     26  O   UNL     1      -2.306  10.008  18.378  0.00  0.00    +0.000 OA
ENDBRANCH  19  26
ENDBRANCH   1  24
TORSDOF 3
ENDMDL
MODEL 6
REMARK VINA RESULT:      -7.6      5.808      7.512
REMARK  Name = 
REMARK  5 active torsions:
REMARK  status: ('A' for Active; 'I' for Inactive)
REMARK    1  A    between atoms: C_1  and  O_2
REMARK    2  A    between atoms: O_2  and  C_3
REMARK    3  A    between atoms: C_8  and  N_9
REMARK    4  A    between atoms: N_12  and  C_13
REMARK    5  A    between atoms: N_21  and  C_22
REMARK                            x       y       z     vdW  Elec       q    Type
REMARK                         _______ _______ _______ _____ _____    ______ ____
ROOT
ATOM      1  N   UNL     1       1.288   9.599  21.693  0.00  0.00    +0.000 N 
ATOM      2  C   UNL     1       1.124   8.822  20.551  0.00  0.00    +0.000 C 
ATOM      3  O   UNL     1       0.336   9.087  19.651  0.00  0.00    +0.000 OA
ATOM      4  N   UNL     1       1.937   7.711  20.557  0.00  0.00    +0.000 N 
ATOM      5  H   UNL     1       2.247   9.814  21.942  0.00  0.00    +0.000 HD
ATOM      6  H   UNL     1       2.220   7.387  21.473  0.00  0.00    +0.000 HD
ENDROOT
BRANCH   4   7
ATOM      7  C   UNL     1       2.213   6.881  19.449  0.00  0.00    +0.000 A 
ATOM      8  C   UNL     1       3.126   7.250  18.425  0.00  0.00    +0.000 A 
ATOM      9  C   UNL     1       3.679   6.289  17.562  0.00  0.00    +0.000 A 
ATOM     10  C   UNL     1       3.252   4.988  17.719  0.00  0.00    +0.000 A 
ATOM     11  C   UNL     1       2.209   4.681  18.570  0.00  0.00    +0.000 A 
ATOM     12  C   UNL     1       1.696   5.589  19.474  0.00  0.00    +0.000 A 
ATOM     13  C   UNL     1       2.043   3.242  18.577  0.00  0.00    +0.000 C 
ATOM     14  O   UNL     1       1.104   2.665  19.094  0.00  0.00    +0.000 OA
ATOM     15  N   UNL     1       3.158   2.733  17.977  0.00  0.00    +0.000 N 
ATOM     16  C   UNL     1       3.642   1.437  18.383  0.00  0.00    +0.000 C 
ATOM     17  C   UNL     1       3.914   3.710  17.391  0.00  0.00    +0.000 C 
ATOM     18  O   UNL     1       4.998   3.633  16.845  0.00  0.00    +0.000 OA
ENDBRANCH   4   7
BRANCH   1  24
ATOM     19  C   UNL     1       0.457  11.904  21.468  0.00  0.00    +0.000 A 
ATOM     20  C   UNL     1      -0.503  12.867  21.819  0.00  0.00    +0.000 A 
ATOM     21  C   UNL     1      -1.552  12.553  22.685  0.00  0.00    +0.000 A 
ATOM     22  C   UNL     1      -1.655  11.280  23.225  0.00  0.00    +0.000 A 
ATOM     23  C   UNL     1      -0.706  10.313  22.894  0.00  0.00    +0.000 A 
ATOM     24  C   UNL     1       0.348  10.616  22.011  0.00  0.00    +0.000 A 
BRANCH  19  26
ATOM     25  C   UNL     1       2.055  13.460  20.688  0.00  0.00    +0.000 C 
ATOM     26  O   UNL     1       1.494  12.147  20.601  0.00  0.00    +0.000 OA
ENDBRANCH  19  26
ENDBRANCH   1  24
TORSDOF 3
ENDMDL
MODEL 7
REMARK VINA RESULT:      -7.6      5.204      7.416
REMARK  Name = 
REMARK  5 active torsions:
REMARK  status: ('A' for Active; 'I' for Inactive)
REMARK    1  A    between atoms: C_1  and  O_2
REMARK    2  A    between atoms: O_2  and  C_3
REMARK    3  A    between atoms: C_8  and  N_9
REMARK    4  A    between atoms: N_12  and  C_13
REMARK    5  A    between atoms: N_21  and  C_22
REMARK                            x       y       z     vdW  Elec       q    Type
REMARK                         _______ _______ _______ _____ _____    ______ ____
ROOT
ATOM      1  N   UNL     1       0.356  10.394  17.931  0.00  0.00    +0.000 N 
ATOM      2  C   UNL     1       1.209   9.501  18.572  0.00  0.00    +0.000 C 
ATOM      3  O   UNL     1       1.303   9.400  19.790  0.00  0.00    +0.000 OA
ATOM      4  N   UNL     1       1.949   8.757  17.681  0.00  0.00    +0.000 N 
ATOM      5  H   UNL     1      -0.206  10.001  17.183  0.00  0.00    +0.000 HD
ATOM      6  H   UNL     1       2.092   9.185  16.775  0.00  0.00    +0.000 HD
ENDROOT
BRANCH   4   7
ATOM      7  C   UNL     1       2.691   7.596  17.988  0.00  0.00    +0.000 A 
ATOM      8  C   UNL     1       2.134   6.497  18.695  0.00  0.00    +0.000 A 
ATOM      9  C   UNL     1       2.732   5.226  18.652  0.00  0.00    +0.000 A 
ATOM     10  C   UNL     1       3.908   5.112  17.943  0.00  0.00    +0.000 A 
ATOM     11  C   UNL     1       4.547   6.228  17.445  0.00  0.00    +0.000 A 
ATOM     12  C   UNL     1       3.953   7.474  17.413  0.00  0.00    +0.000 A 
ATOM     13  C   UNL     1       5.704   5.786  16.691  0.00  0.00    +0.000 C 
ATOM     14  O   UNL     1       6.569   6.530  16.268  0.00  0.00    +0.000 OA
ATOM     15  N   UNL     1       5.549   4.441  16.522  0.00  0.00    +0.000 N 
ATOM     16  C   UNL     1       6.086   3.819  15.338  0.00  0.00    +0.000 C 
ATOM     17  C   UNL     1       4.523   3.946  17.279  0.00  0.00    +0.000 C 
ATOM     18  O   UNL     1       4.056   2.824  17.316  0.00  0.00    +0.000 OA
ENDBRANCH   4   7
BRANCH   1  24
ATOM     19  C   UNL     1       0.369  12.668  18.869  0.00  0.00    +0.000 A 
ATOM     20  C   UNL     1      -0.302  13.663  19.599  0.00  0.00    +0.000 A 
ATOM     21  C   UNL     1      -1.584  13.440  20.105  0.00  0.00    +0.000 A 
ATOM     22  C   UNL     1      -2.213  12.221  19.903  0.00  0.00    +0.000 A 
ATOM     23  C   UNL     1      -1.558  11.219  19.188  0.00  0.00    +0.000 A 
ATOM     24  C   UNL     1      -0.271  11.438  18.661  0.00  0.00    +0.000 A 
BRANCH  19  26
ATOM     25  C   UNL     1       2.568  13.471  19.187  0.00  0.00    +0.000 C 
ATOM     26  O   UNL     1       1.618  12.839  18.325  0.00  0.00    +0.000 OA
ENDBRANCH  19  26
ENDBRANCH   1  24
TORSDOF 3
ENDMDL
MODEL 8
REMARK VINA RESULT:      -7.5      5.603      8.999
REMARK  Name = 
REMARK  5 active torsions:
REMARK  status: ('A' for Active; 'I' for Inactive)
REMARK    1  A    between atoms: C_1  and  O_2
REMARK    2  A    between atoms: O_2  and  C_3
REMARK    3  A    between atoms: C_8  and  N_9
REMARK    4  A    between atoms: N_12  and  C_13
REMARK    5  A    between atoms: N_21  and  C_22
REMARK                            x       y       z     vdW  Elec       q    Type
REMARK                         _______ _______ _______ _____ _____    ______ ____
ROOT
ATOM      1  N   UNL     1       2.786   5.802  20.090  0.00  0.00    +0.000 N 
ATOM      2  C   UNL     1       2.204   7.055  19.922  0.00  0.00    +0.000 C 
ATOM      3  O   UNL     1       2.123   7.632  18.845  0.00  0.00    +0.000 OA
ATOM      4  N   UNL     1       1.746   7.578  21.111  0.00  0.00    +0.000 N 
ATOM      5  H   UNL     1       2.243   5.137  20.630  0.00  0.00    +0.000 HD
ATOM      6  H   UNL     1       2.208   7.232  21.942  0.00  0.00    +0.000 HD
ENDROOT
BRANCH   4   7
ATOM      7  C   UNL     1       0.878   8.683  21.248  0.00  0.00    +0.000 A 
ATOM      8  C   UNL     1      -0.001   8.832  22.354  0.00  0.00    +0.000 A 
ATOM      9  C   UNL     1      -0.555  10.082  22.679  0.00  0.00    +0.000 A 
ATOM     10  C   UNL     1      -0.251  11.136  21.845  0.00  0.00    +0.000 A 
ATOM     11  C   UNL     1       0.424  10.932  20.660  0.00  0.00    +0.000 A 
ATOM     12  C   UNL     1       1.035   9.734  20.349  0.00  0.00    +0.000 A 
ATOM     13  C   UNL     1       0.659  12.224  20.047  0.00  0.00    +0.000 C 
ATOM     14  O   UNL     1       1.081  12.377  18.916  0.00  0.00    +0.000 OA
ATOM     15  N   UNL     1       0.384  13.151  21.010  0.00  0.00    +0.000 N 
ATOM     16  C   UNL     1       1.101  14.402  21.002  0.00  0.00    +0.000 C 
ATOM     17  C   UNL     1      -0.212  12.589  22.105  0.00  0.00    +0.000 C 
ATOM     18  O   UNL     1      -0.517  13.093  23.169  0.00  0.00    +0.000 OA
ENDBRANCH   4   7
BRANCH   1  24
ATOM     19  C   UNL     1       2.983   4.435  18.053  0.00  0.00    +0.000 A 
ATOM     20  C   UNL     1       3.808   3.896  17.052  0.00  0.00    +0.000 A 
ATOM     21  C   UNL     1       5.182   4.147  17.041  0.00  0.00    +0.000 A 
ATOM     22  C   UNL     1       5.757   4.928  18.031  0.00  0.00    +0.000 A 
ATOM     23  C   UNL     1       4.955   5.465  19.038  0.00  0.00    +0.000 A 
ATOM     24  C   UNL     1       3.567   5.229  19.051  0.00  0.00    +0.000 A 
BRANCH  19  26
ATOM     25  C   UNL     1       1.215   2.915  18.435  0.00  0.00    +0.000 C 
ATOM     26  O   UNL     1       1.624   4.244  18.101  0.00  0.00    +0.000 OA
ENDBRANCH  19  26
ENDBRANCH   1  24
TORSDOF 3
ENDMDL
MODEL 9
REMARK VINA RESULT:      -7.5      2.021      8.290
REMARK  Name = 
REMARK  5 active torsions:
REMARK  status: ('A' for Active; 'I' for Inactive)
REMARK    1  A    between atoms: C_1  and  O_2
REMARK    2  A    between atoms: O_2  and  C_3
REMARK    3  A    between atoms: C_8  and  N_9
REMARK    4  A    between atoms: N_12  and  C_13
REMARK    5  A    between atoms: N_21  and  C_22
REMARK                            x       y       z     vdW  Elec       q    Type
REMARK                         _______ _______ _______ _____ _____    ______ ____
ROOT
ATOM      1  N   UNL     1       6.891   7.980  16.904  0.00  0.00    +0.000 N 
ATOM      2  C   UNL     1       7.841   8.359  17.848  0.00  0.00    +0.000 C 
ATOM      3  O   UNL     1       8.421   7.572  18.588  0.00  0.00    +0.000 OA
ATOM      4  N   UNL     1       8.040   9.721  17.867  0.00  0.00    +0.000 N 
ATOM      5  H   UNL     1       7.015   8.373  15.978  0.00  0.00    +0.000 HD
ATOM      6  H   UNL     1       7.262  10.276  17.536  0.00  0.00    +0.000 HD
ENDROOT
BRANCH   4   7
ATOM      7  C   UNL     1       9.109  10.391  18.500  0.00  0.00    +0.000 A 
ATOM      8  C   UNL     1      10.268  10.818  17.797  0.00  0.00    +0.000 A 
ATOM      9  C   UNL     1      11.120  11.801  18.328  0.00  0.00    +0.000 A 
ATOM     10  C   UNL     1      10.811  12.286  19.580  0.00  0.00    +0.000 A 
ATOM     11  C   UNL     1       9.812  11.710  20.338  0.00  0.00    +0.000 A 
ATOM     12  C   UNL     1       8.920  10.794  19.819  0.00  0.00    +0.000 A 
ATOM     13  C   UNL     1       9.674  12.478  21.559  0.00  0.00    +0.000 C 
ATOM     14  O   UNL     1       8.999  12.132  22.511  0.00  0.00    +0.000 OA
ATOM     15  N   UNL     1      10.375  13.631  21.358  0.00  0.00    +0.000 N 
ATOM     16  C   UNL     1       9.938  14.838  22.015  0.00  0.00    +0.000 C 
ATOM     17  C   UNL     1      11.126  13.581  20.217  0.00  0.00    +0.000 C 
ATOM     18  O   UNL     1      11.800  14.445  19.690  0.00  0.00    +0.000 OA
ENDBRANCH   4   7
BRANCH   1  24
ATOM     19  C   UNL     1       5.005   6.450  17.297  0.00  0.00    +0.000 A 
ATOM     20  C   UNL     1       4.515   5.133  17.300  0.00  0.00    +0.000 A 
ATOM     21  C   UNL     1       5.334   4.062  16.936  0.00  0.00    +0.000 A 
ATOM     22  C   UNL     1       6.654   4.283  16.575  0.00  0.00    +0.000 A 
ATOM     23  C   UNL     1       7.160   5.583  16.574  0.00  0.00    +0.000 A 
ATOM     24  C   UNL     1       6.339   6.671  16.927  0.00  0.00    +0.000 A 
BRANCH  19  26
ATOM     25  C   UNL     1       2.943   7.240  18.138  0.00  0.00    +0.000 C 
ATOM     26  O   UNL     1       4.240   7.544  17.621  0.00  0.00    +0.000 OA
ENDBRANCH  19  26
ENDBRANCH   1  24
TORSDOF 3
ENDMDL
