MODEL 1
REMARK VINA RESULT:      -7.6      0.000      0.000
REMARK  Name = 
REMARK  6 active torsions:
REMARK  status: ('A' for Active; 'I' for Inactive)
REMARK    1  A    between atoms: C_1  and  C_2
REMARK    2  A    between atoms: C_5  and  C_6
REMARK    3  A    between atoms: C_6  and  N_7
REMARK    4  A    between atoms: N_7  and  S_8
REMARK    5  A    between atoms: S_8  and  C_11
REMARK    6  A    between atoms: N_18  and  C_19
REMARK                            x       y       z     vdW  Elec       q    Type
REMARK                         _______ _______ _______ _____ _____    ______ ____
ROOT
ATOM      1  S   UNL     1       3.491   3.534  18.971  0.00  0.00    +0.000 S 
ATOM      2  O   UNL     1       3.121   3.220  17.610  0.00  0.00    +0.000 OA
ATOM      3  O   UNL     1       3.002   2.772  20.098  0.00  0.00    +0.000 OA
ENDROOT
BRANCH   1   4
ATOM      4  C   UNL     1       2.869   5.124  19.220  0.00  0.00    +0.000 A 
ATOM      5  C   UNL     1       2.829   6.175  18.269  0.00  0.00    +0.000 A 
ATOM      6  C   UNL     1       2.240   7.274  18.876  0.00  0.00    +0.000 A 
ATOM      7  N   UNL     1       1.919   6.893  20.153  0.00  0.00    +0.000 N 
ATOM      8  C   UNL     1       2.298   5.601  20.383  0.00  0.00    +0.000 A 
ATOM      9  C   UNL     1       1.264   7.758  21.101  0.00  0.00    +0.000 C 
ATOM     10  C   UNL     1       0.943   9.152  20.563  0.00  0.00    +0.000 C 
ATOM     11  N   UNL     1       1.368   9.480  19.205  0.00  0.00    +0.000 N 
ATOM     12  C   UNL     1       1.053  10.805  18.705  0.00  0.00    +0.000 C 
ATOM     13  C   UNL     1       1.980   8.585  18.333  0.00  0.00    +0.000 C 
ATOM     14  O   UNL     1       2.280   8.894  17.183  0.00  0.00    +0.000 OA
ENDBRANCH   1   4
BRANCH   1  15
ATOM     15  N   UNL     1       5.172   3.569  19.025  0.00  0.00    +0.000 NA
ATOM     16  H   UNL     1       5.483   4.104  19.836  0.00  0.00    +0.000 HD
BRANCH  15  17
ATOM     17  C   UNL     1       5.836   3.956  17.774  0.00  0.00    +0.000 C 
BRANCH  17  22
ATOM     18  C   UNL     1       8.503   9.134  18.060  0.00  0.00    +0.000 C 
ATOM     19  C   UNL     1       7.803   7.808  18.015  0.00  0.00    +0.000 A 
ATOM     20  C   UNL     1       8.131   6.787  18.913  0.00  0.00    +0.000 A 
ATOM     21  C   UNL     1       7.483   5.549  18.846  0.00  0.00    +0.000 A 
ATOM     22  C   UNL     1       6.498   5.309  17.879  0.00  0.00    +0.000 A 
ATOM     23  C   UNL     1       6.166   6.338  16.987  0.00  0.00    +0.000 A 
ATOM     24  C   UNL     1       6.814   7.574  17.053  0.00  0.00    +0.000 A 
ENDBRANCH  17  22
ENDBRANCH  15  17
ENDBRANCH   1  15
TORSDOF 4
ENDMDL
MODEL 2
REMARK VINA RESULT:      -7.5      0.571      1.162
REMARK  Name = 
REMARK  6 active torsions:
REMARK  status: ('A' for Active; 'I' for Inactive)
REMARK    1  A    between atoms: C_1  and  C_2
REMARK    2  A    between atoms: C_5  and  C_6
REMARK    3  A    between atoms: C_6  and  N_7
REMARK    4  A    between atoms: N_7  and  S_8
REMARK    5  A    between atoms: S_8  and  C_11
REMARK    6  A    between atoms: N_18  and  C_19
REMARK                            x       y       z     vdW  Elec       q    Type
REMARK                         _______ _______ _______ _____ _____    ______ ____
ROOT
ATOM      1  S   UNL     1       2.924   3.339  18.599  0.00  0.00    +0.000 S 
ATOM      2  O   UNL     1       2.299   3.109  17.318  0.00  0.00    +0.000 OA
ATOM      3  O   UNL     1       2.568   2.583  19.778  0.00  0.00    +0.000 OA
ENDROOT
BRANCH   1   4
ATOM      4  C   UNL     1       2.502   4.967  18.985  0.00  0.00    +0.000 A 
ATOM      5  C   UNL     1       2.514   6.076  18.102  0.00  0.00    +0.000 A 
ATOM      6  C   UNL     1       2.094   7.191  18.813  0.00  0.00    +0.000 A 
ATOM      7  N   UNL     1       1.822   6.764  20.087  0.00  0.00    +0.000 N 
ATOM      8  C   UNL     1       2.069   5.426  20.214  0.00  0.00    +0.000 A 
ATOM      9  C   UNL     1       1.335   7.630  21.130  0.00  0.00    +0.000 C 
ATOM     10  C   UNL     1       1.135   9.083  20.698  0.00  0.00    +0.000 C 
ATOM     11  N   UNL     1       1.499   9.451  19.333  0.00  0.00    +0.000 N 
ATOM     12  C   UNL     1       1.301  10.832  18.935  0.00  0.00    +0.000 C 
ATOM     13  C   UNL     1       1.946   8.554  18.368  0.00  0.00    +0.000 C 
ATOM     14  O   UNL     1       2.199   8.904  17.217  0.00  0.00    +0.000 OA
ENDBRANCH   1   4
BRANCH   1  15
ATOM     15  N   UNL     1       4.586   3.227  18.362  0.00  0.00    +0.000 NA
ATOM     16  H   UNL     1       5.079   3.578  19.182  0.00  0.00    +0.000 HD
BRANCH  15  17
ATOM     17  C   UNL     1       5.080   3.780  17.094  0.00  0.00    +0.000 C 
BRANCH  17  22
ATOM     18  C   UNL     1       8.281   8.560  18.046  0.00  0.00    +0.000 C 
ATOM     19  C   UNL     1       7.471   7.328  17.772  0.00  0.00    +0.000 A 
ATOM     20  C   UNL     1       6.466   7.325  16.799  0.00  0.00    +0.000 A 
ATOM     21  C   UNL     1       5.706   6.174  16.568  0.00  0.00    +0.000 A 
ATOM     22  C   UNL     1       5.935   5.006  17.307  0.00  0.00    +0.000 A 
ATOM     23  C   UNL     1       6.949   5.010  18.275  0.00  0.00    +0.000 A 
ATOM     24  C   UNL     1       7.708   6.161  18.507  0.00  0.00    +0.000 A 
ENDBRANCH  17  22
ENDBRANCH  15  17
ENDBRANCH   1  15
TORSDOF 4
ENDMDL
MODEL 3
REMARK VINA RESULT:      -7.4      3.719      5.522
REMARK  Name = 
REMARK  6 active torsions:
REMARK  status: ('A' for Active; 'I' for Inactive)
REMARK    1  A    between atoms: C_1  and  C_2
REMARK    2  A    between atoms: C_5  and  C_6
REMARK    3  A    between atoms: C_6  and  N_7
REMARK    4  A    between atoms: N_7  and  S_8
REMARK    5  A    between atoms: S_8  and  C_11
REMARK    6  A    between atoms: N_18  and  C_19
REMARK                            x       y       z     vdW  Elec       q    Type
REMARK                         _______ _______ _______ _____ _____    ______ ____
ROOT
ATOM      1  S   UNL     1       7.244   5.459  17.980  0.00  0.00    +0.000 S 
ATOM      2  O   UNL     1       8.075   4.981  19.060  0.00  0.00    +0.000 OA
ATOM      3  O   UNL     1       7.114   6.865  17.671  0.00  0.00    +0.000 OA
ENDROOT
BRANCH   1   4
ATOM      4  C   UNL     1       5.652   4.964  18.424  0.00  0.00    +0.000 A 
ATOM      5  C   UNL     1       4.918   3.883  17.874  0.00  0.00    +0.000 A 
ATOM      6  C   UNL     1       3.693   3.827  18.523  0.00  0.00    +0.000 A 
ATOM      7  N   UNL     1       3.694   4.837  19.450  0.00  0.00    +0.000 N 
ATOM      8  C   UNL     1       4.864   5.541  19.401  0.00  0.00    +0.000 A 
ATOM      9  C   UNL     1       2.596   5.095  20.347  0.00  0.00    +0.000 C 
ATOM     10  C   UNL     1       1.416   4.136  20.188  0.00  0.00    +0.000 C 
ATOM     11  N   UNL     1       1.490   3.123  19.140  0.00  0.00    +0.000 N 
ATOM     12  C   UNL     1       0.364   2.217  19.003  0.00  0.00    +0.000 C 
ATOM     13  C   UNL     1       2.594   2.916  18.320  0.00  0.00    +0.000 C 
ATOM     14  O   UNL     1       2.626   2.020  17.480  0.00  0.00    +0.000 OA
ENDBRANCH   1   4
BRANCH   1  15
ATOM     15  N   UNL     1       7.725   4.638  16.592  0.00  0.00    +0.000 NA
ATOM     16  H   UNL     1       8.604   4.149  16.764  0.00  0.00    +0.000 HD
BRANCH  15  17
ATOM     17  C   UNL     1       7.724   5.434  15.357  0.00  0.00    +0.000 C 
BRANCH  17  22
ATOM     18  C   UNL     1       4.714   2.720  11.165  0.00  0.00    +0.000 C 
ATOM     19  C   UNL     1       5.486   3.445  12.227  0.00  0.00    +0.000 A 
ATOM     20  C   UNL     1       6.764   3.953  11.972  0.00  0.00    +0.000 A 
ATOM     21  C   UNL     1       7.480   4.611  12.977  0.00  0.00    +0.000 A 
ATOM     22  C   UNL     1       6.932   4.770  14.257  0.00  0.00    +0.000 A 
ATOM     23  C   UNL     1       5.647   4.268  14.506  0.00  0.00    +0.000 A 
ATOM     24  C   UNL     1       4.932   3.610  13.501  0.00  0.00    +0.000 A 
ENDBRANCH  17  22
ENDBRANCH  15  17
ENDBRANCH   1  15
TORSDOF 4
ENDMDL
MODEL 4
REMARK VINA RESULT:      -7.4      3.534      5.347
REMARK  Name = 
REMARK  6 active torsions:
REMARK  status: ('A' for Active; 'I' for Inactive)
REMARK    1  A    between atoms: C_1  and  C_2
REMARK    2  A    between atoms: C_5  and  C_6
REMARK    3  A    between atoms: C_6  and  N_7
REMARK    4  A    between atoms: N_7  and  S_8
REMARK    5  A    between atoms: S_8  and  C_11
REMARK    6  A    between atoms: N_18  and  C_19
REMARK                            x       y       z     vdW  Elec       q    Type
REMARK                         _______ _______ _______ _____ _____    ______ ____
ROOT
ATOM      1  S   UNL     1       7.455   5.323  18.086  0.00  0.00    +0.000 S 
ATOM      2  O   UNL     1       8.075   4.076  17.701  0.00  0.00    +0.000 OA
ATOM      3  O   UNL     1       7.901   6.084  19.231  0.00  0.00    +0.000 OA
ENDROOT
BRANCH   1   4
ATOM      4  C   UNL     1       5.830   4.884  18.464  0.00  0.00    +0.000 A 
ATOM      5  C   UNL     1       5.152   3.710  18.048  0.00  0.00    +0.000 A 
ATOM      6  C   UNL     1       3.872   3.746  18.583  0.00  0.00    +0.000 A 
ATOM      7  N   UNL     1       3.785   4.902  19.314  0.00  0.00    +0.000 N 
ATOM      8  C   UNL     1       4.953   5.607  19.249  0.00  0.00    +0.000 A 
ATOM      9  C   UNL     1       2.608   5.292  20.049  0.00  0.00    +0.000 C 
ATOM     10  C   UNL     1       1.450   4.299  19.954  0.00  0.00    +0.000 C 
ATOM     11  N   UNL     1       1.623   3.119  19.111  0.00  0.00    +0.000 N 
ATOM     12  C   UNL     1       0.517   2.183  19.033  0.00  0.00    +0.000 C 
ATOM     13  C   UNL     1       2.799   2.793  18.444  0.00  0.00    +0.000 C 
ATOM     14  O   UNL     1       2.911   1.765  17.780  0.00  0.00    +0.000 OA
ENDBRANCH   1   4
BRANCH   1  15
ATOM     15  N   UNL     1       7.471   6.319  16.730  0.00  0.00    +0.000 NA
ATOM     16  H   UNL     1       7.794   7.251  16.988  0.00  0.00    +0.000 HD
BRANCH  15  17
ATOM     17  C   UNL     1       6.236   6.321  15.935  0.00  0.00    +0.000 C 
BRANCH  17  22
ATOM     18  C   UNL     1       6.393   2.581  11.463  0.00  0.00    +0.000 C 
ATOM     19  C   UNL     1       6.353   3.518  12.634  0.00  0.00    +0.000 A 
ATOM     20  C   UNL     1       5.235   3.581  13.472  0.00  0.00    +0.000 A 
ATOM     21  C   UNL     1       5.204   4.474  14.548  0.00  0.00    +0.000 A 
ATOM     22  C   UNL     1       6.290   5.321  14.805  0.00  0.00    +0.000 A 
ATOM     23  C   UNL     1       7.413   5.248  13.969  0.00  0.00    +0.000 A 
ATOM     24  C   UNL     1       7.442   4.357  12.892  0.00  0.00    +0.000 A 
ENDBRANCH  17  22
ENDBRANCH  15  17
ENDBRANCH   1  15
TORSDOF 4
ENDMDL
MODEL 5
REMARK VINA RESULT:      -7.4      1.181      1.675
REMARK  Name = 
REMARK  6 active torsions:
REMARK  status: ('A' for Active; 'I' for Inactive)
REMARK    1  A    between atoms: C_1  and  C_2
REMARK    2  A    between atoms: C_5  and  C_6
REMARK    3  A    between atoms: C_6  and  N_7
REMARK    4  A    between atoms: N_7  and  S_8
REMARK    5  A    between atoms: S_8  and  C_11
REMARK    6  A    between atoms: N_18  and  C_19
REMARK                            x       y       z     vdW  Elec       q    Type
REMARK                         _______ _______ _______ _____ _____    ______ ____
ROOT
ATOM      1  S   UNL     1       3.645   3.599  19.145  0.00  0.00    +0.000 S 
ATOM      2  O   UNL     1       3.202   3.039  17.889  0.00  0.00    +0.000 OA
ATOM      3  O   UNL     1       3.233   3.056  20.419  0.00  0.00    +0.000 OA
ENDROOT
BRANCH   1   4
ATOM      4  C   UNL     1       3.012   5.205  19.134  0.00  0.00    +0.000 A 
ATOM      5  C   UNL     1       2.541   5.936  20.253  0.00  0.00    +0.000 A 
ATOM      6  C   UNL     1       2.136   7.184  19.806  0.00  0.00    +0.000 A 
ATOM      7  N   UNL     1       2.370   7.212  18.456  0.00  0.00    +0.000 N 
ATOM      8  C   UNL     1       2.891   6.024  18.029  0.00  0.00    +0.000 A 
ATOM      9  C   UNL     1       2.099   8.358  17.624  0.00  0.00    +0.000 C 
ATOM     10  C   UNL     1       1.528   9.560  18.376  0.00  0.00    +0.000 C 
ATOM     11  N   UNL     1       1.269   9.416  19.806  0.00  0.00    +0.000 N 
ATOM     12  C   UNL     1       0.731  10.566  20.509  0.00  0.00    +0.000 C 
ATOM     13  C   UNL     1       1.576   8.284  20.553  0.00  0.00    +0.000 C 
ATOM     14  O   UNL     1       1.379   8.226  21.765  0.00  0.00    +0.000 OA
ENDBRANCH   1   4
BRANCH   1  15
ATOM     15  N   UNL     1       5.325   3.653  19.093  0.00  0.00    +0.000 NA
ATOM     16  H   UNL     1       5.682   4.168  19.898  0.00  0.00    +0.000 HD
BRANCH  15  17
ATOM     17  C   UNL     1       5.903   4.085  17.813  0.00  0.00    +0.000 C 
BRANCH  17  22
ATOM     18  C   UNL     1       8.555   9.271  18.095  0.00  0.00    +0.000 C 
ATOM     19  C   UNL     1       7.860   7.942  18.052  0.00  0.00    +0.000 A 
ATOM     20  C   UNL     1       8.229   6.905  18.915  0.00  0.00    +0.000 A 
ATOM     21  C   UNL     1       7.585   5.665  18.850  0.00  0.00    +0.000 A 
ATOM     22  C   UNL     1       6.563   5.439  17.919  0.00  0.00    +0.000 A 
ATOM     23  C   UNL     1       6.190   6.483  17.061  0.00  0.00    +0.000 A 
ATOM     24  C   UNL     1       6.835   7.722  17.126  0.00  0.00    +0.000 A 
ENDBRANCH  17  22
ENDBRANCH  15  17
ENDBRANCH   1  15
TORSDOF 4
ENDMDL
MODEL 6
REMARK VINA RESULT:      -7.2      0.859      1.403
REMARK  Name = 
REMARK  6 active torsions:
REMARK  status: ('A' for Active; 'I' for Inactive)
REMARK    1  A    between atoms: C_1  and  C_2
REMARK    2  A    between atoms: C_5  and  C_6
REMARK    3  A    between atoms: C_6  and  N_7
REMARK    4  A    between atoms: N_7  and  S_8
REMARK    5  A    between atoms: S_8  and  C_11
REMARK    6  A    between atoms: N_18  and  C_19
REMARK                            x       y       z     vdW  Elec       q    Type
REMARK                         _______ _______ _______ _____ _____    ______ ____
ROOT
ATOM      1  S   UNL     1       4.100   4.099  17.635  0.00  0.00    +0.000 S 
ATOM      2  O   UNL     1       4.352   4.494  16.268  0.00  0.00    +0.000 OA
ATOM      3  O   UNL     1       3.243   2.985  17.970  0.00  0.00    +0.000 OA
ENDROOT
BRANCH   1   4
ATOM      4  C   UNL     1       3.318   5.471  18.330  0.00  0.00    +0.000 A 
ATOM      5  C   UNL     1       3.035   6.701  17.685  0.00  0.00    +0.000 A 
ATOM      6  C   UNL     1       2.389   7.521  18.598  0.00  0.00    +0.000 A 
ATOM      7  N   UNL     1       2.272   6.802  19.758  0.00  0.00    +0.000 N 
ATOM      8  C   UNL     1       2.834   5.564  19.621  0.00  0.00    +0.000 A 
ATOM      9  C   UNL     1       1.631   7.306  20.947  0.00  0.00    +0.000 C 
ATOM     10  C   UNL     1       1.077   8.724  20.809  0.00  0.00    +0.000 C 
ATOM     11  N   UNL     1       1.293   9.427  19.548  0.00  0.00    +0.000 N 
ATOM     12  C   UNL     1       0.758  10.771  19.429  0.00  0.00    +0.000 C 
ATOM     13  C   UNL     1       1.904   8.870  18.429  0.00  0.00    +0.000 C 
ATOM     14  O   UNL     1       2.025   9.487  17.374  0.00  0.00    +0.000 OA
ENDBRANCH   1   4
BRANCH   1  15
ATOM     15  N   UNL     1       5.599   3.873  18.364  0.00  0.00    +0.000 NA
ATOM     16  H   UNL     1       5.618   4.337  19.272  0.00  0.00    +0.000 HD
BRANCH  15  17
ATOM     17  C   UNL     1       6.762   4.178  17.521  0.00  0.00    +0.000 C 
BRANCH  17  22
ATOM     18  C   UNL     1       8.637   9.605  18.538  0.00  0.00    +0.000 C 
ATOM     19  C   UNL     1       8.175   8.207  18.252  0.00  0.00    +0.000 A 
ATOM     20  C   UNL     1       7.458   7.907  17.089  0.00  0.00    +0.000 A 
ATOM     21  C   UNL     1       7.017   6.602  16.845  0.00  0.00    +0.000 A 
ATOM     22  C   UNL     1       7.283   5.575  17.759  0.00  0.00    +0.000 A 
ATOM     23  C   UNL     1       8.010   5.878  18.919  0.00  0.00    +0.000 A 
ATOM     24  C   UNL     1       8.449   7.182  19.163  0.00  0.00    +0.000 A 
ENDBRANCH  17  22
ENDBRANCH  15  17
ENDBRANCH   1  15
TORSDOF 4
ENDMDL
MODEL 7
REMARK VINA RESULT:      -7.2      2.474      5.664
REMARK  Name = 
REMARK  6 active torsions:
REMARK  status: ('A' for Active; 'I' for Inactive)
REMARK    1  A    between atoms: C_1  and  C_2
REMARK    2  A    between atoms: C_5  and  C_6
REMARK    3  A    between atoms: C_6  and  N_7
REMARK    4  A    between atoms: N_7  and  S_8
REMARK    5  A    between atoms: S_8  and  C_11
REMARK    6  A    between atoms: N_18  and  C_19
REMARK                            x       y       z     vdW  Elec       q    Type
REMARK                         _______ _______ _______ _____ _____    ______ ____
ROOT
ATOM      1  S   UNL     1       2.431   2.836  19.801  0.00  0.00    +0.000 S 
ATOM      2  O   UNL     1       3.084   2.496  21.044  0.00  0.00    +0.000 OA
ATOM      3  O   UNL     1       1.730   1.854  19.005  0.00  0.00    +0.000 OA
ENDROOT
BRANCH   1   4
ATOM      4  C   UNL     1       3.716   3.379  18.786  0.00  0.00    +0.000 A 
ATOM      5  C   UNL     1       3.706   3.444  17.370  0.00  0.00    +0.000 A 
ATOM      6  C   UNL     1       4.930   3.949  16.959  0.00  0.00    +0.000 A 
ATOM      7  N   UNL     1       5.654   4.198  18.096  0.00  0.00    +0.000 N 
ATOM      8  C   UNL     1       4.942   3.852  19.210  0.00  0.00    +0.000 A 
ATOM      9  C   UNL     1       6.983   4.754  18.088  0.00  0.00    +0.000 C 
ATOM     10  C   UNL     1       7.529   5.058  16.692  0.00  0.00    +0.000 C 
ATOM     11  N   UNL     1       6.701   4.714  15.540  0.00  0.00    +0.000 N 
ATOM     12  C   UNL     1       7.229   5.011  14.222  0.00  0.00    +0.000 C 
ATOM     13  C   UNL     1       5.413   4.196  15.622  0.00  0.00    +0.000 C 
ATOM     14  O   UNL     1       4.737   3.962  14.623  0.00  0.00    +0.000 OA
ENDBRANCH   1   4
BRANCH   1  15
ATOM     15  N   UNL     1       1.389   4.115  20.129  0.00  0.00    +0.000 NA
ATOM     16  H   UNL     1       0.912   4.403  19.274  0.00  0.00    +0.000 HD
BRANCH  15  17
ATOM     17  C   UNL     1       1.978   5.231  20.880  0.00  0.00    +0.000 C 
BRANCH  17  22
ATOM     18  C   UNL     1       1.809  10.291  17.986  0.00  0.00    +0.000 C 
ATOM     19  C   UNL     1       1.820   8.988  18.729  0.00  0.00    +0.000 A 
ATOM     20  C   UNL     1       1.319   8.895  20.032  0.00  0.00    +0.000 A 
ATOM     21  C   UNL     1       1.354   7.678  20.720  0.00  0.00    +0.000 A 
ATOM     22  C   UNL     1       1.893   6.533  20.119  0.00  0.00    +0.000 A 
ATOM     23  C   UNL     1       2.386   6.628  18.811  0.00  0.00    +0.000 A 
ATOM     24  C   UNL     1       2.352   7.845  18.124  0.00  0.00    +0.000 A 
ENDBRANCH  17  22
ENDBRANCH  15  17
ENDBRANCH   1  15
TORSDOF 4
ENDMDL
MODEL 8
REMARK VINA RESULT:      -7.2      1.216      1.984
REMARK  Name = 
REMARK  6 active torsions:
REMARK  status: ('A' for Active; 'I' for Inactive)
REMARK    1  A    between atoms: C_1  and  C_2
REMARK    2  A    between atoms: C_5  and  C_6
REMARK    3  A    between atoms: C_6  and  N_7
REMARK    4  A    between atoms: N_7  and  S_8
REMARK    5  A    between atoms: S_8  and  C_11
REMARK    6  A    between atoms: N_18  and  C_19
REMARK                            x       y       z     vdW  Elec       q    Type
REMARK                         _______ _______ _______ _____ _____    ______ ____
ROOT
ATOM      1  S   UNL     1       3.402   3.802  18.729  0.00  0.00    +0.000 S 
ATOM      2  O   UNL     1       3.204   3.490  17.332  0.00  0.00    +0.000 OA
ATOM      3  O   UNL     1       2.747   3.063  19.784  0.00  0.00    +0.000 OA
ENDROOT
BRANCH   1   4
ATOM      4  C   UNL     1       2.802   5.411  18.889  0.00  0.00    +0.000 A 
ATOM      5  C   UNL     1       2.347   6.029  20.081  0.00  0.00    +0.000 A 
ATOM      6  C   UNL     1       1.966   7.326  19.768  0.00  0.00    +0.000 A 
ATOM      7  N   UNL     1       2.199   7.491  18.428  0.00  0.00    +0.000 N 
ATOM      8  C   UNL     1       2.696   6.344  17.876  0.00  0.00    +0.000 A 
ATOM      9  C   UNL     1       1.949   8.723  17.722  0.00  0.00    +0.000 C 
ATOM     10  C   UNL     1       1.404   9.850  18.599  0.00  0.00    +0.000 C 
ATOM     11  N   UNL     1       1.144   9.562  20.006  0.00  0.00    +0.000 N 
ATOM     12  C   UNL     1       0.630  10.642  20.828  0.00  0.00    +0.000 C 
ATOM     13  C   UNL     1       1.429   8.352  20.629  0.00  0.00    +0.000 C 
ATOM     14  O   UNL     1       1.233   8.171  21.828  0.00  0.00    +0.000 OA
ENDBRANCH   1   4
BRANCH   1  15
ATOM     15  N   UNL     1       5.062   3.787  19.003  0.00  0.00    +0.000 NA
ATOM     16  H   UNL     1       5.290   4.395  19.790  0.00  0.00    +0.000 HD
BRANCH  15  17
ATOM     17  C   UNL     1       5.899   4.017  17.818  0.00  0.00    +0.000 C 
BRANCH  17  22
ATOM     18  C   UNL     1       8.519   9.215  18.158  0.00  0.00    +0.000 C 
ATOM     19  C   UNL     1       7.859   7.873  18.042  0.00  0.00    +0.000 A 
ATOM     20  C   UNL     1       6.857   7.641  17.093  0.00  0.00    +0.000 A 
ATOM     21  C   UNL     1       6.236   6.390  17.009  0.00  0.00    +0.000 A 
ATOM     22  C   UNL     1       6.604   5.351  17.873  0.00  0.00    +0.000 A 
ATOM     23  C   UNL     1       7.615   5.585  18.816  0.00  0.00    +0.000 A 
ATOM     24  C   UNL     1       8.234   6.835  18.901  0.00  0.00    +0.000 A 
ENDBRANCH  17  22
ENDBRANCH  15  17
ENDBRANCH   1  15
TORSDOF 4
ENDMDL
MODEL 9
REMARK VINA RESULT:      -7.2      2.456      5.720
REMARK  Name = 
REMARK  6 active torsions:
REMARK  status: ('A' for Active; 'I' for Inactive)
REMARK    1  A    between atoms: C_1  and  C_2
REMARK    2  A    between atoms: C_5  and  C_6
REMARK    3  A    between atoms: C_6  and  N_7
REMARK    4  A    between atoms: N_7  and  S_8
REMARK    5  A    between atoms: S_8  and  C_11
REMARK    6  A    between atoms: N_18  and  C_19
REMARK                            x       y       z     vdW  Elec       q    Type
REMARK                         _______ _______ _______ _____ _____    ______ ____
ROOT
ATOM      1  S   UNL     1       2.090   2.937  19.569  0.00  0.00    +0.000 S 
ATOM      2  O   UNL     1       2.663   2.370  20.768  0.00  0.00    +0.000 OA
ATOM      3  O   UNL     1       1.297   2.154  18.649  0.00  0.00    +0.000 OA
ENDROOT
BRANCH   1   4
ATOM      4  C   UNL     1       3.458   3.437  18.646  0.00  0.00    +0.000 A 
ATOM      5  C   UNL     1       3.531   3.551  17.235  0.00  0.00    +0.000 A 
ATOM      6  C   UNL     1       4.803   3.997  16.909  0.00  0.00    +0.000 A 
ATOM      7  N   UNL     1       5.476   4.162  18.092  0.00  0.00    +0.000 N 
ATOM      8  C   UNL     1       4.685   3.822  19.152  0.00  0.00    +0.000 A 
ATOM      9  C   UNL     1       6.834   4.638  18.176  0.00  0.00    +0.000 C 
ATOM     10  C   UNL     1       7.473   4.957  16.824  0.00  0.00    +0.000 C 
ATOM     11  N   UNL     1       6.692   4.702  15.617  0.00  0.00    +0.000 N 
ATOM     12  C   UNL     1       7.309   5.013  14.341  0.00  0.00    +0.000 C 
ATOM     13  C   UNL     1       5.373   4.260  15.610  0.00  0.00    +0.000 C 
ATOM     14  O   UNL     1       4.741   4.102  14.568  0.00  0.00    +0.000 OA
ENDBRANCH   1   4
BRANCH   1  15
ATOM     15  N   UNL     1       1.202   4.286  20.041  0.00  0.00    +0.000 NA
ATOM     16  H   UNL     1       0.698   4.668  19.241  0.00  0.00    +0.000 HD
BRANCH  15  17
ATOM     17  C   UNL     1       1.947   5.295  20.806  0.00  0.00    +0.000 C 
BRANCH  17  22
ATOM     18  C   UNL     1       1.501  10.530  18.276  0.00  0.00    +0.000 C 
ATOM     19  C   UNL     1       1.648   9.188  18.928  0.00  0.00    +0.000 A 
ATOM     20  C   UNL     1       2.268   8.125  18.263  0.00  0.00    +0.000 A 
ATOM     21  C   UNL     1       2.380   6.873  18.876  0.00  0.00    +0.000 A 
ATOM     22  C   UNL     1       1.872   6.660  20.164  0.00  0.00    +0.000 A 
ATOM     23  C   UNL     1       1.260   7.730  20.832  0.00  0.00    +0.000 A 
ATOM     24  C   UNL     1       1.147   8.981  20.218  0.00  0.00    +0.000 A 
ENDBRANCH  17  22
ENDBRANCH  15  17
ENDBRANCH   1  15
TORSDOF 4
ENDMDL
