MODEL 1
REMARK VINA RESULT:      -6.7      0.000      0.000
REMARK  Name = 
REMARK  9 active torsions:
REMARK  status: ('A' for Active; 'I' for Inactive)
REMARK    1  A    between atoms: C_1  and  C_2
REMARK    2  A    between atoms: C_2  and  C_3
REMARK    3  A    between atoms: C_2  and  C_4
REMARK    4  A    between atoms: C_2  and  O_5
REMARK    5  A    between atoms: O_5  and  C_6
REMARK    6  A    between atoms: N_8  and  C_9
REMARK    7  A    between atoms: N_8  and  S_16
REMARK    8  A    between atoms: C_9  and  C_10
REMARK    9  A    between atoms: S_16  and  C_17
REMARK                            x       y       z     vdW  Elec       q    Type
REMARK                         _______ _______ _______ _____ _____    ______ ____
ROOT
ATOM      1  C   UNL     1       4.392   4.691  17.725  0.00  0.00    +0.000 C 
ATOM      2  O   UNL     1       4.257   4.751  16.514  0.00  0.00    +0.000 OA
ATOM      3  N   UNL     1       3.298   4.865  18.592  0.00  0.00    +0.000 N 
ENDROOT
BRANCH   3   4
ATOM      4  S   UNL     1       2.029   3.775  18.526  0.00  0.00    +0.000 S 
ATOM      5  C   UNL     1       2.831   2.238  18.130  0.00  0.00    +0.000 C 
ATOM      6  O   UNL     1       1.440   3.637  19.844  0.00  0.00    +0.000 OA
ATOM      7  O   UNL     1       1.200   4.133  17.394  0.00  0.00    +0.000 OA
ENDBRANCH   3   4
BRANCH   1   8
ATOM      8  O   UNL     1       5.570   4.478  18.375  0.00  0.00    +0.000 OA
BRANCH   8  10
ATOM      9  C   UNL     1       7.523   5.552  19.400  0.00  0.00    +0.000 C 
ATOM     10  C   UNL     1       6.718   5.339  18.115  0.00  0.00    +0.000 C 
ATOM     11  C   UNL     1       6.319   6.674  17.466  0.00  0.00    +0.000 C 
ATOM     12  C   UNL     1       7.603   4.580  17.107  0.00  0.00    +0.000 C 
ENDBRANCH   8  10
ENDBRANCH   1   8
BRANCH   3  13
ATOM     13  C   UNL     1       3.248   5.905  19.632  0.00  0.00    +0.000 C 
BRANCH  13  14
ATOM     14  C   UNL     1       2.463   7.163  19.278  0.00  0.00    +0.000 A 
ATOM     15  C   UNL     1       2.449   7.738  17.997  0.00  0.00    +0.000 A 
ATOM     16  C   UNL     1       1.768   8.936  17.753  0.00  0.00    +0.000 A 
ATOM     17  C   UNL     1       1.095   9.584  18.785  0.00  0.00    +0.000 A 
ATOM     18  C   UNL     1       1.072   9.015  20.055  0.00  0.00    +0.000 A 
ATOM     19  C   UNL     1       1.743   7.813  20.297  0.00  0.00    +0.000 A 
ENDBRANCH  13  14
ENDBRANCH   3  13
TORSDOF 5
ENDMDL
MODEL 2
REMARK VINA RESULT:      -6.6      0.286      1.138
REMARK  Name = 
REMARK  9 active torsions:
REMARK  status: ('A' for Active; 'I' for Inactive)
REMARK    1  A    between atoms: C_1  and  C_2
REMARK    2  A    between atoms: C_2  and  C_3
REMARK    3  A    between atoms: C_2  and  C_4
REMARK    4  A    between atoms: C_2  and  O_5
REMARK    5  A    between atoms: O_5  and  C_6
REMARK    6  A    between atoms: N_8  and  C_9
REMARK    7  A    between atoms: N_8  and  S_16
REMARK    8  A    between atoms: C_9  and  C_10
REMARK    9  A    between atoms: S_16  and  C_17
REMARK                            x       y       z     vdW  Elec       q    Type
REMARK                         _______ _______ _______ _____ _____    ______ ____
ROOT
ATOM      1  C   UNL     1       4.179   4.568  17.814  0.00  0.00    +0.000 C 
ATOM      2  O   UNL     1       3.972   4.629  16.613  0.00  0.00    +0.000 OA
ATOM      3  N   UNL     1       3.144   4.771  18.746  0.00  0.00    +0.000 N 
ENDROOT
BRANCH   3   4
ATOM      4  S   UNL     1       1.846   3.714  18.760  0.00  0.00    +0.000 S 
ATOM      5  C   UNL     1       2.622   2.114  18.721  0.00  0.00    +0.000 C 
ATOM      6  O   UNL     1       1.142   3.829  20.022  0.00  0.00    +0.000 OA
ATOM      7  O   UNL     1       1.131   3.878  17.512  0.00  0.00    +0.000 OA
ENDBRANCH   3   4
BRANCH   1   8
ATOM      8  O   UNL     1       5.389   4.325  18.391  0.00  0.00    +0.000 OA
BRANCH   8  10
ATOM      9  C   UNL     1       7.211   5.525  19.512  0.00  0.00    +0.000 C 
ATOM     10  C   UNL     1       6.498   5.248  18.186  0.00  0.00    +0.000 C 
ATOM     11  C   UNL     1       6.062   6.549  17.493  0.00  0.00    +0.000 C 
ATOM     12  C   UNL     1       7.484   4.530  17.244  0.00  0.00    +0.000 C 
ENDBRANCH   8  10
ENDBRANCH   1   8
BRANCH   3  13
ATOM     13  C   UNL     1       3.184   5.814  19.784  0.00  0.00    +0.000 C 
BRANCH  13  14
ATOM     14  C   UNL     1       2.499   7.129  19.432  0.00  0.00    +0.000 A 
ATOM     15  C   UNL     1       1.726   7.872  20.340  0.00  0.00    +0.000 A 
ATOM     16  C   UNL     1       1.060   9.035  19.935  0.00  0.00    +0.000 A 
ATOM     17  C   UNL     1       1.150   9.472  18.617  0.00  0.00    +0.000 A 
ATOM     18  C   UNL     1       1.935   8.767  17.709  0.00  0.00    +0.000 A 
ATOM     19  C   UNL     1       2.609   7.611  18.115  0.00  0.00    +0.000 A 
ENDBRANCH  13  14
ENDBRANCH   3  13
TORSDOF 5
ENDMDL
MODEL 3
REMARK VINA RESULT:      -6.6      0.878      1.070
REMARK  Name = 
REMARK  9 active torsions:
REMARK  status: ('A' for Active; 'I' for Inactive)
REMARK    1  A    between atoms: C_1  and  C_2
REMARK    2  A    between atoms: C_2  and  C_3
REMARK    3  A    between atoms: C_2  and  C_4
REMARK    4  A    between atoms: C_2  and  O_5
REMARK    5  A    between atoms: O_5  and  C_6
REMARK    6  A    between atoms: N_8  and  C_9
REMARK    7  A    between atoms: N_8  and  S_16
REMARK    8  A    between atoms: C_9  and  C_10
REMARK    9  A    between atoms: S_16  and  C_17
REMARK                            x       y       z     vdW  Elec       q    Type
REMARK                         _______ _______ _______ _____ _____    ______ ____
ROOT
ATOM      1  C   UNL     1       4.446   4.955  17.889  0.00  0.00    +0.000 C 
ATOM      2  O   UNL     1       4.390   5.091  16.678  0.00  0.00    +0.000 OA
ATOM      3  N   UNL     1       3.283   4.973  18.681  0.00  0.00    +0.000 N 
ENDROOT
BRANCH   3   4
ATOM      4  S   UNL     1       2.125   3.787  18.448  0.00  0.00    +0.000 S 
ATOM      5  C   UNL     1       1.221   3.791  19.980  0.00  0.00    +0.000 C 
ATOM      6  O   UNL     1       1.213   4.201  17.400  0.00  0.00    +0.000 OA
ATOM      7  O   UNL     1       2.810   2.516  18.354  0.00  0.00    +0.000 OA
ENDBRANCH   3   4
BRANCH   1   8
ATOM      8  O   UNL     1       5.591   4.796  18.610  0.00  0.00    +0.000 OA
BRANCH   8  10
ATOM      9  C   UNL     1       7.702   5.728  19.440  0.00  0.00    +0.000 C 
ATOM     10  C   UNL     1       6.808   5.498  18.220  0.00  0.00    +0.000 C 
ATOM     11  C   UNL     1       6.517   6.810  17.472  0.00  0.00    +0.000 C 
ATOM     12  C   UNL     1       7.547   4.564  17.244  0.00  0.00    +0.000 C 
ENDBRANCH   8  10
ENDBRANCH   1   8
BRANCH   3  13
ATOM     13  C   UNL     1       3.069   5.927  19.781  0.00  0.00    +0.000 C 
BRANCH  13  14
ATOM     14  C   UNL     1       2.353   7.220  19.411  0.00  0.00    +0.000 A 
ATOM     15  C   UNL     1       2.399   7.797  18.131  0.00  0.00    +0.000 A 
ATOM     16  C   UNL     1       1.781   9.026  17.873  0.00  0.00    +0.000 A 
ATOM     17  C   UNL     1       1.111   9.703  18.889  0.00  0.00    +0.000 A 
ATOM     18  C   UNL     1       1.029   9.133  20.156  0.00  0.00    +0.000 A 
ATOM     19  C   UNL     1       1.637   7.901  20.412  0.00  0.00    +0.000 A 
ENDBRANCH  13  14
ENDBRANCH   3  13
TORSDOF 5
ENDMDL
MODEL 4
REMARK VINA RESULT:      -6.6      2.466      5.178
REMARK  Name = 
REMARK  9 active torsions:
REMARK  status: ('A' for Active; 'I' for Inactive)
REMARK    1  A    between atoms: C_1  and  C_2
REMARK    2  A    between atoms: C_2  and  C_3
REMARK    3  A    between atoms: C_2  and  C_4
REMARK    4  A    between atoms: C_2  and  O_5
REMARK    5  A    between atoms: O_5  and  C_6
REMARK    6  A    between atoms: N_8  and  C_9
REMARK    7  A    between atoms: N_8  and  S_16
REMARK    8  A    between atoms: C_9  and  C_10
REMARK    9  A    between atoms: S_16  and  C_17
REMARK                            x       y       z     vdW  Elec       q    Type
REMARK                         _______ _______ _______ _____ _____    ______ ____
ROOT
ATOM      1  C   UNL     1       4.750   6.150  17.551  0.00  0.00    +0.000 C 
ATOM      2  O   UNL     1       4.599   5.958  16.356  0.00  0.00    +0.000 OA
ATOM      3  N   UNL     1       5.628   5.358  18.315  0.00  0.00    +0.000 N 
ENDROOT
BRANCH   3   4
ATOM      4  S   UNL     1       7.262   5.377  17.950  0.00  0.00    +0.000 S 
ATOM      5  C   UNL     1       7.582   7.090  17.595  0.00  0.00    +0.000 C 
ATOM      6  O   UNL     1       8.025   5.023  19.130  0.00  0.00    +0.000 OA
ATOM      7  O   UNL     1       7.445   4.639  16.718  0.00  0.00    +0.000 OA
ENDBRANCH   3   4
BRANCH   1   8
ATOM      8  O   UNL     1       4.103   7.101  18.282  0.00  0.00    +0.000 OA
BRANCH   8  10
ATOM      9  C   UNL     1       2.278   7.070  19.920  0.00  0.00    +0.000 C 
ATOM     10  C   UNL     1       2.654   7.049  18.437  0.00  0.00    +0.000 C 
ATOM     11  C   UNL     1       2.027   5.849  17.708  0.00  0.00    +0.000 C 
ATOM     12  C   UNL     1       2.107   8.329  17.777  0.00  0.00    +0.000 C 
ENDBRANCH   8  10
ENDBRANCH   1   8
BRANCH   3  13
ATOM     13  C   UNL     1       5.201   4.581  19.489  0.00  0.00    +0.000 C 
BRANCH  13  14
ATOM     14  C   UNL     1       4.049   3.611  19.263  0.00  0.00    +0.000 A 
ATOM     15  C   UNL     1       3.899   2.836  18.100  0.00  0.00    +0.000 A 
ATOM     16  C   UNL     1       2.778   2.018  17.920  0.00  0.00    +0.000 A 
ATOM     17  C   UNL     1       1.784   1.964  18.893  0.00  0.00    +0.000 A 
ATOM     18  C   UNL     1       1.928   2.701  20.065  0.00  0.00    +0.000 A 
ATOM     19  C   UNL     1       3.052   3.510  20.251  0.00  0.00    +0.000 A 
ENDBRANCH  13  14
ENDBRANCH   3  13
TORSDOF 5
ENDMDL
MODEL 5
REMARK VINA RESULT:      -6.6      0.844      1.841
REMARK  Name = 
REMARK  9 active torsions:
REMARK  status: ('A' for Active; 'I' for Inactive)
REMARK    1  A    between atoms: C_1  and  C_2
REMARK    2  A    between atoms: C_2  and  C_3
REMARK    3  A    between atoms: C_2  and  C_4
REMARK    4  A    between atoms: C_2  and  O_5
REMARK    5  A    between atoms: O_5  and  C_6
REMARK    6  A    between atoms: N_8  and  C_9
REMARK    7  A    between atoms: N_8  and  S_16
REMARK    8  A    between atoms: C_9  and  C_10
REMARK    9  A    between atoms: S_16  and  C_17
REMARK                            x       y       z     vdW  Elec       q    Type
REMARK                         _______ _______ _______ _____ _____    ______ ____
ROOT
ATOM      1  C   UNL     1       4.336   4.757  17.810  0.00  0.00    +0.000 C 
ATOM      2  O   UNL     1       4.198   4.875  16.603  0.00  0.00    +0.000 OA
ATOM      3  N   UNL     1       3.235   4.839  18.683  0.00  0.00    +0.000 N 
ENDROOT
BRANCH   3   4
ATOM      4  S   UNL     1       2.013   3.702  18.557  0.00  0.00    +0.000 S 
ATOM      5  C   UNL     1       1.087   3.929  20.059  0.00  0.00    +0.000 C 
ATOM      6  O   UNL     1       1.144   4.047  17.449  0.00  0.00    +0.000 OA
ATOM      7  O   UNL     1       2.624   2.391  18.620  0.00  0.00    +0.000 OA
ENDBRANCH   3   4
BRANCH   1   8
ATOM      8  O   UNL     1       5.522   4.559  18.450  0.00  0.00    +0.000 OA
BRANCH   8  10
ATOM      9  C   UNL     1       6.278   6.686  17.492  0.00  0.00    +0.000 C 
ATOM     10  C   UNL     1       6.698   5.335  18.074  0.00  0.00    +0.000 C 
ATOM     11  C   UNL     1       7.628   4.569  17.118  0.00  0.00    +0.000 C 
ATOM     12  C   UNL     1       7.479   5.587  19.377  0.00  0.00    +0.000 C 
ENDBRANCH   8  10
ENDBRANCH   1   8
BRANCH   3  13
ATOM     13  C   UNL     1       3.142   5.820  19.777  0.00  0.00    +0.000 C 
BRANCH  13  14
ATOM     14  C   UNL     1       2.478   7.146  19.426  0.00  0.00    +0.000 A 
ATOM     15  C   UNL     1       1.706   7.894  20.330  0.00  0.00    +0.000 A 
ATOM     16  C   UNL     1       1.060   9.068  19.926  0.00  0.00    +0.000 A 
ATOM     17  C   UNL     1       1.169   9.512  18.611  0.00  0.00    +0.000 A 
ATOM     18  C   UNL     1       1.954   8.801  17.707  0.00  0.00    +0.000 A 
ATOM     19  C   UNL     1       2.608   7.634  18.113  0.00  0.00    +0.000 A 
ENDBRANCH  13  14
ENDBRANCH   3  13
TORSDOF 5
ENDMDL
MODEL 6
REMARK VINA RESULT:      -6.6      2.405      5.285
REMARK  Name = 
REMARK  9 active torsions:
REMARK  status: ('A' for Active; 'I' for Inactive)
REMARK    1  A    between atoms: C_1  and  C_2
REMARK    2  A    between atoms: C_2  and  C_3
REMARK    3  A    between atoms: C_2  and  C_4
REMARK    4  A    between atoms: C_2  and  O_5
REMARK    5  A    between atoms: O_5  and  C_6
REMARK    6  A    between atoms: N_8  and  C_9
REMARK    7  A    between atoms: N_8  and  S_16
REMARK    8  A    between atoms: C_9  and  C_10
REMARK    9  A    between atoms: S_16  and  C_17
REMARK                            x       y       z     vdW  Elec       q    Type
REMARK                         _______ _______ _______ _____ _____    ______ ____
ROOT
ATOM      1  C   UNL     1       4.748   5.918  17.746  0.00  0.00    +0.000 C 
ATOM      2  O   UNL     1       4.540   6.012  16.547  0.00  0.00    +0.000 OA
ATOM      3  N   UNL     1       5.701   5.015  18.254  0.00  0.00    +0.000 N 
ENDROOT
BRANCH   3   4
ATOM      4  S   UNL     1       7.309   5.212  17.834  0.00  0.00    +0.000 S 
ATOM      5  C   UNL     1       7.473   6.975  17.659  0.00  0.00    +0.000 C 
ATOM      6  O   UNL     1       8.152   4.800  18.940  0.00  0.00    +0.000 OA
ATOM      7  O   UNL     1       7.496   4.629  16.523  0.00  0.00    +0.000 OA
ENDBRANCH   3   4
BRANCH   1   8
ATOM      8  O   UNL     1       4.103   6.627  18.714  0.00  0.00    +0.000 OA
BRANCH   8  10
ATOM      9  C   UNL     1       1.939   5.878  17.834  0.00  0.00    +0.000 C 
ATOM     10  C   UNL     1       2.704   6.999  18.541  0.00  0.00    +0.000 C 
ATOM     11  C   UNL     1       2.537   8.345  17.817  0.00  0.00    +0.000 C 
ATOM     12  C   UNL     1       2.126   7.162  19.960  0.00  0.00    +0.000 C 
ENDBRANCH   8  10
ENDBRANCH   1   8
BRANCH   3  13
ATOM     13  C   UNL     1       5.374   3.955  19.221  0.00  0.00    +0.000 C 
BRANCH  13  14
ATOM     14  C   UNL     1       3.970   3.373  19.122  0.00  0.00    +0.000 A 
ATOM     15  C   UNL     1       3.018   3.453  20.152  0.00  0.00    +0.000 A 
ATOM     16  C   UNL     1       1.769   2.833  20.028  0.00  0.00    +0.000 A 
ATOM     17  C   UNL     1       1.452   2.118  18.877  0.00  0.00    +0.000 A 
ATOM     18  C   UNL     1       2.370   2.052  17.833  0.00  0.00    +0.000 A 
ATOM     19  C   UNL     1       3.613   2.680  17.951  0.00  0.00    +0.000 A 
ENDBRANCH  13  14
ENDBRANCH   3  13
TORSDOF 5
ENDMDL
MODEL 7
REMARK VINA RESULT:      -6.5      2.451      5.275
REMARK  Name = 
REMARK  9 active torsions:
REMARK  status: ('A' for Active; 'I' for Inactive)
REMARK    1  A    between atoms: C_1  and  C_2
REMARK    2  A    between atoms: C_2  and  C_3
REMARK    3  A    between atoms: C_2  and  C_4
REMARK    4  A    between atoms: C_2  and  O_5
REMARK    5  A    between atoms: O_5  and  C_6
REMARK    6  A    between atoms: N_8  and  C_9
REMARK    7  A    between atoms: N_8  and  S_16
REMARK    8  A    between atoms: C_9  and  C_10
REMARK    9  A    between atoms: S_16  and  C_17
REMARK                            x       y       z     vdW  Elec       q    Type
REMARK                         _______ _______ _______ _____ _____    ______ ____
ROOT
ATOM      1  C   UNL     1       4.761   6.088  17.638  0.00  0.00    +0.000 C 
ATOM      2  O   UNL     1       4.556   6.020  16.437  0.00  0.00    +0.000 OA
ATOM      3  N   UNL     1       5.674   5.226  18.274  0.00  0.00    +0.000 N 
ENDROOT
BRANCH   3   4
ATOM      4  S   UNL     1       7.289   5.292  17.840  0.00  0.00    +0.000 S 
ATOM      5  C   UNL     1       7.579   7.031  17.606  0.00  0.00    +0.000 C 
ATOM      6  O   UNL     1       8.108   4.856  18.954  0.00  0.00    +0.000 OA
ATOM      7  O   UNL     1       7.423   4.654  16.547  0.00  0.00    +0.000 OA
ENDBRANCH   3   4
BRANCH   1   8
ATOM      8  O   UNL     1       4.147   6.953  18.492  0.00  0.00    +0.000 OA
BRANCH   8  10
ATOM      9  C   UNL     1       2.188   7.157  19.954  0.00  0.00    +0.000 C 
ATOM     10  C   UNL     1       2.693   7.058  18.513  0.00  0.00    +0.000 C 
ATOM     11  C   UNL     1       2.009   5.912  17.749  0.00  0.00    +0.000 C 
ATOM     12  C   UNL     1       2.348   8.371  17.784  0.00  0.00    +0.000 C 
ENDBRANCH   8  10
ENDBRANCH   1   8
BRANCH   3  13
ATOM     13  C   UNL     1       5.302   4.328  19.380  0.00  0.00    +0.000 C 
BRANCH  13  14
ATOM     14  C   UNL     1       3.991   3.571  19.210  0.00  0.00    +0.000 A 
ATOM     15  C   UNL     1       2.975   3.544  20.180  0.00  0.00    +0.000 A 
ATOM     16  C   UNL     1       1.824   2.768  19.996  0.00  0.00    +0.000 A 
ATOM     17  C   UNL     1       1.671   2.002  18.844  0.00  0.00    +0.000 A 
ATOM     18  C   UNL     1       2.652   2.039  17.857  0.00  0.00    +0.000 A 
ATOM     19  C   UNL     1       3.797   2.821  18.035  0.00  0.00    +0.000 A 
ENDBRANCH  13  14
ENDBRANCH   3  13
TORSDOF 5
ENDMDL
MODEL 8
REMARK VINA RESULT:      -6.4      3.024      6.311
REMARK  Name = 
REMARK  9 active torsions:
REMARK  status: ('A' for Active; 'I' for Inactive)
REMARK    1  A    between atoms: C_1  and  C_2
REMARK    2  A    between atoms: C_2  and  C_3
REMARK    3  A    between atoms: C_2  and  C_4
REMARK    4  A    between atoms: C_2  and  O_5
REMARK    5  A    between atoms: O_5  and  C_6
REMARK    6  A    between atoms: N_8  and  C_9
REMARK    7  A    between atoms: N_8  and  S_16
REMARK    8  A    between atoms: C_9  and  C_10
REMARK    9  A    between atoms: S_16  and  C_17
REMARK                            x       y       z     vdW  Elec       q    Type
REMARK                         _______ _______ _______ _____ _____    ______ ____
ROOT
ATOM      1  C   UNL     1       4.557   5.528  16.907  0.00  0.00    +0.000 C 
ATOM      2  O   UNL     1       4.488   6.726  16.686  0.00  0.00    +0.000 OA
ATOM      3  N   UNL     1       5.791   4.853  16.895  0.00  0.00    +0.000 N 
ENDROOT
BRANCH   3   4
ATOM      4  S   UNL     1       6.962   5.283  18.012  0.00  0.00    +0.000 S 
ATOM      5  C   UNL     1       7.493   6.885  17.450  0.00  0.00    +0.000 C 
ATOM      6  O   UNL     1       6.349   5.455  19.314  0.00  0.00    +0.000 OA
ATOM      7  O   UNL     1       8.079   4.376  17.849  0.00  0.00    +0.000 OA
ENDBRANCH   3   4
BRANCH   1   8
ATOM      8  O   UNL     1       3.495   4.714  17.164  0.00  0.00    +0.000 OA
BRANCH   8  10
ATOM      9  C   UNL     1       3.021   5.935  19.238  0.00  0.00    +0.000 C 
ATOM     10  C   UNL     1       2.983   4.583  18.523  0.00  0.00    +0.000 C 
ATOM     11  C   UNL     1       3.715   3.495  19.326  0.00  0.00    +0.000 C 
ATOM     12  C   UNL     1       1.512   4.145  18.386  0.00  0.00    +0.000 C 
ENDBRANCH   8  10
ENDBRANCH   1   8
BRANCH   3  13
ATOM     13  C   UNL     1       6.080   3.712  16.012  0.00  0.00    +0.000 C 
BRANCH  13  14
ATOM     14  C   UNL     1       6.431   4.059  14.570  0.00  0.00    +0.000 A 
ATOM     15  C   UNL     1       5.846   3.439  13.454  0.00  0.00    +0.000 A 
ATOM     16  C   UNL     1       6.265   3.749  12.155  0.00  0.00    +0.000 A 
ATOM     17  C   UNL     1       7.280   4.679  11.949  0.00  0.00    +0.000 A 
ATOM     18  C   UNL     1       7.853   5.326  13.040  0.00  0.00    +0.000 A 
ATOM     19  C   UNL     1       7.428   5.025  14.337  0.00  0.00    +0.000 A 
ENDBRANCH  13  14
ENDBRANCH   3  13
TORSDOF 5
ENDMDL
MODEL 9
REMARK VINA RESULT:      -6.4      1.019      1.386
REMARK  Name = 
REMARK  9 active torsions:
REMARK  status: ('A' for Active; 'I' for Inactive)
REMARK    1  A    between atoms: C_1  and  C_2
REMARK    2  A    between atoms: C_2  and  C_3
REMARK    3  A    between atoms: C_2  and  C_4
REMARK    4  A    between atoms: C_2  and  O_5
REMARK    5  A    between atoms: O_5  and  C_6
REMARK    6  A    between atoms: N_8  and  C_9
REMARK    7  A    between atoms: N_8  and  S_16
REMARK    8  A    between atoms: C_9  and  C_10
REMARK    9  A    between atoms: S_16  and  C_17
REMARK                            x       y       z     vdW  Elec       q    Type
REMARK                         _______ _______ _______ _____ _____    ______ ____
ROOT
ATOM      1  C   UNL     1       4.374   4.441  17.374  0.00  0.00    +0.000 C 
ATOM      2  O   UNL     1       4.081   4.522  16.193  0.00  0.00    +0.000 OA
ATOM      3  N   UNL     1       3.395   4.545  18.380  0.00  0.00    +0.000 N 
ENDROOT
BRANCH   3   4
ATOM      4  S   UNL     1       2.176   3.400  18.446  0.00  0.00    +0.000 S 
ATOM      5  C   UNL     1       1.677   3.433  20.153  0.00  0.00    +0.000 C 
ATOM      6  O   UNL     1       1.049   3.846  17.651  0.00  0.00    +0.000 OA
ATOM      7  O   UNL     1       2.775   2.106  18.197  0.00  0.00    +0.000 OA
ENDBRANCH   3   4
BRANCH   1   8
ATOM      8  O   UNL     1       5.635   4.267  17.860  0.00  0.00    +0.000 OA
BRANCH   8  10
ATOM      9  C   UNL     1       6.361   6.576  17.462  0.00  0.00    +0.000 C 
ATOM     10  C   UNL     1       6.731   5.094  17.370  0.00  0.00    +0.000 C 
ATOM     11  C   UNL     1       7.173   4.705  15.950  0.00  0.00    +0.000 C 
ATOM     12  C   UNL     1       7.921   4.830  18.313  0.00  0.00    +0.000 C 
ENDBRANCH   8  10
ENDBRANCH   1   8
BRANCH   3  13
ATOM     13  C   UNL     1       3.437   5.558  19.447  0.00  0.00    +0.000 C 
BRANCH  13  14
ATOM     14  C   UNL     1       2.678   6.850  19.168  0.00  0.00    +0.000 A 
ATOM     15  C   UNL     1       2.693   7.510  17.928  0.00  0.00    +0.000 A 
ATOM     16  C   UNL     1       2.036   8.734  17.756  0.00  0.00    +0.000 A 
ATOM     17  C   UNL     1       1.359   9.322  18.820  0.00  0.00    +0.000 A 
ATOM     18  C   UNL     1       1.307   8.670  20.049  0.00  0.00    +0.000 A 
ATOM     19  C   UNL     1       1.954   7.442  20.219  0.00  0.00    +0.000 A 
ENDBRANCH  13  14
ENDBRANCH   3  13
TORSDOF 5
ENDMDL
