MODEL 1
REMARK VINA RESULT:      -7.5      0.000      0.000
REMARK  Name = 
REMARK  8 active torsions:
REMARK  status: ('A' for Active; 'I' for Inactive)
REMARK    1  A    between atoms: C_1  and  C_2
REMARK    2  A    between atoms: N_4  and  O_5
REMARK    3  A    between atoms: N_4  and  C_6
REMARK    4  A    between atoms: C_6  and  C_7
REMARK    5  A    between atoms: C_8  and  N_9
REMARK    6  A    between atoms: C_18  and  C_19
REMARK    7  A    between atoms: C_27  and  C_28
REMARK    8  A    between atoms: C_27  and  C_29
REMARK                            x       y       z     vdW  Elec       q    Type
REMARK                         _______ _______ _______ _____ _____    ______ ____
ROOT
ATOM      1  C   UNL     1       5.727   5.218  17.893  0.00  0.00    +0.000 C 
ATOM      2  C   UNL     1       5.001   4.632  16.913  0.00  0.00    +0.000 C 
ATOM      3  C   UNL     1       5.613   4.546  15.554  0.00  0.00    +0.000 A 
ATOM      4  C   UNL     1       4.989   3.918  14.459  0.00  0.00    +0.000 A 
ATOM      5  C   UNL     1       5.575   3.885  13.181  0.00  0.00    +0.000 A 
ATOM      6  C   UNL     1       6.795   4.542  12.984  0.00  0.00    +0.000 A 
ATOM      7  C   UNL     1       7.405   5.205  14.046  0.00  0.00    +0.000 A 
ATOM      8  C   UNL     1       6.824   5.194  15.317  0.00  0.00    +0.000 A 
ATOM      9  O   UNL     1       7.491   5.899  16.275  0.00  0.00    +0.000 OA
ATOM     10  C   UNL     1       7.207   5.558  17.649  0.00  0.00    +0.000 C 
ATOM     11  C   UNL     1       8.091   4.340  18.002  0.00  0.00    +0.000 C 
ATOM     12  C   UNL     1       7.742   6.764  18.443  0.00  0.00    +0.000 C 
ENDROOT
BRANCH   2  13
ATOM     13  N   UNL     1       3.709   4.142  17.102  0.00  0.00    +0.000 N 
ATOM     14  C   UNL     1       2.716   5.111  17.219  0.00  0.00    +0.000 A 
ATOM     15  C   UNL     1       1.471   4.790  17.592  0.00  0.00    +0.000 A 
ATOM     16  C   UNL     1       1.128   3.413  17.833  0.00  0.00    +0.000 A 
ATOM     17  C   UNL     1       2.042   2.446  17.679  0.00  0.00    +0.000 A 
ATOM     18  C   UNL     1       3.450   2.782  17.310  0.00  0.00    +0.000 A 
ATOM     19  O   UNL     1       4.281   1.876  17.254  0.00  0.00    +0.000 OA
ENDBRANCH   2  13
BRANCH   5  20
ATOM     20  C   UNL     1       4.900   3.169  12.038  0.00  0.00    +0.000 C 
ATOM     21  F   UNL     1       3.575   2.933  12.252  0.00  0.00    +0.000 F 
ATOM     22  F   UNL     1       4.971   3.862  10.869  0.00  0.00    +0.000 F 
ATOM     23  F   UNL     1       5.456   1.951  11.790  0.00  0.00    +0.000 F 
ENDBRANCH   5  20
BRANCH   1  24
ATOM     24  C   UNL     1       5.210   5.420  19.302  0.00  0.00    +0.000 C 
BRANCH  24  28
ATOM     25  C   UNL     1       3.147   2.703  21.049  0.00  0.00    +0.000 C 
ATOM     26  C   UNL     1       3.508   4.082  20.557  0.00  0.00    +0.000 C 
ATOM     27  O   UNL     1       2.770   5.047  20.749  0.00  0.00    +0.000 OA
ATOM     28  N   UNL     1       4.716   4.184  19.915  0.00  0.00    +0.000 N 
BRANCH  28  29
ATOM     29  O   UNL     1       5.463   3.011  19.696  0.00  0.00    +0.000 OA
ATOM     30  H   UNL     1       4.962   2.365  20.246  0.00  0.00    +0.000 HD
ENDBRANCH  28  29
ENDBRANCH  24  28
ENDBRANCH   1  24
TORSDOF 5
ENDMDL
MODEL 2
REMARK VINA RESULT:      -7.4     11.314     13.361
REMARK  Name = 
REMARK  8 active torsions:
REMARK  status: ('A' for Active; 'I' for Inactive)
REMARK    1  A    between atoms: C_1  and  C_2
REMARK    2  A    between atoms: N_4  and  O_5
REMARK    3  A    between atoms: N_4  and  C_6
REMARK    4  A    between atoms: C_6  and  C_7
REMARK    5  A    between atoms: C_8  and  N_9
REMARK    6  A    between atoms: C_18  and  C_19
REMARK    7  A    between atoms: C_27  and  C_28
REMARK    8  A    between atoms: C_27  and  C_29
REMARK                            x       y       z     vdW  Elec       q    Type
REMARK                         _______ _______ _______ _____ _____    ______ ____
ROOT
ATOM      1  C   UNL     1      -3.442  13.612  22.095  0.00  0.00    +0.000 C 
ATOM      2  C   UNL     1      -4.007  13.238  20.924  0.00  0.00    +0.000 C 
ATOM      3  C   UNL     1      -3.168  12.458  19.968  0.00  0.00    +0.000 A 
ATOM      4  C   UNL     1      -3.645  11.963  18.739  0.00  0.00    +0.000 A 
ATOM      5  C   UNL     1      -2.819  11.263  17.841  0.00  0.00    +0.000 A 
ATOM      6  C   UNL     1      -1.468  11.096  18.163  0.00  0.00    +0.000 A 
ATOM      7  C   UNL     1      -0.969  11.616  19.355  0.00  0.00    +0.000 A 
ATOM      8  C   UNL     1      -1.814  12.277  20.250  0.00  0.00    +0.000 A 
ATOM      9  O   UNL     1      -1.215  12.770  21.371  0.00  0.00    +0.000 OA
ATOM     10  C   UNL     1      -2.072  13.042  22.500  0.00  0.00    +0.000 C 
ATOM     11  C   UNL     1      -2.262  11.705  23.252  0.00  0.00    +0.000 C 
ATOM     12  C   UNL     1      -1.218  13.959  23.394  0.00  0.00    +0.000 C 
ENDROOT
BRANCH   2  13
ATOM     13  N   UNL     1      -5.310  13.575  20.557  0.00  0.00    +0.000 N 
ATOM     14  C   UNL     1      -5.486  14.884  20.120  0.00  0.00    +0.000 A 
ATOM     15  C   UNL     1      -6.709  15.394  19.921  0.00  0.00    +0.000 A 
ATOM     16  C   UNL     1      -7.869  14.565  20.115  0.00  0.00    +0.000 A 
ATOM     17  C   UNL     1      -7.739  13.284  20.484  0.00  0.00    +0.000 A 
ATOM     18  C   UNL     1      -6.390  12.705  20.757  0.00  0.00    +0.000 A 
ATOM     19  O   UNL     1      -6.312  11.548  21.171  0.00  0.00    +0.000 OA
ENDBRANCH   2  13
BRANCH   5  20
ATOM     20  C   UNL     1      -3.372  10.711  16.551  0.00  0.00    +0.000 C 
ATOM     21  F   UNL     1      -2.793  11.246  15.439  0.00  0.00    +0.000 F 
ATOM     22  F   UNL     1      -3.209   9.364  16.444  0.00  0.00    +0.000 F 
ATOM     23  F   UNL     1      -4.707  10.941  16.419  0.00  0.00    +0.000 F 
ENDBRANCH   5  20
BRANCH   1  24
ATOM     24  C   UNL     1      -4.159  14.450  23.133  0.00  0.00    +0.000 C 
BRANCH  24  28
ATOM     25  C   UNL     1      -7.687  13.523  24.310  0.00  0.00    +0.000 C 
ATOM     26  C   UNL     1      -6.572  14.397  23.793  0.00  0.00    +0.000 C 
ATOM     27  O   UNL     1      -6.759  15.582  23.515  0.00  0.00    +0.000 OA
ATOM     28  N   UNL     1      -5.346  13.792  23.683  0.00  0.00    +0.000 N 
BRANCH  28  29
ATOM     29  O   UNL     1      -5.247  12.417  23.973  0.00  0.00    +0.000 OA
ATOM     30  H   UNL     1      -4.407  12.395  24.486  0.00  0.00    +0.000 HD
ENDBRANCH  28  29
ENDBRANCH  24  28
ENDBRANCH   1  24
TORSDOF 5
ENDMDL
MODEL 3
REMARK VINA RESULT:      -6.9      9.535     11.664
REMARK  Name = 
REMARK  8 active torsions:
REMARK  status: ('A' for Active; 'I' for Inactive)
REMARK    1  A    between atoms: C_1  and  C_2
REMARK    2  A    between atoms: N_4  and  O_5
REMARK    3  A    between atoms: N_4  and  C_6
REMARK    4  A    between atoms: C_6  and  C_7
REMARK    5  A    between atoms: C_8  and  N_9
REMARK    6  A    between atoms: C_18  and  C_19
REMARK    7  A    between atoms: C_27  and  C_28
REMARK    8  A    between atoms: C_27  and  C_29
REMARK                            x       y       z     vdW  Elec       q    Type
REMARK                         _______ _______ _______ _____ _____    ______ ____
ROOT
ATOM      1  C   UNL     1       0.682  11.663  19.117  0.00  0.00    +0.000 C 
ATOM      2  C   UNL     1      -0.497  12.321  19.218  0.00  0.00    +0.000 C 
ATOM      3  C   UNL     1      -1.722  11.624  18.729  0.00  0.00    +0.000 A 
ATOM      4  C   UNL     1      -3.017  12.171  18.820  0.00  0.00    +0.000 A 
ATOM      5  C   UNL     1      -4.149  11.504  18.317  0.00  0.00    +0.000 A 
ATOM      6  C   UNL     1      -3.972  10.281  17.662  0.00  0.00    +0.000 A 
ATOM      7  C   UNL     1      -2.694   9.745  17.525  0.00  0.00    +0.000 A 
ATOM      8  C   UNL     1      -1.586  10.405  18.065  0.00  0.00    +0.000 A 
ATOM      9  O   UNL     1      -0.380   9.807  17.847  0.00  0.00    +0.000 OA
ATOM     10  C   UNL     1       0.698  10.174  18.734  0.00  0.00    +0.000 C 
ATOM     11  C   UNL     1       0.552   9.304  20.003  0.00  0.00    +0.000 C 
ATOM     12  C   UNL     1       1.960   9.702  17.990  0.00  0.00    +0.000 C 
ENDROOT
BRANCH   2  13
ATOM     13  N   UNL     1      -0.614  13.618  19.716  0.00  0.00    +0.000 N 
ATOM     14  C   UNL     1      -0.484  14.633  18.773  0.00  0.00    +0.000 A 
ATOM     15  C   UNL     1      -0.383  15.917  19.140  0.00  0.00    +0.000 A 
ATOM     16  C   UNL     1      -0.458  16.270  20.534  0.00  0.00    +0.000 A 
ATOM     17  C   UNL     1      -0.636  15.327  21.467  0.00  0.00    +0.000 A 
ATOM     18  C   UNL     1      -0.704  13.884  21.088  0.00  0.00    +0.000 A 
ATOM     19  O   UNL     1      -0.789  13.040  21.979  0.00  0.00    +0.000 OA
ENDBRANCH   2  13
BRANCH   5  20
ATOM     20  C   UNL     1      -5.526  12.099  18.466  0.00  0.00    +0.000 C 
ATOM     21  F   UNL     1      -5.688  12.815  19.614  0.00  0.00    +0.000 F 
ATOM     22  F   UNL     1      -5.845  12.947  17.450  0.00  0.00    +0.000 F 
ATOM     23  F   UNL     1      -6.502  11.149  18.484  0.00  0.00    +0.000 F 
ENDBRANCH   5  20
BRANCH   1  24
ATOM     24  C   UNL     1       2.008  12.271  19.525  0.00  0.00    +0.000 C 
BRANCH  24  28
ATOM     25  C   UNL     1       3.642  15.271  17.785  0.00  0.00    +0.000 C 
ATOM     26  C   UNL     1       3.130  14.426  18.925  0.00  0.00    +0.000 C 
ATOM     27  O   UNL     1       3.248  14.786  20.096  0.00  0.00    +0.000 OA
ATOM     28  N   UNL     1       2.507  13.259  18.564  0.00  0.00    +0.000 N 
BRANCH  28  29
ATOM     29  O   UNL     1       2.471  12.909  17.200  0.00  0.00    +0.000 OA
ATOM     30  H   UNL     1       2.279  11.944  17.260  0.00  0.00    +0.000 HD
ENDBRANCH  28  29
ENDBRANCH  24  28
ENDBRANCH   1  24
TORSDOF 5
ENDMDL
MODEL 4
REMARK VINA RESULT:      -6.9     11.102     13.155
REMARK  Name = 
REMARK  8 active torsions:
REMARK  status: ('A' for Active; 'I' for Inactive)
REMARK    1  A    between atoms: C_1  and  C_2
REMARK    2  A    between atoms: N_4  and  O_5
REMARK    3  A    between atoms: N_4  and  C_6
REMARK    4  A    between atoms: C_6  and  C_7
REMARK    5  A    between atoms: C_8  and  N_9
REMARK    6  A    between atoms: C_18  and  C_19
REMARK    7  A    between atoms: C_27  and  C_28
REMARK    8  A    between atoms: C_27  and  C_29
REMARK                            x       y       z     vdW  Elec       q    Type
REMARK                         _______ _______ _______ _____ _____    ______ ____
ROOT
ATOM      1  C   UNL     1      -3.269  13.432  22.075  0.00  0.00    +0.000 C 
ATOM      2  C   UNL     1      -3.866  13.050  20.922  0.00  0.00    +0.000 C 
ATOM      3  C   UNL     1      -3.024  12.357  19.903  0.00  0.00    +0.000 A 
ATOM      4  C   UNL     1      -3.527  11.863  18.685  0.00  0.00    +0.000 A 
ATOM      5  C   UNL     1      -2.700  11.246  17.728  0.00  0.00    +0.000 A 
ATOM      6  C   UNL     1      -1.326  11.167  17.979  0.00  0.00    +0.000 A 
ATOM      7  C   UNL     1      -0.805  11.689  19.160  0.00  0.00    +0.000 A 
ATOM      8  C   UNL     1      -1.648  12.265  20.114  0.00  0.00    +0.000 A 
ATOM      9  O   UNL     1      -1.029  12.769  21.219  0.00  0.00    +0.000 OA
ATOM     10  C   UNL     1      -1.845  12.950  22.397  0.00  0.00    +0.000 C 
ATOM     11  C   UNL     1      -1.903  11.583  23.116  0.00  0.00    +0.000 C 
ATOM     12  C   UNL     1      -1.013  13.901  23.275  0.00  0.00    +0.000 C 
ENDROOT
BRANCH   2  13
ATOM     13  N   UNL     1      -5.206  13.304  20.629  0.00  0.00    +0.000 N 
ATOM     14  C   UNL     1      -6.047  12.196  20.681  0.00  0.00    +0.000 A 
ATOM     15  C   UNL     1      -7.309  12.259  20.239  0.00  0.00    +0.000 A 
ATOM     16  C   UNL     1      -7.832  13.505  19.741  0.00  0.00    +0.000 A 
ATOM     17  C   UNL     1      -7.070  14.606  19.724  0.00  0.00    +0.000 A 
ATOM     18  C   UNL     1      -5.645  14.552  20.168  0.00  0.00    +0.000 A 
ATOM     19  O   UNL     1      -4.952  15.563  20.065  0.00  0.00    +0.000 OA
ENDBRANCH   2  13
BRANCH   5  20
ATOM     20  C   UNL     1      -3.277  10.691  16.450  0.00  0.00    +0.000 C 
ATOM     21  F   UNL     1      -3.247   9.330  16.386  0.00  0.00    +0.000 F 
ATOM     22  F   UNL     1      -4.579  11.045  16.265  0.00  0.00    +0.000 F 
ATOM     23  F   UNL     1      -2.607  11.126  15.347  0.00  0.00    +0.000 F 
ENDBRANCH   5  20
BRANCH   1  24
ATOM     24  C   UNL     1      -3.990  14.190  23.171  0.00  0.00    +0.000 C 
BRANCH  24  28
ATOM     25  C   UNL     1      -7.492  13.060  24.243  0.00  0.00    +0.000 C 
ATOM     26  C   UNL     1      -6.420  13.990  23.736  0.00  0.00    +0.000 C 
ATOM     27  O   UNL     1      -6.676  15.147  23.403  0.00  0.00    +0.000 OA
ATOM     28  N   UNL     1      -5.151  13.470  23.700  0.00  0.00    +0.000 N 
BRANCH  28  29
ATOM     29  O   UNL     1      -4.969  12.118  24.048  0.00  0.00    +0.000 OA
ATOM     30  H   UNL     1      -4.248  12.192  24.715  0.00  0.00    +0.000 HD
ENDBRANCH  28  29
ENDBRANCH  24  28
ENDBRANCH   1  24
TORSDOF 5
ENDMDL
MODEL 5
REMARK VINA RESULT:      -6.9     10.760     13.157
REMARK  Name = 
REMARK  8 active torsions:
REMARK  status: ('A' for Active; 'I' for Inactive)
REMARK    1  A    between atoms: C_1  and  C_2
REMARK    2  A    between atoms: N_4  and  O_5
REMARK    3  A    between atoms: N_4  and  C_6
REMARK    4  A    between atoms: C_6  and  C_7
REMARK    5  A    between atoms: C_8  and  N_9
REMARK    6  A    between atoms: C_18  and  C_19
REMARK    7  A    between atoms: C_27  and  C_28
REMARK    8  A    between atoms: C_27  and  C_29
REMARK                            x       y       z     vdW  Elec       q    Type
REMARK                         _______ _______ _______ _____ _____    ______ ____
ROOT
ATOM      1  C   UNL     1      -5.318  12.519  19.710  0.00  0.00    +0.000 C 
ATOM      2  C   UNL     1      -4.020  12.735  20.025  0.00  0.00    +0.000 C 
ATOM      3  C   UNL     1      -2.988  11.954  19.282  0.00  0.00    +0.000 A 
ATOM      4  C   UNL     1      -1.602  12.118  19.474  0.00  0.00    +0.000 A 
ATOM      5  C   UNL     1      -0.653  11.341  18.785  0.00  0.00    +0.000 A 
ATOM      6  C   UNL     1      -1.107  10.341  17.918  0.00  0.00    +0.000 A 
ATOM      7  C   UNL     1      -2.474  10.137  17.748  0.00  0.00    +0.000 A 
ATOM      8  C   UNL     1      -3.400  10.944  18.414  0.00  0.00    +0.000 A 
ATOM      9  O   UNL     1      -4.711  10.638  18.198  0.00  0.00    +0.000 OA
ATOM     10  C   UNL     1      -5.676  11.676  18.474  0.00  0.00    +0.000 C 
ATOM     11  C   UNL     1      -5.733  12.580  17.222  0.00  0.00    +0.000 C 
ATOM     12  C   UNL     1      -7.013  10.919  18.561  0.00  0.00    +0.000 C 
ENDROOT
BRANCH   2  13
ATOM     13  N   UNL     1      -3.608  13.616  21.025  0.00  0.00    +0.000 N 
ATOM     14  C   UNL     1      -3.402  14.930  20.614  0.00  0.00    +0.000 A 
ATOM     15  C   UNL     1      -2.826  15.829  21.421  0.00  0.00    +0.000 A 
ATOM     16  C   UNL     1      -2.451  15.454  22.759  0.00  0.00    +0.000 A 
ATOM     17  C   UNL     1      -2.682  14.215  23.210  0.00  0.00    +0.000 A 
ATOM     18  C   UNL     1      -3.280  13.179  22.315  0.00  0.00    +0.000 A 
ATOM     19  O   UNL     1      -3.405  12.030  22.737  0.00  0.00    +0.000 OA
ENDBRANCH   2  13
BRANCH   5  20
ATOM     20  C   UNL     1       0.824  11.569  18.983  0.00  0.00    +0.000 C 
ATOM     21  F   UNL     1       1.607  10.695  18.288  0.00  0.00    +0.000 F 
ATOM     22  F   UNL     1       1.220  12.812  18.596  0.00  0.00    +0.000 F 
ATOM     23  F   UNL     1       1.198  11.442  20.286  0.00  0.00    +0.000 F 
ENDBRANCH   5  20
BRANCH   1  24
ATOM     24  C   UNL     1      -6.469  13.201  20.420  0.00  0.00    +0.000 C 
BRANCH  24  28
ATOM     25  C   UNL     1      -7.043  12.757  24.183  0.00  0.00    +0.000 C 
ATOM     26  C   UNL     1      -6.709  13.468  22.896  0.00  0.00    +0.000 C 
ATOM     27  O   UNL     1      -6.439  14.668  22.876  0.00  0.00    +0.000 OA
ATOM     28  N   UNL     1      -6.699  12.684  21.771  0.00  0.00    +0.000 N 
BRANCH  28  29
ATOM     29  O   UNL     1      -7.076  11.332  21.890  0.00  0.00    +0.000 OA
ATOM     30  H   UNL     1      -6.740  11.123  22.792  0.00  0.00    +0.000 HD
ENDBRANCH  28  29
ENDBRANCH  24  28
ENDBRANCH   1  24
TORSDOF 5
ENDMDL
MODEL 6
REMARK VINA RESULT:      -6.8      0.916      1.205
REMARK  Name = 
REMARK  8 active torsions:
REMARK  status: ('A' for Active; 'I' for Inactive)
REMARK    1  A    between atoms: C_1  and  C_2
REMARK    2  A    between atoms: N_4  and  O_5
REMARK    3  A    between atoms: N_4  and  C_6
REMARK    4  A    between atoms: C_6  and  C_7
REMARK    5  A    between atoms: C_8  and  N_9
REMARK    6  A    between atoms: C_18  and  C_19
REMARK    7  A    between atoms: C_27  and  C_28
REMARK    8  A    between atoms: C_27  and  C_29
REMARK                            x       y       z     vdW  Elec       q    Type
REMARK                         _______ _______ _______ _____ _____    ______ ____
ROOT
ATOM      1  C   UNL     1       5.759   4.973  18.007  0.00  0.00    +0.000 C 
ATOM      2  C   UNL     1       5.045   4.375  17.024  0.00  0.00    +0.000 C 
ATOM      3  C   UNL     1       5.611   4.403  15.643  0.00  0.00    +0.000 A 
ATOM      4  C   UNL     1       4.999   3.777  14.540  0.00  0.00    +0.000 A 
ATOM      5  C   UNL     1       5.538   3.851  13.242  0.00  0.00    +0.000 A 
ATOM      6  C   UNL     1       6.693   4.613  13.038  0.00  0.00    +0.000 A 
ATOM      7  C   UNL     1       7.288   5.274  14.110  0.00  0.00    +0.000 A 
ATOM      8  C   UNL     1       6.758   5.157  15.398  0.00  0.00    +0.000 A 
ATOM      9  O   UNL     1       7.402   5.869  16.367  0.00  0.00    +0.000 OA
ATOM     10  C   UNL     1       7.197   5.443  17.731  0.00  0.00    +0.000 C 
ATOM     11  C   UNL     1       8.187   4.286  17.994  0.00  0.00    +0.000 C 
ATOM     12  C   UNL     1       7.663   6.650  18.564  0.00  0.00    +0.000 C 
ENDROOT
BRANCH   2  13
ATOM     13  N   UNL     1       3.804   3.775  17.232  0.00  0.00    +0.000 N 
ATOM     14  C   UNL     1       2.701   4.594  17.012  0.00  0.00    +0.000 A 
ATOM     15  C   UNL     1       1.466   4.207  17.356  0.00  0.00    +0.000 A 
ATOM     16  C   UNL     1       1.257   2.900  17.922  0.00  0.00    +0.000 A 
ATOM     17  C   UNL     1       2.286   2.062  18.099  0.00  0.00    +0.000 A 
ATOM     18  C   UNL     1       3.679   2.486  17.768  0.00  0.00    +0.000 A 
ATOM     19  O   UNL     1       4.609   1.719  18.017  0.00  0.00    +0.000 OA
ENDBRANCH   2  13
BRANCH   5  20
ATOM     20  C   UNL     1       4.880   3.136  12.089  0.00  0.00    +0.000 C 
ATOM     21  F   UNL     1       3.551   2.903  12.282  0.00  0.00    +0.000 F 
ATOM     22  F   UNL     1       4.971   3.829  10.921  0.00  0.00    +0.000 F 
ATOM     23  F   UNL     1       5.437   1.917  11.850  0.00  0.00    +0.000 F 
ENDBRANCH   5  20
BRANCH   1  24
ATOM     24  C   UNL     1       5.280   5.066  19.441  0.00  0.00    +0.000 C 
BRANCH  24  28
ATOM     25  C   UNL     1       1.731   6.144  20.408  0.00  0.00    +0.000 C 
ATOM     26  C   UNL     1       2.954   5.264  20.342  0.00  0.00    +0.000 C 
ATOM     27  O   UNL     1       3.001   4.183  20.928  0.00  0.00    +0.000 OA
ATOM     28  N   UNL     1       3.984   5.738  19.571  0.00  0.00    +0.000 N 
BRANCH  28  29
ATOM     29  O   UNL     1       3.856   7.012  18.986  0.00  0.00    +0.000 OA
ATOM     30  H   UNL     1       4.730   7.103  18.541  0.00  0.00    +0.000 HD
ENDBRANCH  28  29
ENDBRANCH  24  28
ENDBRANCH   1  24
TORSDOF 5
ENDMDL
MODEL 7
REMARK VINA RESULT:      -6.7     10.921     13.355
REMARK  Name = 
REMARK  8 active torsions:
REMARK  status: ('A' for Active; 'I' for Inactive)
REMARK    1  A    between atoms: C_1  and  C_2
REMARK    2  A    between atoms: N_4  and  O_5
REMARK    3  A    between atoms: N_4  and  C_6
REMARK    4  A    between atoms: C_6  and  C_7
REMARK    5  A    between atoms: C_8  and  N_9
REMARK    6  A    between atoms: C_18  and  C_19
REMARK    7  A    between atoms: C_27  and  C_28
REMARK    8  A    between atoms: C_27  and  C_29
REMARK                            x       y       z     vdW  Elec       q    Type
REMARK                         _______ _______ _______ _____ _____    ______ ____
ROOT
ATOM      1  C   UNL     1      -5.383  13.165  20.003  0.00  0.00    +0.000 C 
ATOM      2  C   UNL     1      -4.055  12.968  20.175  0.00  0.00    +0.000 C 
ATOM      3  C   UNL     1      -3.386  11.960  19.301  0.00  0.00    +0.000 A 
ATOM      4  C   UNL     1      -2.003  11.694  19.339  0.00  0.00    +0.000 A 
ATOM      5  C   UNL     1      -1.407  10.711  18.528  0.00  0.00    +0.000 A 
ATOM      6  C   UNL     1      -2.225   9.943  17.692  0.00  0.00    +0.000 A 
ATOM      7  C   UNL     1      -3.600  10.164  17.673  0.00  0.00    +0.000 A 
ATOM      8  C   UNL     1      -4.168  11.170  18.460  0.00  0.00    +0.000 A 
ATOM      9  O   UNL     1      -5.525  11.280  18.385  0.00  0.00    +0.000 OA
ATOM     10  C   UNL     1      -6.099  12.540  18.794  0.00  0.00    +0.000 C 
ATOM     11  C   UNL     1      -6.007  13.491  17.580  0.00  0.00    +0.000 C 
ATOM     12  C   UNL     1      -7.587  12.210  19.013  0.00  0.00    +0.000 C 
ENDROOT
BRANCH   2  13
ATOM     13  N   UNL     1      -3.299  13.628  21.144  0.00  0.00    +0.000 N 
ATOM     14  C   UNL     1      -2.632  14.768  20.705  0.00  0.00    +0.000 A 
ATOM     15  C   UNL     1      -1.726  15.384  21.474  0.00  0.00    +0.000 A 
ATOM     16  C   UNL     1      -1.461  14.893  22.801  0.00  0.00    +0.000 A 
ATOM     17  C   UNL     1      -2.121  13.830  23.279  0.00  0.00    +0.000 A 
ATOM     18  C   UNL     1      -3.102  13.097  22.425  0.00  0.00    +0.000 A 
ATOM     19  O   UNL     1      -3.631  12.078  22.869  0.00  0.00    +0.000 OA
ENDBRANCH   2  13
BRANCH   5  20
ATOM     20  C   UNL     1       0.082  10.478  18.563  0.00  0.00    +0.000 C 
ATOM     21  F   UNL     1       0.514   9.577  17.637  0.00  0.00    +0.000 F 
ATOM     22  F   UNL     1       0.797  11.614  18.339  0.00  0.00    +0.000 F 
ATOM     23  F   UNL     1       0.503   9.999  19.767  0.00  0.00    +0.000 F 
ENDBRANCH   5  20
BRANCH   1  24
ATOM     24  C   UNL     1      -6.197  14.116  20.855  0.00  0.00    +0.000 C 
BRANCH  24  28
ATOM     25  C   UNL     1      -7.627  13.446  24.348  0.00  0.00    +0.000 C 
ATOM     26  C   UNL     1      -7.200  14.248  23.144  0.00  0.00    +0.000 C 
ATOM     27  O   UNL     1      -7.352  15.468  23.097  0.00  0.00    +0.000 OA
ATOM     28  N   UNL     1      -6.612  13.532  22.132  0.00  0.00    +0.000 N 
BRANCH  28  29
ATOM     29  O   UNL     1      -6.534  12.131  22.258  0.00  0.00    +0.000 OA
ATOM     30  H   UNL     1      -7.485  11.900  22.370  0.00  0.00    +0.000 HD
ENDBRANCH  28  29
ENDBRANCH  24  28
ENDBRANCH   1  24
TORSDOF 5
ENDMDL
MODEL 8
REMARK VINA RESULT:      -6.6     10.964     13.006
REMARK  Name = 
REMARK  8 active torsions:
REMARK  status: ('A' for Active; 'I' for Inactive)
REMARK    1  A    between atoms: C_1  and  C_2
REMARK    2  A    between atoms: N_4  and  O_5
REMARK    3  A    between atoms: N_4  and  C_6
REMARK    4  A    between atoms: C_6  and  C_7
REMARK    5  A    between atoms: C_8  and  N_9
REMARK    6  A    between atoms: C_18  and  C_19
REMARK    7  A    between atoms: C_27  and  C_28
REMARK    8  A    between atoms: C_27  and  C_29
REMARK                            x       y       z     vdW  Elec       q    Type
REMARK                         _______ _______ _______ _____ _____    ______ ____
ROOT
ATOM      1  C   UNL     1      -1.124  12.713  20.916  0.00  0.00    +0.000 C 
ATOM      2  C   UNL     1      -2.473  12.807  20.884  0.00  0.00    +0.000 C 
ATOM      3  C   UNL     1      -3.176  12.265  19.685  0.00  0.00    +0.000 A 
ATOM      4  C   UNL     1      -4.578  12.251  19.545  0.00  0.00    +0.000 A 
ATOM      5  C   UNL     1      -5.211  11.766  18.386  0.00  0.00    +0.000 A 
ATOM      6  C   UNL     1      -4.416  11.329  17.320  0.00  0.00    +0.000 A 
ATOM      7  C   UNL     1      -3.028  11.375  17.424  0.00  0.00    +0.000 A 
ATOM      8  C   UNL     1      -2.419  11.826  18.599  0.00  0.00    +0.000 A 
ATOM      9  O   UNL     1      -1.056  11.856  18.581  0.00  0.00    +0.000 OA
ATOM     10  C   UNL     1      -0.389  11.869  19.862  0.00  0.00    +0.000 C 
ATOM     11  C   UNL     1      -0.300  10.400  20.335  0.00  0.00    +0.000 C 
ATOM     12  C   UNL     1       1.038  12.335  19.525  0.00  0.00    +0.000 C 
ENDROOT
BRANCH   2  13
ATOM     13  N   UNL     1      -3.226  13.412  21.890  0.00  0.00    +0.000 N 
ATOM     14  C   UNL     1      -3.625  14.720  21.631  0.00  0.00    +0.000 A 
ATOM     15  C   UNL     1      -4.183  15.479  22.583  0.00  0.00    +0.000 A 
ATOM     16  C   UNL     1      -4.425  14.926  23.890  0.00  0.00    +0.000 A 
ATOM     17  C   UNL     1      -4.104  13.654  24.161  0.00  0.00    +0.000 A 
ATOM     18  C   UNL     1      -3.437  12.801  23.133  0.00  0.00    +0.000 A 
ATOM     19  O   UNL     1      -3.086  11.663  23.443  0.00  0.00    +0.000 OA
ENDBRANCH   2  13
BRANCH   5  20
ATOM     20  C   UNL     1      -6.714  11.729  18.284  0.00  0.00    +0.000 C 
ATOM     21  F   UNL     1      -7.345  12.350  19.320  0.00  0.00    +0.000 F 
ATOM     22  F   UNL     1      -7.179  12.326  17.152  0.00  0.00    +0.000 F 
ATOM     23  F   UNL     1      -7.201  10.457  18.267  0.00  0.00    +0.000 F 
ENDBRANCH   5  20
BRANCH   1  24
ATOM     24  C   UNL     1      -0.280  13.269  22.045  0.00  0.00    +0.000 C 
BRANCH  24  28
ATOM     25  C   UNL     1      -0.371  16.950  23.111  0.00  0.00    +0.000 C 
ATOM     26  C   UNL     1      -0.482  15.452  23.251  0.00  0.00    +0.000 C 
ATOM     27  O   UNL     1      -0.757  14.925  24.329  0.00  0.00    +0.000 OA
ATOM     28  N   UNL     1      -0.286  14.733  22.100  0.00  0.00    +0.000 N 
BRANCH  28  29
ATOM     29  O   UNL     1       0.079  15.425  20.928  0.00  0.00    +0.000 OA
ATOM     30  H   UNL     1       0.339  14.676  20.343  0.00  0.00    +0.000 HD
ENDBRANCH  28  29
ENDBRANCH  24  28
ENDBRANCH   1  24
TORSDOF 5
ENDMDL
MODEL 9
REMARK VINA RESULT:      -6.6     10.655     12.794
REMARK  Name = 
REMARK  8 active torsions:
REMARK  status: ('A' for Active; 'I' for Inactive)
REMARK    1  A    between atoms: C_1  and  C_2
REMARK    2  A    between atoms: N_4  and  O_5
REMARK    3  A    between atoms: N_4  and  C_6
REMARK    4  A    between atoms: C_6  and  C_7
REMARK    5  A    between atoms: C_8  and  N_9
REMARK    6  A    between atoms: C_18  and  C_19
REMARK    7  A    between atoms: C_27  and  C_28
REMARK    8  A    between atoms: C_27  and  C_29
REMARK                            x       y       z     vdW  Elec       q    Type
REMARK                         _______ _______ _______ _____ _____    ______ ____
ROOT
ATOM      1  C   UNL     1      -0.891  12.666  20.448  0.00  0.00    +0.000 C 
ATOM      2  C   UNL     1      -2.239  12.711  20.560  0.00  0.00    +0.000 C 
ATOM      3  C   UNL     1      -3.046  12.158  19.433  0.00  0.00    +0.000 A 
ATOM      4  C   UNL     1      -4.453  12.096  19.442  0.00  0.00    +0.000 A 
ATOM      5  C   UNL     1      -5.188  11.603  18.349  0.00  0.00    +0.000 A 
ATOM      6  C   UNL     1      -4.497  11.207  17.199  0.00  0.00    +0.000 A 
ATOM      7  C   UNL     1      -3.108  11.302  17.157  0.00  0.00    +0.000 A 
ATOM      8  C   UNL     1      -2.394  11.760  18.267  0.00  0.00    +0.000 A 
ATOM      9  O   UNL     1      -1.042  11.840  18.106  0.00  0.00    +0.000 OA
ATOM     10  C   UNL     1      -0.244  11.861  19.309  0.00  0.00    +0.000 C 
ATOM     11  C   UNL     1      -0.054  10.391  19.748  0.00  0.00    +0.000 C 
ATOM     12  C   UNL     1       1.123  12.383  18.831  0.00  0.00    +0.000 C 
ENDROOT
BRANCH   2  13
ATOM     13  N   UNL     1      -2.901  13.277  21.649  0.00  0.00    +0.000 N 
ATOM     14  C   UNL     1      -3.202  12.398  22.686  0.00  0.00    +0.000 A 
ATOM     15  C   UNL     1      -3.999  12.762  23.698  0.00  0.00    +0.000 A 
ATOM     16  C   UNL     1      -4.522  14.102  23.751  0.00  0.00    +0.000 A 
ATOM     17  C   UNL     1      -4.212  14.993  22.801  0.00  0.00    +0.000 A 
ATOM     18  C   UNL     1      -3.364  14.599  21.636  0.00  0.00    +0.000 A 
ATOM     19  O   UNL     1      -3.165  15.420  20.742  0.00  0.00    +0.000 OA
ENDBRANCH   2  13
BRANCH   5  20
ATOM     20  C   UNL     1      -6.692  11.512  18.406  0.00  0.00    +0.000 C 
ATOM     21  F   UNL     1      -7.160  10.232  18.399  0.00  0.00    +0.000 F 
ATOM     22  F   UNL     1      -7.211  12.093  19.522  0.00  0.00    +0.000 F 
ATOM     23  F   UNL     1      -7.289  12.127  17.347  0.00  0.00    +0.000 F 
ENDBRANCH   5  20
BRANCH   1  24
ATOM     24  C   UNL     1       0.048  13.238  21.490  0.00  0.00    +0.000 C 
BRANCH  24  28
ATOM     25  C   UNL     1       2.113  16.429  20.994  0.00  0.00    +0.000 C 
ATOM     26  C   UNL     1       1.770  15.053  21.508  0.00  0.00    +0.000 C 
ATOM     27  O   UNL     1       2.548  14.421  22.222  0.00  0.00    +0.000 OA
ATOM     28  N   UNL     1       0.534  14.578  21.151  0.00  0.00    +0.000 N 
BRANCH  28  29
ATOM     29  O   UNL     1      -0.261  15.354  20.286  0.00  0.00    +0.000 OA
ATOM     30  H   UNL     1      -0.494  16.109  20.874  0.00  0.00    +0.000 HD
ENDBRANCH  28  29
ENDBRANCH  24  28
ENDBRANCH   1  24
TORSDOF 5
ENDMDL
