MODEL 1
REMARK VINA RESULT:      -7.4      0.000      0.000
REMARK  Name = 
REMARK  2 active torsions:
REMARK  status: ('A' for Active; 'I' for Inactive)
REMARK    1  A    between atoms: C_2  and  C_3
REMARK    2  A    between atoms: C_9  and  N_10
REMARK                            x       y       z     vdW  Elec       q    Type
REMARK                         _______ _______ _______ _____ _____    ______ ____
ROOT
ATOM      1  O   UNL     1       1.096  10.821  21.573  0.00  0.00    +0.000 OA
ATOM      2  C   UNL     1       0.390  11.655  21.010  0.00  0.00    +0.000 C 
ATOM      3  N   UNL     1       0.100  11.581  19.615  0.00  0.00    +0.000 N 
ATOM      4  C   UNL     1       0.728  10.518  18.830  0.00  0.00    +0.000 C 
ATOM      5  C   UNL     1      -0.317   9.679  18.094  0.00  0.00    +0.000 C 
ATOM      6  C   UNL     1      -1.325  10.546  17.320  0.00  0.00    +0.000 C 
ATOM      7  C   UNL     1      -2.819  10.204  17.560  0.00  0.00    +0.000 C 
ATOM      8  N   UNL     1      -2.847  11.258  18.530  0.00  0.00    +0.000 N 
ATOM      9  C   UNL     1      -3.945  11.883  19.034  0.00  0.00    +0.000 A 
ATOM     10  N   UNL     1      -3.969  12.567  20.149  0.00  0.00    +0.000 NA
ATOM     11  C   UNL     1      -5.240  12.985  20.338  0.00  0.00    +0.000 A 
ATOM     12  C   UNL     1      -5.804  13.753  21.368  0.00  0.00    +0.000 A 
ATOM     13  C   UNL     1      -7.135  14.124  21.259  0.00  0.00    +0.000 A 
ATOM     14 CL   UNL     1      -7.819  15.135  22.474  0.00  0.00    +0.000 Cl
ATOM     15  C   UNL     1      -7.898  13.698  20.171  0.00  0.00    +0.000 A 
ATOM     16  C   UNL     1      -7.356  12.876  19.156  0.00  0.00    +0.000 A 
ATOM     17  C   UNL     1      -6.012  12.546  19.275  0.00  0.00    +0.000 A 
ATOM     18  O   UNL     1      -5.191  11.796  18.444  0.00  0.00    +0.000 OA
ATOM     19  C   UNL     1      -1.696  11.919  17.926  0.00  0.00    +0.000 C 
ATOM     20  C   UNL     1      -0.602  12.580  18.783  0.00  0.00    +0.000 C 
ENDROOT
BRANCH   2  21
ATOM     21  C   UNL     1      -0.269  12.692  21.876  0.00  0.00    +0.000 A 
ATOM     22  C   UNL     1      -1.335  12.241  22.623  0.00  0.00    +0.000 A 
ATOM     23  C   UNL     1      -2.141  13.095  23.354  0.00  0.00    +0.000 A 
ATOM     24  F   UNL     1      -3.403  12.763  23.622  0.00  0.00    +0.000 F 
ATOM     25  C   UNL     1      -1.720  14.349  23.694  0.00  0.00    +0.000 A 
ATOM     26  C   UNL     1      -0.547  14.795  23.119  0.00  0.00    +0.000 A 
ATOM     27  C   UNL     1       0.143  14.001  22.157  0.00  0.00    +0.000 A 
BRANCH  27  28
ATOM     28  N   UNL     1       1.229  14.615  21.516  0.00  0.00    +0.000 N 
ATOM     29  N   UNL     1       1.108  15.415  20.431  0.00  0.00    +0.000 NA
ATOM     30  C   UNL     1       2.379  15.734  20.185  0.00  0.00    +0.000 A 
ATOM     31  C   UNL     1       3.206  15.213  21.181  0.00  0.00    +0.000 A 
ATOM     32  N   UNL     1       2.468  14.582  22.088  0.00  0.00    +0.000 NA
ENDBRANCH  27  28
ENDBRANCH   2  21
TORSDOF 2
ENDMDL
MODEL 2
REMARK VINA RESULT:      -6.9      2.681      4.875
REMARK  Name = 
REMARK  2 active torsions:
REMARK  status: ('A' for Active; 'I' for Inactive)
REMARK    1  A    between atoms: C_2  and  C_3
REMARK    2  A    between atoms: C_9  and  N_10
REMARK                            x       y       z     vdW  Elec       q    Type
REMARK                         _______ _______ _______ _____ _____    ______ ____
ROOT
ATOM      1  O   UNL     1      -0.780  14.588  24.262  0.00  0.00    +0.000 OA
ATOM      2  C   UNL     1      -1.494  13.695  23.810  0.00  0.00    +0.000 C 
ATOM      3  N   UNL     1      -2.907  13.688  24.000  0.00  0.00    +0.000 N 
ATOM      4  C   UNL     1      -3.502  14.741  24.823  0.00  0.00    +0.000 C 
ATOM      5  C   UNL     1      -4.594  15.492  24.059  0.00  0.00    +0.000 C 
ATOM      6  C   UNL     1      -5.604  14.541  23.393  0.00  0.00    +0.000 C 
ATOM      7  C   UNL     1      -5.894  14.821  21.896  0.00  0.00    +0.000 C 
ATOM      8  N   UNL     1      -4.926  13.814  21.577  0.00  0.00    +0.000 N 
ATOM      9  C   UNL     1      -4.777  13.162  20.393  0.00  0.00    +0.000 A 
ATOM     10  N   UNL     1      -3.694  12.532  20.017  0.00  0.00    +0.000 NA
ATOM     11  C   UNL     1      -3.912  12.062  18.770  0.00  0.00    +0.000 A 
ATOM     12  C   UNL     1      -3.082  11.318  17.917  0.00  0.00    +0.000 A 
ATOM     13  C   UNL     1      -3.604  10.878  16.711  0.00  0.00    +0.000 A 
ATOM     14 CL   UNL     1      -2.624   9.894  15.691  0.00  0.00    +0.000 Cl
ATOM     15  C   UNL     1      -4.907  11.214  16.343  0.00  0.00    +0.000 A 
ATOM     16  C   UNL     1      -5.733  12.012  17.168  0.00  0.00    +0.000 A 
ATOM     17  C   UNL     1      -5.195  12.412  18.384  0.00  0.00    +0.000 A 
ATOM     18  O   UNL     1      -5.752  13.160  19.413  0.00  0.00    +0.000 OA
ATOM     19  C   UNL     1      -5.071  13.182  22.882  0.00  0.00    +0.000 C 
ATOM     20  C   UNL     1      -3.862  12.617  23.646  0.00  0.00    +0.000 C 
ENDROOT
BRANCH   2  21
ATOM     21  C   UNL     1      -0.833  12.669  22.930  0.00  0.00    +0.000 A 
ATOM     22  C   UNL     1      -1.289  11.379  23.089  0.00  0.00    +0.000 A 
ATOM     23  C   UNL     1      -0.686  10.300  22.469  0.00  0.00    +0.000 A 
ATOM     24  F   UNL     1      -0.774   9.083  23.002  0.00  0.00    +0.000 F 
ATOM     25  C   UNL     1       0.128  10.469  21.384  0.00  0.00    +0.000 A 
ATOM     26  C   UNL     1       0.474  11.764  21.055  0.00  0.00    +0.000 A 
ATOM     27  C   UNL     1       0.057  12.860  21.865  0.00  0.00    +0.000 A 
BRANCH  27  28
ATOM     28  N   UNL     1       0.599  14.111  21.536  0.00  0.00    +0.000 N 
ATOM     29  N   UNL     1       1.793  14.557  21.994  0.00  0.00    +0.000 NA
ATOM     30  C   UNL     1       1.863  15.766  21.436  0.00  0.00    +0.000 A 
ATOM     31  C   UNL     1       0.776  15.965  20.583  0.00  0.00    +0.000 A 
ATOM     32  N   UNL     1       0.018  14.874  20.565  0.00  0.00    +0.000 NA
ENDBRANCH  27  28
ENDBRANCH   2  21
TORSDOF 2
ENDMDL
MODEL 3
REMARK VINA RESULT:      -6.8      0.958      1.055
REMARK  Name = 
REMARK  2 active torsions:
REMARK  status: ('A' for Active; 'I' for Inactive)
REMARK    1  A    between atoms: C_2  and  C_3
REMARK    2  A    between atoms: C_9  and  N_10
REMARK                            x       y       z     vdW  Elec       q    Type
REMARK                         _______ _______ _______ _____ _____    ______ ____
ROOT
ATOM      1  O   UNL     1       0.579   9.960  20.544  0.00  0.00    +0.000 OA
ATOM      2  C   UNL     1      -0.056  10.959  20.214  0.00  0.00    +0.000 C 
ATOM      3  N   UNL     1      -0.573  11.125  18.896  0.00  0.00    +0.000 N 
ATOM      4  C   UNL     1      -0.266  10.102  17.895  0.00  0.00    +0.000 C 
ATOM      5  C   UNL     1      -1.542   9.539  17.268  0.00  0.00    +0.000 C 
ATOM      6  C   UNL     1      -2.498  10.644  16.791  0.00  0.00    +0.000 C 
ATOM      7  C   UNL     1      -3.971  10.496  17.255  0.00  0.00    +0.000 C 
ATOM      8  N   UNL     1      -3.666  11.396  18.326  0.00  0.00    +0.000 N 
ATOM      9  C   UNL     1      -4.548  12.099  19.087  0.00  0.00    +0.000 A 
ATOM     10  N   UNL     1      -4.279  12.616  20.258  0.00  0.00    +0.000 NA
ATOM     11  C   UNL     1      -5.415  13.186  20.717  0.00  0.00    +0.000 A 
ATOM     12  C   UNL     1      -5.670  13.876  21.912  0.00  0.00    +0.000 A 
ATOM     13  C   UNL     1      -6.919  14.451  22.086  0.00  0.00    +0.000 A 
ATOM     14 CL   UNL     1      -7.220  15.372  23.511  0.00  0.00    +0.000 Cl
ATOM     15  C   UNL     1      -7.906  14.298  21.111  0.00  0.00    +0.000 A 
ATOM     16  C   UNL     1      -7.679  13.556  19.929  0.00  0.00    +0.000 A 
ATOM     17  C   UNL     1      -6.409  13.018  19.768  0.00  0.00    +0.000 A 
ATOM     18  O   UNL     1      -5.869  12.280  18.723  0.00  0.00    +0.000 OA
ATOM     19  C   UNL     1      -2.530  11.958  17.605  0.00  0.00    +0.000 C 
ATOM     20  C   UNL     1      -1.219  12.324  18.321  0.00  0.00    +0.000 C 
ENDROOT
BRANCH   2  21
ATOM     21  C   UNL     1      -0.385  11.950  21.297  0.00  0.00    +0.000 A 
ATOM     22  C   UNL     1      -1.331  11.534  22.206  0.00  0.00    +0.000 A 
ATOM     23  C   UNL     1      -1.854  12.377  23.170  0.00  0.00    +0.000 A 
ATOM     24  F   UNL     1      -3.070  12.158  23.667  0.00  0.00    +0.000 F 
ATOM     25  C   UNL     1      -1.209  13.526  23.531  0.00  0.00    +0.000 A 
ATOM     26  C   UNL     1      -0.124  13.905  22.766  0.00  0.00    +0.000 A 
ATOM     27  C   UNL     1       0.247  13.161  21.608  0.00  0.00    +0.000 A 
BRANCH  27  28
ATOM     28  N   UNL     1       1.257  13.723  20.813  0.00  0.00    +0.000 N 
ATOM     29  N   UNL     1       1.064  14.779  19.987  0.00  0.00    +0.000 NA
ATOM     30  C   UNL     1       2.275  14.929  19.451  0.00  0.00    +0.000 A 
ATOM     31  C   UNL     1       3.176  14.044  20.044  0.00  0.00    +0.000 A 
ATOM     32  N   UNL     1       2.556  13.340  20.984  0.00  0.00    +0.000 NA
ENDBRANCH  27  28
ENDBRANCH   2  21
TORSDOF 2
ENDMDL
MODEL 4
REMARK VINA RESULT:      -6.4      2.789      4.996
REMARK  Name = 
REMARK  2 active torsions:
REMARK  status: ('A' for Active; 'I' for Inactive)
REMARK    1  A    between atoms: C_2  and  C_3
REMARK    2  A    between atoms: C_9  and  N_10
REMARK                            x       y       z     vdW  Elec       q    Type
REMARK                         _______ _______ _______ _____ _____    ______ ____
ROOT
ATOM      1  O   UNL     1      -0.707  14.909  24.245  0.00  0.00    +0.000 OA
ATOM      2  C   UNL     1      -1.542  14.075  23.901  0.00  0.00    +0.000 C 
ATOM      3  N   UNL     1      -2.912  14.176  24.280  0.00  0.00    +0.000 N 
ATOM      4  C   UNL     1      -3.309  15.270  25.167  0.00  0.00    +0.000 C 
ATOM      5  C   UNL     1      -4.433  16.104  24.551  0.00  0.00    +0.000 C 
ATOM      6  C   UNL     1      -5.593  15.236  24.036  0.00  0.00    +0.000 C 
ATOM      7  C   UNL     1      -6.061  15.541  22.589  0.00  0.00    +0.000 C 
ATOM      8  N   UNL     1      -5.225  14.463  22.151  0.00  0.00    +0.000 N 
ATOM      9  C   UNL     1      -5.288  13.804  20.962  0.00  0.00    +0.000 A 
ATOM     10  N   UNL     1      -4.317  13.093  20.450  0.00  0.00    +0.000 NA
ATOM     11  C   UNL     1      -4.738  12.644  19.247  0.00  0.00    +0.000 A 
ATOM     12  C   UNL     1      -4.090  11.840  18.296  0.00  0.00    +0.000 A 
ATOM     13  C   UNL     1      -4.802  11.444  17.175  0.00  0.00    +0.000 A 
ATOM     14 CL   UNL     1      -4.048  10.390  16.040  0.00  0.00    +0.000 Cl
ATOM     15  C   UNL     1      -6.114  11.881  16.984  0.00  0.00    +0.000 A 
ATOM     16  C   UNL     1      -6.757  12.738  17.906  0.00  0.00    +0.000 A 
ATOM     17  C   UNL     1      -6.031  13.093  19.035  0.00  0.00    +0.000 A 
ATOM     18  O   UNL     1      -6.384  13.879  20.123  0.00  0.00    +0.000 OA
ATOM     19  C   UNL     1      -5.241  13.841  23.469  0.00  0.00    +0.000 C 
ATOM     20  C   UNL     1      -3.986  13.183  24.067  0.00  0.00    +0.000 C 
ENDROOT
BRANCH   2  21
ATOM     21  C   UNL     1      -1.086  13.004  22.948  0.00  0.00    +0.000 A 
ATOM     22  C   UNL     1      -1.287  11.711  23.380  0.00  0.00    +0.000 A 
ATOM     23  C   UNL     1      -0.792  10.616  22.695  0.00  0.00    +0.000 A 
ATOM     24  F   UNL     1      -0.533   9.481  23.340  0.00  0.00    +0.000 F 
ATOM     25  C   UNL     1      -0.421  10.710  21.383  0.00  0.00    +0.000 A 
ATOM     26  C   UNL     1      -0.380  11.974  20.830  0.00  0.00    +0.000 A 
ATOM     27  C   UNL     1      -0.641  13.127  21.626  0.00  0.00    +0.000 A 
BRANCH  27  28
ATOM     28  N   UNL     1      -0.412  14.366  21.009  0.00  0.00    +0.000 N 
ATOM     29  N   UNL     1       0.816  14.919  20.864  0.00  0.00    +0.000 NA
ATOM     30  C   UNL     1       0.526  16.067  20.252  0.00  0.00    +0.000 A 
ATOM     31  C   UNL     1      -0.836  16.122  19.952  0.00  0.00    +0.000 A 
ATOM     32  N   UNL     1      -1.423  14.996  20.343  0.00  0.00    +0.000 NA
ENDBRANCH  27  28
ENDBRANCH   2  21
TORSDOF 2
ENDMDL
MODEL 5
REMARK VINA RESULT:      -6.4      1.067      1.252
REMARK  Name = 
REMARK  2 active torsions:
REMARK  status: ('A' for Active; 'I' for Inactive)
REMARK    1  A    between atoms: C_2  and  C_3
REMARK    2  A    between atoms: C_9  and  N_10
REMARK                            x       y       z     vdW  Elec       q    Type
REMARK                         _______ _______ _______ _____ _____    ______ ____
ROOT
ATOM      1  O   UNL     1       1.591  12.272  21.195  0.00  0.00    +0.000 OA
ATOM      2  C   UNL     1       0.703  12.807  20.535  0.00  0.00    +0.000 C 
ATOM      3  N   UNL     1       0.291  12.296  19.269  0.00  0.00    +0.000 N 
ATOM      4  C   UNL     1       1.005  11.144  18.719  0.00  0.00    +0.000 C 
ATOM      5  C   UNL     1       0.045   9.999  18.394  0.00  0.00    +0.000 C 
ATOM      6  C   UNL     1      -1.166  10.465  17.567  0.00  0.00    +0.000 C 
ATOM      7  C   UNL     1      -2.550  10.014  18.103  0.00  0.00    +0.000 C 
ATOM      8  N   UNL     1      -2.655  11.291  18.744  0.00  0.00    +0.000 N 
ATOM      9  C   UNL     1      -3.785  11.885  19.213  0.00  0.00    +0.000 A 
ATOM     10  N   UNL     1      -3.811  12.853  20.093  0.00  0.00    +0.000 NA
ATOM     11  C   UNL     1      -5.108  13.137  20.342  0.00  0.00    +0.000 A 
ATOM     12  C   UNL     1      -5.686  14.089  21.196  0.00  0.00    +0.000 A 
ATOM     13  C   UNL     1      -7.064  14.236  21.182  0.00  0.00    +0.000 A 
ATOM     14 CL   UNL     1      -7.781  15.456  22.164  0.00  0.00    +0.000 Cl
ATOM     15  C   UNL     1      -7.850  13.417  20.371  0.00  0.00    +0.000 A 
ATOM     16  C   UNL     1      -7.284  12.415  19.549  0.00  0.00    +0.000 A 
ATOM     17  C   UNL     1      -5.900  12.312  19.559  0.00  0.00    +0.000 A 
ATOM     18  O   UNL     1      -5.053  11.469  18.853  0.00  0.00    +0.000 OA
ATOM     19  C   UNL     1      -1.696  11.894  17.827  0.00  0.00    +0.000 C 
ATOM     20  C   UNL     1      -0.647  12.912  18.307  0.00  0.00    +0.000 C 
ENDROOT
BRANCH   2  21
ATOM     21  C   UNL     1      -0.029  13.955  21.174  0.00  0.00    +0.000 A 
ATOM     22  C   UNL     1      -0.910  13.605  22.173  0.00  0.00    +0.000 A 
ATOM     23  C   UNL     1      -1.768  14.519  22.757  0.00  0.00    +0.000 A 
ATOM     24  F   UNL     1      -2.915  14.113  23.299  0.00  0.00    +0.000 F 
ATOM     25  C   UNL     1      -1.540  15.863  22.667  0.00  0.00    +0.000 A 
ATOM     26  C   UNL     1      -0.533  16.274  21.816  0.00  0.00    +0.000 A 
ATOM     27  C   UNL     1       0.175  15.332  21.015  0.00  0.00    +0.000 A 
BRANCH  27  28
ATOM     28  N   UNL     1       1.059  15.869  20.068  0.00  0.00    +0.000 N 
ATOM     29  N   UNL     1       0.666  16.385  18.879  0.00  0.00    +0.000 NA
ATOM     30  C   UNL     1       1.831  16.743  18.340  0.00  0.00    +0.000 A 
ATOM     31  C   UNL     1       2.867  16.537  19.253  0.00  0.00    +0.000 A 
ATOM     32  N   UNL     1       2.369  16.073  20.394  0.00  0.00    +0.000 NA
ENDBRANCH  27  28
ENDBRANCH   2  21
TORSDOF 2
ENDMDL
MODEL 6
REMARK VINA RESULT:      -6.4      1.556      2.054
REMARK  Name = 
REMARK  2 active torsions:
REMARK  status: ('A' for Active; 'I' for Inactive)
REMARK    1  A    between atoms: C_2  and  C_3
REMARK    2  A    between atoms: C_9  and  N_10
REMARK                            x       y       z     vdW  Elec       q    Type
REMARK                         _______ _______ _______ _____ _____    ______ ____
ROOT
ATOM      1  O   UNL     1      -0.193   9.669  20.092  0.00  0.00    +0.000 OA
ATOM      2  C   UNL     1      -0.745  10.733  19.819  0.00  0.00    +0.000 C 
ATOM      3  N   UNL     1      -1.518  10.901  18.633  0.00  0.00    +0.000 N 
ATOM      4  C   UNL     1      -1.587   9.788  17.685  0.00  0.00    +0.000 C 
ATOM      5  C   UNL     1      -3.036   9.390  17.400  0.00  0.00    +0.000 C 
ATOM      6  C   UNL     1      -3.917  10.600  17.043  0.00  0.00    +0.000 C 
ATOM      7  C   UNL     1      -5.252  10.704  17.825  0.00  0.00    +0.000 C 
ATOM      8  N   UNL     1      -4.594  11.607  18.721  0.00  0.00    +0.000 N 
ATOM      9  C   UNL     1      -5.177  12.477  19.588  0.00  0.00    +0.000 A 
ATOM     10  N   UNL     1      -4.583  13.013  20.623  0.00  0.00    +0.000 NA
ATOM     11  C   UNL     1      -5.497  13.774  21.263  0.00  0.00    +0.000 A 
ATOM     12  C   UNL     1      -5.379  14.562  22.419  0.00  0.00    +0.000 A 
ATOM     13  C   UNL     1      -6.466  15.330  22.805  0.00  0.00    +0.000 A 
ATOM     14 CL   UNL     1      -6.310  16.364  24.174  0.00  0.00    +0.000 Cl
ATOM     15  C   UNL     1      -7.659  15.274  22.084  0.00  0.00    +0.000 A 
ATOM     16  C   UNL     1      -7.809  14.440  20.952  0.00  0.00    +0.000 A 
ATOM     17  C   UNL     1      -6.693  13.707  20.569  0.00  0.00    +0.000 A 
ATOM     18  O   UNL     1      -6.509  12.837  19.503  0.00  0.00    +0.000 OA
ATOM     19  C   UNL     1      -3.585  11.947  17.725  0.00  0.00    +0.000 C 
ATOM     20  C   UNL     1      -2.108  12.149  18.106  0.00  0.00    +0.000 C 
ENDROOT
BRANCH   2  21
ATOM     21  C   UNL     1      -0.682  11.823  20.854  0.00  0.00    +0.000 A 
ATOM     22  C   UNL     1      -1.441  11.604  21.982  0.00  0.00    +0.000 A 
ATOM     23  C   UNL     1      -1.612  12.570  22.958  0.00  0.00    +0.000 A 
ATOM     24  F   UNL     1      -2.699  12.562  23.726  0.00  0.00    +0.000 F 
ATOM     25  C   UNL     1      -0.756  13.629  23.064  0.00  0.00    +0.000 A 
ATOM     26  C   UNL     1       0.165  13.797  22.049  0.00  0.00    +0.000 A 
ATOM     27  C   UNL     1       0.159  12.942  20.909  0.00  0.00    +0.000 A 
BRANCH  27  28
ATOM     28  N   UNL     1       1.024  13.301  19.865  0.00  0.00    +0.000 N 
ATOM     29  N   UNL     1       1.139  14.562  19.384  0.00  0.00    +0.000 NA
ATOM     30  C   UNL     1       2.044  14.402  18.418  0.00  0.00    +0.000 A 
ATOM     31  C   UNL     1       2.521  13.091  18.419  0.00  0.00    +0.000 A 
ATOM     32  N   UNL     1       1.947  12.408  19.404  0.00  0.00    +0.000 NA
ENDBRANCH  27  28
ENDBRANCH   2  21
TORSDOF 2
ENDMDL
MODEL 7
REMARK VINA RESULT:      -6.4      3.659      6.726
REMARK  Name = 
REMARK  2 active torsions:
REMARK  status: ('A' for Active; 'I' for Inactive)
REMARK    1  A    between atoms: C_2  and  C_3
REMARK    2  A    between atoms: C_9  and  N_10
REMARK                            x       y       z     vdW  Elec       q    Type
REMARK                         _______ _______ _______ _____ _____    ______ ____
ROOT
ATOM      1  O   UNL     1      -6.037  16.880  20.964  0.00  0.00    +0.000 OA
ATOM      2  C   UNL     1      -5.904  15.658  20.992  0.00  0.00    +0.000 C 
ATOM      3  N   UNL     1      -6.782  14.786  20.284  0.00  0.00    +0.000 N 
ATOM      4  C   UNL     1      -7.916  15.372  19.568  0.00  0.00    +0.000 C 
ATOM      5  C   UNL     1      -7.910  14.967  18.093  0.00  0.00    +0.000 C 
ATOM      6  C   UNL     1      -7.738  13.451  17.902  0.00  0.00    +0.000 C 
ATOM      7  C   UNL     1      -6.642  13.028  16.889  0.00  0.00    +0.000 C 
ATOM      8  N   UNL     1      -5.756  12.862  18.002  0.00  0.00    +0.000 N 
ATOM      9  C   UNL     1      -4.590  12.161  18.028  0.00  0.00    +0.000 A 
ATOM     10  N   UNL     1      -3.643  12.318  18.916  0.00  0.00    +0.000 NA
ATOM     11  C   UNL     1      -2.632  11.487  18.580  0.00  0.00    +0.000 A 
ATOM     12  C   UNL     1      -1.393  11.262  19.197  0.00  0.00    +0.000 A 
ATOM     13  C   UNL     1      -0.575  10.266  18.687  0.00  0.00    +0.000 A 
ATOM     14 CL   UNL     1       0.913   9.922  19.485  0.00  0.00    +0.000 Cl
ATOM     15  C   UNL     1      -0.963   9.547  17.557  0.00  0.00    +0.000 A 
ATOM     16  C   UNL     1      -2.184   9.804  16.891  0.00  0.00    +0.000 A 
ATOM     17  C   UNL     1      -2.997  10.785  17.443  0.00  0.00    +0.000 A 
ATOM     18  O   UNL     1      -4.249  11.242  17.053  0.00  0.00    +0.000 OA
ATOM     19  C   UNL     1      -6.866  12.698  18.933  0.00  0.00    +0.000 C 
ATOM     20  C   UNL     1      -6.834  13.310  20.344  0.00  0.00    +0.000 C 
ENDROOT
BRANCH   2  21
ATOM     21  C   UNL     1      -4.693  15.117  21.701  0.00  0.00    +0.000 A 
ATOM     22  C   UNL     1      -3.484  15.584  21.235  0.00  0.00    +0.000 A 
ATOM     23  C   UNL     1      -2.275  15.076  21.675  0.00  0.00    +0.000 A 
ATOM     24  F   UNL     1      -1.197  15.136  20.895  0.00  0.00    +0.000 F 
ATOM     25  C   UNL     1      -2.183  14.376  22.844  0.00  0.00    +0.000 A 
ATOM     26  C   UNL     1      -3.368  14.035  23.467  0.00  0.00    +0.000 A 
ATOM     27  C   UNL     1      -4.623  14.340  22.864  0.00  0.00    +0.000 A 
BRANCH  27  28
ATOM     28  N   UNL     1      -5.755  13.806  23.496  0.00  0.00    +0.000 N 
ATOM     29  N   UNL     1      -6.796  14.554  23.934  0.00  0.00    +0.000 NA
ATOM     30  C   UNL     1      -7.594  13.626  24.462  0.00  0.00    +0.000 A 
ATOM     31  C   UNL     1      -7.070  12.354  24.231  0.00  0.00    +0.000 A 
ATOM     32  N   UNL     1      -5.947  12.455  23.528  0.00  0.00    +0.000 NA
ENDBRANCH  27  28
ENDBRANCH   2  21
TORSDOF 2
ENDMDL
MODEL 8
REMARK VINA RESULT:      -6.2      2.393      5.120
REMARK  Name = 
REMARK  2 active torsions:
REMARK  status: ('A' for Active; 'I' for Inactive)
REMARK    1  A    between atoms: C_2  and  C_3
REMARK    2  A    between atoms: C_9  and  N_10
REMARK                            x       y       z     vdW  Elec       q    Type
REMARK                         _______ _______ _______ _____ _____    ______ ____
ROOT
ATOM      1  O   UNL     1       1.436  13.088  17.718  0.00  0.00    +0.000 OA
ATOM      2  C   UNL     1       0.816  12.598  18.660  0.00  0.00    +0.000 C 
ATOM      3  N   UNL     1       1.055  12.991  20.009  0.00  0.00    +0.000 N 
ATOM      4  C   UNL     1       2.125  13.954  20.273  0.00  0.00    +0.000 C 
ATOM      5  C   UNL     1       1.602  15.167  21.043  0.00  0.00    +0.000 C 
ATOM      6  C   UNL     1       0.774  14.766  22.276  0.00  0.00    +0.000 C 
ATOM      7  C   UNL     1      -0.604  15.467  22.407  0.00  0.00    +0.000 C 
ATOM      8  N   UNL     1      -1.188  14.312  21.795  0.00  0.00    +0.000 N 
ATOM      9  C   UNL     1      -2.497  13.943  21.815  0.00  0.00    +0.000 A 
ATOM     10  N   UNL     1      -3.053  13.111  20.973  0.00  0.00    +0.000 NA
ATOM     11  C   UNL     1      -4.366  13.041  21.282  0.00  0.00    +0.000 A 
ATOM     12  C   UNL     1      -5.402  12.296  20.698  0.00  0.00    +0.000 A 
ATOM     13  C   UNL     1      -6.656  12.338  21.286  0.00  0.00    +0.000 A 
ATOM     14 CL   UNL     1      -7.916  11.365  20.630  0.00  0.00    +0.000 Cl
ATOM     15  C   UNL     1      -6.882  13.144  22.403  0.00  0.00    +0.000 A 
ATOM     16  C   UNL     1      -5.861  13.944  22.966  0.00  0.00    +0.000 A 
ATOM     17  C   UNL     1      -4.607  13.857  22.374  0.00  0.00    +0.000 A 
ATOM     18  O   UNL     1      -3.410  14.478  22.704  0.00  0.00    +0.000 OA
ATOM     19  C   UNL     1      -0.062  13.470  22.180  0.00  0.00    +0.000 C 
ATOM     20  C   UNL     1       0.499  12.389  21.239  0.00  0.00    +0.000 C 
ENDROOT
BRANCH   2  21
ATOM     21  C   UNL     1      -0.306  11.653  18.323  0.00  0.00    +0.000 A 
ATOM     22  C   UNL     1      -1.491  12.255  17.965  0.00  0.00    +0.000 A 
ATOM     23  C   UNL     1      -2.658  11.536  17.773  0.00  0.00    +0.000 A 
ATOM     24  F   UNL     1      -3.842  12.120  17.945  0.00  0.00    +0.000 F 
ATOM     25  C   UNL     1      -2.631  10.190  17.545  0.00  0.00    +0.000 A 
ATOM     26  C   UNL     1      -1.418   9.549  17.706  0.00  0.00    +0.000 A 
ATOM     27  C   UNL     1      -0.272  10.262  18.164  0.00  0.00    +0.000 A 
BRANCH  27  28
ATOM     28  N   UNL     1       0.862   9.487  18.449  0.00  0.00    +0.000 N 
ATOM     29  N   UNL     1       1.066   8.860  19.633  0.00  0.00    +0.000 NA
ATOM     30  C   UNL     1       2.251   8.284  19.434  0.00  0.00    +0.000 A 
ATOM     31  C   UNL     1       2.669   8.486  18.117  0.00  0.00    +0.000 A 
ATOM     32  N   UNL     1       1.741   9.168  17.455  0.00  0.00    +0.000 NA
ENDBRANCH  27  28
ENDBRANCH   2  21
TORSDOF 2
ENDMDL
MODEL 9
REMARK VINA RESULT:      -6.2      4.488      6.738
REMARK  Name = 
REMARK  2 active torsions:
REMARK  status: ('A' for Active; 'I' for Inactive)
REMARK    1  A    between atoms: C_2  and  C_3
REMARK    2  A    between atoms: C_9  and  N_10
REMARK                            x       y       z     vdW  Elec       q    Type
REMARK                         _______ _______ _______ _____ _____    ______ ____
ROOT
ATOM      1  O   UNL     1       0.713  18.004  19.265  0.00  0.00    +0.000 OA
ATOM      2  C   UNL     1       1.099  17.192  20.102  0.00  0.00    +0.000 C 
ATOM      3  N   UNL     1       0.650  17.229  21.455  0.00  0.00    +0.000 N 
ATOM      4  C   UNL     1      -0.239  18.318  21.862  0.00  0.00    +0.000 C 
ATOM      5  C   UNL     1      -1.531  17.779  22.477  0.00  0.00    +0.000 C 
ATOM      6  C   UNL     1      -1.267  16.719  23.561  0.00  0.00    +0.000 C 
ATOM      7  C   UNL     1      -2.081  15.406  23.419  0.00  0.00    +0.000 C 
ATOM      8  N   UNL     1      -0.942  14.837  22.762  0.00  0.00    +0.000 N 
ATOM      9  C   UNL     1      -0.679  13.517  22.567  0.00  0.00    +0.000 A 
ATOM     10  N   UNL     1       0.153  13.044  21.676  0.00  0.00    +0.000 NA
ATOM     11  C   UNL     1       0.102  11.696  21.752  0.00  0.00    +0.000 A 
ATOM     12  C   UNL     1       0.795  10.715  21.027  0.00  0.00    +0.000 A 
ATOM     13  C   UNL     1       0.621   9.387  21.384  0.00  0.00    +0.000 A 
ATOM     14 CL   UNL     1       1.528   8.177  20.557  0.00  0.00    +0.000 Cl
ATOM     15  C   UNL     1      -0.262   9.043  22.408  0.00  0.00    +0.000 A 
ATOM     16  C   UNL     1      -1.010  10.019  23.108  0.00  0.00    +0.000 A 
ATOM     17  C   UNL     1      -0.791  11.343  22.750  0.00  0.00    +0.000 A 
ATOM     18  O   UNL     1      -1.334  12.515  23.259  0.00  0.00    +0.000 OA
ATOM     19  C   UNL     1      -0.037  15.802  23.374  0.00  0.00    +0.000 C 
ATOM     20  C   UNL     1       1.136  16.420  22.593  0.00  0.00    +0.000 C 
ENDROOT
BRANCH   2  21
ATOM     21  C   UNL     1       1.970  16.067  19.614  0.00  0.00    +0.000 A 
ATOM     22  C   UNL     1       1.330  15.123  18.842  0.00  0.00    +0.000 A 
ATOM     23  C   UNL     1       1.948  13.952  18.441  0.00  0.00    +0.000 A 
ATOM     24  F   UNL     1       1.223  12.867  18.173  0.00  0.00    +0.000 F 
ATOM     25  C   UNL     1       3.309  13.830  18.447  0.00  0.00    +0.000 A 
ATOM     26  C   UNL     1       4.027  14.846  19.047  0.00  0.00    +0.000 A 
ATOM     27  C   UNL     1       3.361  15.928  19.694  0.00  0.00    +0.000 A 
BRANCH  27  28
ATOM     28  N   UNL     1       4.179  16.814  20.410  0.00  0.00    +0.000 N 
ATOM     29  N   UNL     1       4.551  16.620  21.698  0.00  0.00    +0.000 NA
ATOM     30  C   UNL     1       5.287  17.706  21.934  0.00  0.00    +0.000 A 
ATOM     31  C   UNL     1       5.427  18.455  20.765  0.00  0.00    +0.000 A 
ATOM     32  N   UNL     1       4.805  17.840  19.765  0.00  0.00    +0.000 NA
ENDBRANCH  27  28
ENDBRANCH   2  21
TORSDOF 2
ENDMDL
