MODEL 1
REMARK VINA RESULT:      -7.7      0.000      0.000
REMARK  Name = 
REMARK  7 active torsions:
REMARK  status: ('A' for Active; 'I' for Inactive)
REMARK    1  A    between atoms: C_1  and  C_2
REMARK    2  A    between atoms: C_2  and  C_3
REMARK    3  A    between atoms: C_3  and  C_4
REMARK    4  A    between atoms: C_3  and  N_5
REMARK    5  A    between atoms: C_10  and  C_11
REMARK    6  A    between atoms: C_12  and  C_13
REMARK    7  A    between atoms: N_22  and  C_23
REMARK                            x       y       z     vdW  Elec       q    Type
REMARK                         _______ _______ _______ _____ _____    ______ ____
ROOT
ATOM      1  N   UNL     1       5.244   4.759  15.840  0.00  0.00    +0.000 N 
ATOM      2  C   UNL     1       4.630   5.842  16.447  0.00  0.00    +0.000 A 
ATOM      3  N   UNL     1       4.758   7.073  15.978  0.00  0.00    +0.000 NA
ATOM      4  C   UNL     1       4.050   8.027  16.615  0.00  0.00    +0.000 A 
ATOM      5  C   UNL     1       3.227   7.823  17.712  0.00  0.00    +0.000 A 
ATOM      6  C   UNL     1       2.438   8.888  18.353  0.00  0.00    +0.000 A 
ATOM      7  C   UNL     1       2.522  10.316  17.858  0.00  0.00    +0.000 C 
ATOM      8  C   UNL     1       1.632   8.541  19.378  0.00  0.00    +0.000 A 
ATOM      9  C   UNL     1       1.581   7.131  19.904  0.00  0.00    +0.000 A 
ATOM     10  O   UNL     1       0.832   6.914  20.857  0.00  0.00    +0.000 OA
ATOM     11  N   UNL     1       2.366   6.147  19.288  0.00  0.00    +0.000 N 
ATOM     12  C   UNL     1       3.181   6.508  18.152  0.00  0.00    +0.000 A 
ATOM     13  N   UNL     1       3.885   5.553  17.514  0.00  0.00    +0.000 NA
ATOM     14  H   UNL     1       5.244   4.017  16.531  0.00  0.00    +0.000 HD
ENDROOT
BRANCH  11  15
ATOM     15  C   UNL     1       2.299   4.716  19.827  0.00  0.00    +0.000 C 
ATOM     16  C   UNL     1       3.514   3.878  19.309  0.00  0.00    +0.000 C 
ATOM     17  C   UNL     1       3.445   2.410  19.776  0.00  0.00    +0.000 C 
ATOM     18  C   UNL     1       3.460   2.357  21.309  0.00  0.00    +0.000 C 
ATOM     19  C   UNL     1       2.241   3.102  21.858  0.00  0.00    +0.000 C 
ATOM     20  C   UNL     1       0.945   2.473  21.341  0.00  0.00    +0.000 C 
ATOM     21  C   UNL     1       0.926   2.533  19.810  0.00  0.00    +0.000 C 
ATOM     22  C   UNL     1       2.144   1.768  19.266  0.00  0.00    +0.000 C 
ATOM     23  C   UNL     1       0.987   4.005  19.346  0.00  0.00    +0.000 C 
ATOM     24  C   UNL     1       2.307   4.558  21.387  0.00  0.00    +0.000 C 
ENDBRANCH  11  15
BRANCH   8  25
ATOM     25  C   UNL     1       0.746   9.545  20.022  0.00  0.00    +0.000 A 
ATOM     26  C   UNL     1       1.022   9.932  21.346  0.00  0.00    +0.000 A 
ATOM     27  C   UNL     1       0.221  10.878  21.995  0.00  0.00    +0.000 A 
ATOM     28  C   UNL     1      -0.861  11.448  21.332  0.00  0.00    +0.000 A 
ATOM     29  C   UNL     1      -1.151  11.071  20.021  0.00  0.00    +0.000 A 
ATOM     30  C   UNL     1      -0.355  10.123  19.367  0.00  0.00    +0.000 A 
ATOM     31 CL   UNL     1      -0.791   9.677  17.754  0.00  0.00    +0.000 Cl
ENDBRANCH   8  25
BRANCH   1  32
ATOM     32  C   UNL     1       6.503   4.981  15.137  0.00  0.00    +0.000 C 
ATOM     33  C   UNL     1       6.532   4.204  13.818  0.00  0.00    +0.000 C 
BRANCH  32  35
ATOM     34  C   UNL     1       7.414   4.657  17.546  0.00  0.00    +0.000 C 
ATOM     35  C   UNL     1       7.683   4.570  16.047  0.00  0.00    +0.000 C 
ENDBRANCH  32  35
ENDBRANCH   1  32
TORSDOF 4
ENDMDL
MODEL 2
REMARK VINA RESULT:      -7.5      0.101      1.282
REMARK  Name = 
REMARK  7 active torsions:
REMARK  status: ('A' for Active; 'I' for Inactive)
REMARK    1  A    between atoms: C_1  and  C_2
REMARK    2  A    between atoms: C_2  and  C_3
REMARK    3  A    between atoms: C_3  and  C_4
REMARK    4  A    between atoms: C_3  and  N_5
REMARK    5  A    between atoms: C_10  and  C_11
REMARK    6  A    between atoms: C_12  and  C_13
REMARK    7  A    between atoms: N_22  and  C_23
REMARK                            x       y       z     vdW  Elec       q    Type
REMARK                         _______ _______ _______ _____ _____    ______ ____
ROOT
ATOM      1  N   UNL     1       5.281   4.794  15.734  0.00  0.00    +0.000 N 
ATOM      2  C   UNL     1       4.665   5.863  16.364  0.00  0.00    +0.000 A 
ATOM      3  N   UNL     1       4.786   7.103  15.919  0.00  0.00    +0.000 NA
ATOM      4  C   UNL     1       4.077   8.042  16.577  0.00  0.00    +0.000 A 
ATOM      5  C   UNL     1       3.259   7.813  17.674  0.00  0.00    +0.000 A 
ATOM      6  C   UNL     1       2.468   8.861  18.338  0.00  0.00    +0.000 A 
ATOM      7  C   UNL     1       2.545  10.300  17.872  0.00  0.00    +0.000 C 
ATOM      8  C   UNL     1       1.668   8.491  19.360  0.00  0.00    +0.000 A 
ATOM      9  C   UNL     1       1.624   7.070  19.858  0.00  0.00    +0.000 A 
ATOM     10  O   UNL     1       0.880   6.832  20.809  0.00  0.00    +0.000 OA
ATOM     11  N   UNL     1       2.411   6.102  19.219  0.00  0.00    +0.000 N 
ATOM     12  C   UNL     1       3.220   6.489  18.088  0.00  0.00    +0.000 A 
ATOM     13  N   UNL     1       3.925   5.549  17.429  0.00  0.00    +0.000 NA
ATOM     14  H   UNL     1       5.286   4.039  16.409  0.00  0.00    +0.000 HD
ENDROOT
BRANCH  11  15
ATOM     15  C   UNL     1       2.352   4.660  19.730  0.00  0.00    +0.000 C 
ATOM     16  C   UNL     1       1.054   3.951  19.220  0.00  0.00    +0.000 C 
ATOM     17  C   UNL     1       0.926   2.517  19.772  0.00  0.00    +0.000 C 
ATOM     18  C   UNL     1       2.126   1.679  19.314  0.00  0.00    +0.000 C 
ATOM     19  C   UNL     1       3.417   2.297  19.858  0.00  0.00    +0.000 C 
ATOM     20  C   UNL     1       3.388   2.350  21.387  0.00  0.00    +0.000 C 
ATOM     21  C   UNL     1       2.192   3.193  21.845  0.00  0.00    +0.000 C 
ATOM     22  C   UNL     1       0.900   2.557  21.309  0.00  0.00    +0.000 C 
ATOM     23  C   UNL     1       2.330   4.630  21.297  0.00  0.00    +0.000 C 
ATOM     24  C   UNL     1       3.540   3.725  19.315  0.00  0.00    +0.000 C 
ENDBRANCH  11  15
BRANCH   8  25
ATOM     25  C   UNL     1       0.780   9.478  20.027  0.00  0.00    +0.000 A 
ATOM     26  C   UNL     1       1.058   9.838  21.359  0.00  0.00    +0.000 A 
ATOM     27  C   UNL     1       0.256  10.767  22.030  0.00  0.00    +0.000 A 
ATOM     28  C   UNL     1      -0.829  11.348  21.381  0.00  0.00    +0.000 A 
ATOM     29  C   UNL     1      -1.121  10.998  20.062  0.00  0.00    +0.000 A 
ATOM     30  C   UNL     1      -0.324  10.067  19.387  0.00  0.00    +0.000 A 
ATOM     31 CL   UNL     1      -0.762   9.655  17.766  0.00  0.00    +0.000 Cl
ENDBRANCH   8  25
BRANCH   1  32
ATOM     32  C   UNL     1       6.536   5.036  15.030  0.00  0.00    +0.000 C 
ATOM     33  C   UNL     1       6.596   4.223  13.734  0.00  0.00    +0.000 C 
BRANCH  32  35
ATOM     34  C   UNL     1       7.388   4.594  17.442  0.00  0.00    +0.000 C 
ATOM     35  C   UNL     1       7.724   4.687  15.957  0.00  0.00    +0.000 C 
ENDBRANCH  32  35
ENDBRANCH   1  32
TORSDOF 4
ENDMDL
MODEL 3
REMARK VINA RESULT:      -7.5      0.128      1.234
REMARK  Name = 
REMARK  7 active torsions:
REMARK  status: ('A' for Active; 'I' for Inactive)
REMARK    1  A    between atoms: C_1  and  C_2
REMARK    2  A    between atoms: C_2  and  C_3
REMARK    3  A    between atoms: C_3  and  C_4
REMARK    4  A    between atoms: C_3  and  N_5
REMARK    5  A    between atoms: C_10  and  C_11
REMARK    6  A    between atoms: C_12  and  C_13
REMARK    7  A    between atoms: N_22  and  C_23
REMARK                            x       y       z     vdW  Elec       q    Type
REMARK                         _______ _______ _______ _____ _____    ______ ____
ROOT
ATOM      1  N   UNL     1       5.250   4.758  15.844  0.00  0.00    +0.000 N 
ATOM      2  C   UNL     1       4.637   5.841  16.453  0.00  0.00    +0.000 A 
ATOM      3  N   UNL     1       4.791   7.076  16.006  0.00  0.00    +0.000 NA
ATOM      4  C   UNL     1       4.083   8.031  16.642  0.00  0.00    +0.000 A 
ATOM      5  C   UNL     1       3.232   7.821  17.717  0.00  0.00    +0.000 A 
ATOM      6  C   UNL     1       2.442   8.887  18.356  0.00  0.00    +0.000 A 
ATOM      7  C   UNL     1       2.557  10.321  17.885  0.00  0.00    +0.000 C 
ATOM      8  C   UNL     1       1.608   8.536  19.356  0.00  0.00    +0.000 A 
ATOM      9  C   UNL     1       1.526   7.118  19.860  0.00  0.00    +0.000 A 
ATOM     10  O   UNL     1       0.753   6.897  20.792  0.00  0.00    +0.000 OA
ATOM     11  N   UNL     1       2.312   6.133  19.246  0.00  0.00    +0.000 N 
ATOM     12  C   UNL     1       3.158   6.501  18.135  0.00  0.00    +0.000 A 
ATOM     13  N   UNL     1       3.863   5.545  17.499  0.00  0.00    +0.000 NA
ATOM     14  H   UNL     1       5.224   4.006  16.523  0.00  0.00    +0.000 HD
ENDROOT
BRANCH  11  15
ATOM     15  C   UNL     1       2.213   4.695  19.762  0.00  0.00    +0.000 C 
ATOM     16  C   UNL     1       2.441   4.651  21.309  0.00  0.00    +0.000 C 
ATOM     17  C   UNL     1       2.417   3.209  21.855  0.00  0.00    +0.000 C 
ATOM     18  C   UNL     1       1.053   2.572  21.566  0.00  0.00    +0.000 C 
ATOM     19  C   UNL     1       0.823   2.524  20.053  0.00  0.00    +0.000 C 
ATOM     20  C   UNL     1       1.921   1.710  19.364  0.00  0.00    +0.000 C 
ATOM     21  C   UNL     1       3.283   2.352  19.647  0.00  0.00    +0.000 C 
ATOM     22  C   UNL     1       3.514   2.380  21.167  0.00  0.00    +0.000 C 
ATOM     23  C   UNL     1       3.305   3.792  19.091  0.00  0.00    +0.000 C 
ATOM     24  C   UNL     1       0.853   3.956  19.510  0.00  0.00    +0.000 C 
ENDBRANCH  11  15
BRANCH   8  25
ATOM     25  C   UNL     1       0.721   9.541  19.996  0.00  0.00    +0.000 A 
ATOM     26  C   UNL     1       0.992   9.930  21.321  0.00  0.00    +0.000 A 
ATOM     27  C   UNL     1       0.191  10.878  21.965  0.00  0.00    +0.000 A 
ATOM     28  C   UNL     1      -0.888  11.449  21.297  0.00  0.00    +0.000 A 
ATOM     29  C   UNL     1      -1.173  11.070  19.985  0.00  0.00    +0.000 A 
ATOM     30  C   UNL     1      -0.376  10.120  19.335  0.00  0.00    +0.000 A 
ATOM     31 CL   UNL     1      -0.806   9.673  17.721  0.00  0.00    +0.000 Cl
ENDBRANCH   8  25
BRANCH   1  32
ATOM     32  C   UNL     1       6.527   4.974  15.173  0.00  0.00    +0.000 C 
ATOM     33  C   UNL     1       6.570   4.232  13.835  0.00  0.00    +0.000 C 
BRANCH  32  35
ATOM     34  C   UNL     1       7.424   4.676  17.591  0.00  0.00    +0.000 C 
ATOM     35  C   UNL     1       7.680   4.515  16.096  0.00  0.00    +0.000 C 
ENDBRANCH  32  35
ENDBRANCH   1  32
TORSDOF 4
ENDMDL
MODEL 4
REMARK VINA RESULT:      -7.3      0.949      1.258
REMARK  Name = 
REMARK  7 active torsions:
REMARK  status: ('A' for Active; 'I' for Inactive)
REMARK    1  A    between atoms: C_1  and  C_2
REMARK    2  A    between atoms: C_2  and  C_3
REMARK    3  A    between atoms: C_3  and  C_4
REMARK    4  A    between atoms: C_3  and  N_5
REMARK    5  A    between atoms: C_10  and  C_11
REMARK    6  A    between atoms: C_12  and  C_13
REMARK    7  A    between atoms: N_22  and  C_23
REMARK                            x       y       z     vdW  Elec       q    Type
REMARK                         _______ _______ _______ _____ _____    ______ ____
ROOT
ATOM      1  N   UNL     1       5.290   4.803  15.865  0.00  0.00    +0.000 N 
ATOM      2  C   UNL     1       4.655   5.872  16.476  0.00  0.00    +0.000 A 
ATOM      3  N   UNL     1       4.763   7.107  16.015  0.00  0.00    +0.000 NA
ATOM      4  C   UNL     1       4.037   8.046  16.655  0.00  0.00    +0.000 A 
ATOM      5  C   UNL     1       3.213   7.820  17.748  0.00  0.00    +0.000 A 
ATOM      6  C   UNL     1       2.403   8.867  18.392  0.00  0.00    +0.000 A 
ATOM      7  C   UNL     1       2.465  10.300  17.906  0.00  0.00    +0.000 C 
ATOM      8  C   UNL     1       1.599   8.501  19.411  0.00  0.00    +0.000 A 
ATOM      9  C   UNL     1       1.570   7.086  19.929  0.00  0.00    +0.000 A 
ATOM     10  O   UNL     1       0.822   6.851  20.878  0.00  0.00    +0.000 OA
ATOM     11  N   UNL     1       2.374   6.120  19.310  0.00  0.00    +0.000 N 
ATOM     12  C   UNL     1       3.188   6.502  18.180  0.00  0.00    +0.000 A 
ATOM     13  N   UNL     1       3.910   5.563  17.539  0.00  0.00    +0.000 NA
ATOM     14  H   UNL     1       5.299   4.057  16.551  0.00  0.00    +0.000 HD
ENDROOT
BRANCH  11  15
ATOM     15  C   UNL     1       2.330   4.684  19.840  0.00  0.00    +0.000 C 
ATOM     16  C   UNL     1       3.596   3.890  19.377  0.00  0.00    +0.000 C 
ATOM     17  C   UNL     1       3.554   2.418  19.835  0.00  0.00    +0.000 C 
ATOM     18  C   UNL     1       3.499   2.357  21.366  0.00  0.00    +0.000 C 
ATOM     19  C   UNL     1       2.231   3.059  21.860  0.00  0.00    +0.000 C 
ATOM     20  C   UNL     1       0.983   2.390  21.280  0.00  0.00    +0.000 C 
ATOM     21  C   UNL     1       1.034   2.458  19.750  0.00  0.00    +0.000 C 
ATOM     22  C   UNL     1       2.300   1.737  19.261  0.00  0.00    +0.000 C 
ATOM     23  C   UNL     1       1.067   3.932  19.295  0.00  0.00    +0.000 C 
ATOM     24  C   UNL     1       2.271   4.519  21.398  0.00  0.00    +0.000 C 
ENDBRANCH  11  15
BRANCH   8  25
ATOM     25  C   UNL     1       0.693   9.485  20.058  0.00  0.00    +0.000 A 
ATOM     26  C   UNL     1      -0.346  10.045  19.293  0.00  0.00    +0.000 A 
ATOM     27  C   UNL     1      -1.230  10.970  19.857  0.00  0.00    +0.000 A 
ATOM     28  C   UNL     1      -1.088  11.347  21.190  0.00  0.00    +0.000 A 
ATOM     29  C   UNL     1      -0.059  10.805  21.960  0.00  0.00    +0.000 A 
ATOM     30  C   UNL     1       0.830   9.879  21.400  0.00  0.00    +0.000 A 
ATOM     31 CL   UNL     1       2.101   9.273  22.403  0.00  0.00    +0.000 Cl
ENDBRANCH   8  25
BRANCH   1  32
ATOM     32  C   UNL     1       6.547   5.051  15.168  0.00  0.00    +0.000 C 
ATOM     33  C   UNL     1       6.589   4.295  13.838  0.00  0.00    +0.000 C 
BRANCH  32  35
ATOM     34  C   UNL     1       7.420   4.581  17.567  0.00  0.00    +0.000 C 
ATOM     35  C   UNL     1       7.730   4.641  16.075  0.00  0.00    +0.000 C 
ENDBRANCH  32  35
ENDBRANCH   1  32
TORSDOF 4
ENDMDL
MODEL 5
REMARK VINA RESULT:      -7.2      0.959      1.745
REMARK  Name = 
REMARK  7 active torsions:
REMARK  status: ('A' for Active; 'I' for Inactive)
REMARK    1  A    between atoms: C_1  and  C_2
REMARK    2  A    between atoms: C_2  and  C_3
REMARK    3  A    between atoms: C_3  and  C_4
REMARK    4  A    between atoms: C_3  and  N_5
REMARK    5  A    between atoms: C_10  and  C_11
REMARK    6  A    between atoms: C_12  and  C_13
REMARK    7  A    between atoms: N_22  and  C_23
REMARK                            x       y       z     vdW  Elec       q    Type
REMARK                         _______ _______ _______ _____ _____    ______ ____
ROOT
ATOM      1  N   UNL     1       5.240   4.798  15.933  0.00  0.00    +0.000 N 
ATOM      2  C   UNL     1       4.608   5.871  16.540  0.00  0.00    +0.000 A 
ATOM      3  N   UNL     1       4.753   7.110  16.101  0.00  0.00    +0.000 NA
ATOM      4  C   UNL     1       4.027   8.053  16.733  0.00  0.00    +0.000 A 
ATOM      5  C   UNL     1       3.167   7.829  17.797  0.00  0.00    +0.000 A 
ATOM      6  C   UNL     1       2.358   8.883  18.433  0.00  0.00    +0.000 A 
ATOM      7  C   UNL     1       2.462  10.320  17.970  0.00  0.00    +0.000 C 
ATOM      8  C   UNL     1       1.517   8.517  19.423  0.00  0.00    +0.000 A 
ATOM      9  C   UNL     1       1.446   7.096  19.918  0.00  0.00    +0.000 A 
ATOM     10  O   UNL     1       0.665   6.862  20.841  0.00  0.00    +0.000 OA
ATOM     11  N   UNL     1       2.249   6.123  19.309  0.00  0.00    +0.000 N 
ATOM     12  C   UNL     1       3.103   6.506  18.209  0.00  0.00    +0.000 A 
ATOM     13  N   UNL     1       3.826   5.561  17.576  0.00  0.00    +0.000 NA
ATOM     14  H   UNL     1       5.215   4.042  16.608  0.00  0.00    +0.000 HD
ENDROOT
BRANCH  11  15
ATOM     15  C   UNL     1       2.162   4.682  19.816  0.00  0.00    +0.000 C 
ATOM     16  C   UNL     1       2.468   4.621  21.349  0.00  0.00    +0.000 C 
ATOM     17  C   UNL     1       2.456   3.175  21.884  0.00  0.00    +0.000 C 
ATOM     18  C   UNL     1       1.072   2.554  21.660  0.00  0.00    +0.000 C 
ATOM     19  C   UNL     1       0.764   2.523  20.160  0.00  0.00    +0.000 C 
ATOM     20  C   UNL     1       1.816   1.703  19.409  0.00  0.00    +0.000 C 
ATOM     21  C   UNL     1       3.199   2.328  19.627  0.00  0.00    +0.000 C 
ATOM     22  C   UNL     1       3.508   2.341  21.133  0.00  0.00    +0.000 C 
ATOM     23  C   UNL     1       3.208   3.773  19.083  0.00  0.00    +0.000 C 
ATOM     24  C   UNL     1       0.783   3.960  19.629  0.00  0.00    +0.000 C 
ENDBRANCH  11  15
BRANCH   8  25
ATOM     25  C   UNL     1       0.612   9.510  20.057  0.00  0.00    +0.000 A 
ATOM     26  C   UNL     1      -0.413  10.078  19.278  0.00  0.00    +0.000 A 
ATOM     27  C   UNL     1      -1.295  11.012  19.829  0.00  0.00    +0.000 A 
ATOM     28  C   UNL     1      -1.168  11.388  21.163  0.00  0.00    +0.000 A 
ATOM     29  C   UNL     1      -0.154  10.838  21.948  0.00  0.00    +0.000 A 
ATOM     30  C   UNL     1       0.734   9.904  21.400  0.00  0.00    +0.000 A 
ATOM     31 CL   UNL     1       1.987   9.288  22.420  0.00  0.00    +0.000 Cl
ENDBRANCH   8  25
BRANCH   1  32
ATOM     32  C   UNL     1       6.522   5.031  15.277  0.00  0.00    +0.000 C 
ATOM     33  C   UNL     1       6.572   4.328  13.918  0.00  0.00    +0.000 C 
BRANCH  32  35
ATOM     34  C   UNL     1       7.397   4.651  17.691  0.00  0.00    +0.000 C 
ATOM     35  C   UNL     1       7.668   4.545  16.194  0.00  0.00    +0.000 C 
ENDBRANCH  32  35
ENDBRANCH   1  32
TORSDOF 4
ENDMDL
MODEL 6
REMARK VINA RESULT:      -7.1      0.951      1.783
REMARK  Name = 
REMARK  7 active torsions:
REMARK  status: ('A' for Active; 'I' for Inactive)
REMARK    1  A    between atoms: C_1  and  C_2
REMARK    2  A    between atoms: C_2  and  C_3
REMARK    3  A    between atoms: C_3  and  C_4
REMARK    4  A    between atoms: C_3  and  N_5
REMARK    5  A    between atoms: C_10  and  C_11
REMARK    6  A    between atoms: C_12  and  C_13
REMARK    7  A    between atoms: N_22  and  C_23
REMARK                            x       y       z     vdW  Elec       q    Type
REMARK                         _______ _______ _______ _____ _____    ______ ____
ROOT
ATOM      1  N   UNL     1       5.339   4.837  15.797  0.00  0.00    +0.000 N 
ATOM      2  C   UNL     1       4.703   5.897  16.422  0.00  0.00    +0.000 A 
ATOM      3  N   UNL     1       4.823   7.141  15.988  0.00  0.00    +0.000 NA
ATOM      4  C   UNL     1       4.096   8.071  16.639  0.00  0.00    +0.000 A 
ATOM      5  C   UNL     1       3.258   7.828  17.718  0.00  0.00    +0.000 A 
ATOM      6  C   UNL     1       2.447   8.867  18.374  0.00  0.00    +0.000 A 
ATOM      7  C   UNL     1       2.522  10.309  17.919  0.00  0.00    +0.000 C 
ATOM      8  C   UNL     1       1.630   8.484  19.377  0.00  0.00    +0.000 A 
ATOM      9  C   UNL     1       1.587   7.060  19.865  0.00  0.00    +0.000 A 
ATOM     10  O   UNL     1       0.827   6.809  20.801  0.00  0.00    +0.000 OA
ATOM     11  N   UNL     1       2.392   6.101  19.235  0.00  0.00    +0.000 N 
ATOM     12  C   UNL     1       3.221   6.502  18.123  0.00  0.00    +0.000 A 
ATOM     13  N   UNL     1       3.945   5.572  17.471  0.00  0.00    +0.000 NA
ATOM     14  H   UNL     1       5.336   4.077  16.468  0.00  0.00    +0.000 HD
ENDROOT
BRANCH  11  15
ATOM     15  C   UNL     1       2.334   4.656  19.736  0.00  0.00    +0.000 C 
ATOM     16  C   UNL     1       1.069   3.930  19.170  0.00  0.00    +0.000 C 
ATOM     17  C   UNL     1       0.939   2.491  19.707  0.00  0.00    +0.000 C 
ATOM     18  C   UNL     1       2.169   1.674  19.294  0.00  0.00    +0.000 C 
ATOM     19  C   UNL     1       3.428   2.308  19.894  0.00  0.00    +0.000 C 
ATOM     20  C   UNL     1       3.336   2.351  21.421  0.00  0.00    +0.000 C 
ATOM     21  C   UNL     1       2.111   3.174  21.834  0.00  0.00    +0.000 C 
ATOM     22  C   UNL     1       0.850   2.522  21.242  0.00  0.00    +0.000 C 
ATOM     23  C   UNL     1       2.249   4.616  21.301  0.00  0.00    +0.000 C 
ATOM     24  C   UNL     1       3.552   3.740  19.364  0.00  0.00    +0.000 C 
ENDBRANCH  11  15
BRANCH   8  25
ATOM     25  C   UNL     1       0.722   9.460  20.034  0.00  0.00    +0.000 A 
ATOM     26  C   UNL     1      -0.309  10.037  19.270  0.00  0.00    +0.000 A 
ATOM     27  C   UNL     1      -1.194  10.956  19.843  0.00  0.00    +0.000 A 
ATOM     28  C   UNL     1      -1.061  11.309  21.183  0.00  0.00    +0.000 A 
ATOM     29  C   UNL     1      -0.040  10.750  21.952  0.00  0.00    +0.000 A 
ATOM     30  C   UNL     1       0.849   9.831  21.383  0.00  0.00    +0.000 A 
ATOM     31 CL   UNL     1       2.111   9.203  22.385  0.00  0.00    +0.000 Cl
ENDBRANCH   8  25
BRANCH   1  32
ATOM     32  C   UNL     1       6.605   5.092  15.120  0.00  0.00    +0.000 C 
ATOM     33  C   UNL     1       6.665   4.347  13.783  0.00  0.00    +0.000 C 
BRANCH  32  35
ATOM     34  C   UNL     1       7.438   4.569  17.522  0.00  0.00    +0.000 C 
ATOM     35  C   UNL     1       7.777   4.674  16.038  0.00  0.00    +0.000 C 
ENDBRANCH  32  35
ENDBRANCH   1  32
TORSDOF 4
ENDMDL
MODEL 7
REMARK VINA RESULT:      -7.0      8.888     10.672
REMARK  Name = 
REMARK  7 active torsions:
REMARK  status: ('A' for Active; 'I' for Inactive)
REMARK    1  A    between atoms: C_1  and  C_2
REMARK    2  A    between atoms: C_2  and  C_3
REMARK    3  A    between atoms: C_3  and  C_4
REMARK    4  A    between atoms: C_3  and  N_5
REMARK    5  A    between atoms: C_10  and  C_11
REMARK    6  A    between atoms: C_12  and  C_13
REMARK    7  A    between atoms: N_22  and  C_23
REMARK                            x       y       z     vdW  Elec       q    Type
REMARK                         _______ _______ _______ _____ _____    ______ ____
ROOT
ATOM      1  N   UNL     1       9.233  15.634  18.515  0.00  0.00    +0.000 N 
ATOM      2  C   UNL     1       8.901  15.212  19.792  0.00  0.00    +0.000 A 
ATOM      3  N   UNL     1       9.821  14.931  20.699  0.00  0.00    +0.000 NA
ATOM      4  C   UNL     1       9.367  14.603  21.926  0.00  0.00    +0.000 A 
ATOM      5  C   UNL     1       8.032  14.525  22.296  0.00  0.00    +0.000 A 
ATOM      6  C   UNL     1       7.579  14.204  23.659  0.00  0.00    +0.000 A 
ATOM      7  C   UNL     1       8.578  13.888  24.752  0.00  0.00    +0.000 C 
ATOM      8  C   UNL     1       6.251  14.219  23.898  0.00  0.00    +0.000 A 
ATOM      9  C   UNL     1       5.251  14.486  22.803  0.00  0.00    +0.000 A 
ATOM     10  O   UNL     1       4.060  14.456  23.112  0.00  0.00    +0.000 OA
ATOM     11  N   UNL     1       5.717  14.762  21.511  0.00  0.00    +0.000 N 
ATOM     12  C   UNL     1       7.140  14.805  21.271  0.00  0.00    +0.000 A 
ATOM     13  N   UNL     1       7.593  15.136  20.047  0.00  0.00    +0.000 NA
ATOM     14  H   UNL     1       8.403  15.493  17.951  0.00  0.00    +0.000 HD
ENDROOT
BRANCH  11  15
ATOM     15  C   UNL     1       4.691  15.039  20.409  0.00  0.00    +0.000 C 
ATOM     16  C   UNL     1       4.197  16.521  20.481  0.00  0.00    +0.000 C 
ATOM     17  C   UNL     1       3.110  16.819  19.428  0.00  0.00    +0.000 C 
ATOM     18  C   UNL     1       3.677  16.584  18.023  0.00  0.00    +0.000 C 
ATOM     19  C   UNL     1       4.103  15.120  17.883  0.00  0.00    +0.000 C 
ATOM     20  C   UNL     1       2.913  14.186  18.114  0.00  0.00    +0.000 C 
ATOM     21  C   UNL     1       2.352  14.416  19.521  0.00  0.00    +0.000 C 
ATOM     22  C   UNL     1       1.910  15.883  19.648  0.00  0.00    +0.000 C 
ATOM     23  C   UNL     1       3.440  14.108  20.572  0.00  0.00    +0.000 C 
ATOM     24  C   UNL     1       5.178  14.823  18.934  0.00  0.00    +0.000 C 
ENDBRANCH  11  15
BRANCH   8  25
ATOM     25  C   UNL     1       5.721  13.984  25.266  0.00  0.00    +0.000 A 
ATOM     26  C   UNL     1       5.418  15.099  26.070  0.00  0.00    +0.000 A 
ATOM     27  C   UNL     1       4.911  14.931  27.362  0.00  0.00    +0.000 A 
ATOM     28  C   UNL     1       4.700  13.652  27.868  0.00  0.00    +0.000 A 
ATOM     29  C   UNL     1       5.000  12.536  27.086  0.00  0.00    +0.000 A 
ATOM     30  C   UNL     1       5.510  12.698  25.792  0.00  0.00    +0.000 A 
ATOM     31 CL   UNL     1       5.892  11.272  24.891  0.00  0.00    +0.000 Cl
ENDBRANCH   8  25
BRANCH   1  32
ATOM     32  C   UNL     1      10.489  15.168  17.938  0.00  0.00    +0.000 C 
ATOM     33  C   UNL     1      10.947  16.098  16.811  0.00  0.00    +0.000 C 
BRANCH  32  35
ATOM     34  C   UNL     1      11.601  13.024  16.984  0.00  0.00    +0.000 C 
ATOM     35  C   UNL     1      10.316  13.720  17.424  0.00  0.00    +0.000 C 
ENDBRANCH  32  35
ENDBRANCH   1  32
TORSDOF 4
ENDMDL
MODEL 8
REMARK VINA RESULT:      -7.0      8.783     10.512
REMARK  Name = 
REMARK  7 active torsions:
REMARK  status: ('A' for Active; 'I' for Inactive)
REMARK    1  A    between atoms: C_1  and  C_2
REMARK    2  A    between atoms: C_2  and  C_3
REMARK    3  A    between atoms: C_3  and  C_4
REMARK    4  A    between atoms: C_3  and  N_5
REMARK    5  A    between atoms: C_10  and  C_11
REMARK    6  A    between atoms: C_12  and  C_13
REMARK    7  A    between atoms: N_22  and  C_23
REMARK                            x       y       z     vdW  Elec       q    Type
REMARK                         _______ _______ _______ _____ _____    ______ ____
ROOT
ATOM      1  N   UNL     1       9.345  14.997  18.633  0.00  0.00    +0.000 N 
ATOM      2  C   UNL     1       8.980  14.626  19.917  0.00  0.00    +0.000 A 
ATOM      3  N   UNL     1       9.872  14.247  20.817  0.00  0.00    +0.000 NA
ATOM      4  C   UNL     1       9.396  13.982  22.050  0.00  0.00    +0.000 A 
ATOM      5  C   UNL     1       8.065  14.060  22.434  0.00  0.00    +0.000 A 
ATOM      6  C   UNL     1       7.593  13.803  23.804  0.00  0.00    +0.000 A 
ATOM      7  C   UNL     1       8.560  13.382  24.889  0.00  0.00    +0.000 C 
ATOM      8  C   UNL     1       6.278  13.971  24.056  0.00  0.00    +0.000 A 
ATOM      9  C   UNL     1       5.303  14.344  22.969  0.00  0.00    +0.000 A 
ATOM     10  O   UNL     1       4.120  14.454  23.290  0.00  0.00    +0.000 OA
ATOM     11  N   UNL     1       5.784  14.556  21.670  0.00  0.00    +0.000 N 
ATOM     12  C   UNL     1       7.200  14.434  21.416  0.00  0.00    +0.000 A 
ATOM     13  N   UNL     1       7.675  14.702  20.185  0.00  0.00    +0.000 NA
ATOM     14  H   UNL     1       8.498  14.949  18.078  0.00  0.00    +0.000 HD
ENDROOT
BRANCH  11  15
ATOM     15  C   UNL     1       4.785  14.941  20.576  0.00  0.00    +0.000 C 
ATOM     16  C   UNL     1       5.399  14.688  19.159  0.00  0.00    +0.000 C 
ATOM     17  C   UNL     1       4.446  15.130  18.030  0.00  0.00    +0.000 C 
ATOM     18  C   UNL     1       3.138  14.335  18.120  0.00  0.00    +0.000 C 
ATOM     19  C   UNL     1       2.462  14.615  19.466  0.00  0.00    +0.000 C 
ATOM     20  C   UNL     1       2.162  16.107  19.619  0.00  0.00    +0.000 C 
ATOM     21  C   UNL     1       3.471  16.901  19.537  0.00  0.00    +0.000 C 
ATOM     22  C   UNL     1       4.134  16.628  18.177  0.00  0.00    +0.000 C 
ATOM     23  C   UNL     1       4.418  16.462  20.674  0.00  0.00    +0.000 C 
ATOM     24  C   UNL     1       3.413  14.182  20.587  0.00  0.00    +0.000 C 
ENDBRANCH  11  15
BRANCH   8  25
ATOM     25  C   UNL     1       5.739  13.808  25.431  0.00  0.00    +0.000 A 
ATOM     26  C   UNL     1       5.520  14.961  26.208  0.00  0.00    +0.000 A 
ATOM     27  C   UNL     1       5.009  14.862  27.506  0.00  0.00    +0.000 A 
ATOM     28  C   UNL     1       4.709  13.614  28.043  0.00  0.00    +0.000 A 
ATOM     29  C   UNL     1       4.925  12.460  27.288  0.00  0.00    +0.000 A 
ATOM     30  C   UNL     1       5.439  12.554  25.989  0.00  0.00    +0.000 A 
ATOM     31 CL   UNL     1       5.714  11.083  25.122  0.00  0.00    +0.000 Cl
ENDBRANCH   8  25
BRANCH   1  32
ATOM     32  C   UNL     1      10.533  14.386  18.047  0.00  0.00    +0.000 C 
ATOM     33  C   UNL     1      11.156  15.309  16.996  0.00  0.00    +0.000 C 
BRANCH  32  35
ATOM     34  C   UNL     1      11.054  11.852  17.839  0.00  0.00    +0.000 C 
ATOM     35  C   UNL     1      10.159  13.018  17.431  0.00  0.00    +0.000 C 
ENDBRANCH  32  35
ENDBRANCH   1  32
TORSDOF 4
ENDMDL
MODEL 9
REMARK VINA RESULT:      -6.9      8.959     11.927
REMARK  Name = 
REMARK  7 active torsions:
REMARK  status: ('A' for Active; 'I' for Inactive)
REMARK    1  A    between atoms: C_1  and  C_2
REMARK    2  A    between atoms: C_2  and  C_3
REMARK    3  A    between atoms: C_3  and  C_4
REMARK    4  A    between atoms: C_3  and  N_5
REMARK    5  A    between atoms: C_10  and  C_11
REMARK    6  A    between atoms: C_12  and  C_13
REMARK    7  A    between atoms: N_22  and  C_23
REMARK                            x       y       z     vdW  Elec       q    Type
REMARK                         _______ _______ _______ _____ _____    ______ ____
ROOT
ATOM      1  N   UNL     1       5.586  11.709  24.759  0.00  0.00    +0.000 N 
ATOM      2  C   UNL     1       6.650  11.942  23.903  0.00  0.00    +0.000 A 
ATOM      3  N   UNL     1       7.700  11.139  23.855  0.00  0.00    +0.000 NA
ATOM      4  C   UNL     1       8.632  11.435  22.928  0.00  0.00    +0.000 A 
ATOM      5  C   UNL     1       8.582  12.506  22.048  0.00  0.00    +0.000 A 
ATOM      6  C   UNL     1       9.603  12.769  21.020  0.00  0.00    +0.000 A 
ATOM      7  C   UNL     1      10.823  11.881  20.897  0.00  0.00    +0.000 C 
ATOM      8  C   UNL     1       9.402  13.814  20.190  0.00  0.00    +0.000 A 
ATOM      9  C   UNL     1       8.214  14.728  20.338  0.00  0.00    +0.000 A 
ATOM     10  O   UNL     1       8.127  15.668  19.548  0.00  0.00    +0.000 OA
ATOM     11  N   UNL     1       7.275  14.464  21.345  0.00  0.00    +0.000 N 
ATOM     12  C   UNL     1       7.461  13.310  22.193  0.00  0.00    +0.000 A 
ATOM     13  N   UNL     1       6.527  13.013  23.117  0.00  0.00    +0.000 NA
ATOM     14  H   UNL     1       5.082  12.586  24.821  0.00  0.00    +0.000 HD
ENDROOT
BRANCH  11  15
ATOM     15  C   UNL     1       6.069  15.396  21.481  0.00  0.00    +0.000 C 
ATOM     16  C   UNL     1       5.355  15.573  20.100  0.00  0.00    +0.000 C 
ATOM     17  C   UNL     1       4.174  16.561  20.184  0.00  0.00    +0.000 C 
ATOM     18  C   UNL     1       3.135  16.038  21.183  0.00  0.00    +0.000 C 
ATOM     19  C   UNL     1       3.773  15.923  22.570  0.00  0.00    +0.000 C 
ATOM     20  C   UNL     1       4.291  17.283  23.041  0.00  0.00    +0.000 C 
ATOM     21  C   UNL     1       5.335  17.802  22.046  0.00  0.00    +0.000 C 
ATOM     22  C   UNL     1       4.682  17.932  20.661  0.00  0.00    +0.000 C 
ATOM     23  C   UNL     1       6.519  16.815  21.973  0.00  0.00    +0.000 C 
ATOM     24  C   UNL     1       4.951  14.946  22.484  0.00  0.00    +0.000 C 
ENDBRANCH  11  15
BRANCH   8  25
ATOM     25  C   UNL     1      10.347  14.094  19.078  0.00  0.00    +0.000 A 
ATOM     26  C   UNL     1      11.386  15.017  19.297  0.00  0.00    +0.000 A 
ATOM     27  C   UNL     1      12.305  15.311  18.284  0.00  0.00    +0.000 A 
ATOM     28  C   UNL     1      12.199  14.689  17.044  0.00  0.00    +0.000 A 
ATOM     29  C   UNL     1      11.171  13.775  16.809  0.00  0.00    +0.000 A 
ATOM     30  C   UNL     1      10.247  13.479  17.818  0.00  0.00    +0.000 A 
ATOM     31 CL   UNL     1       8.979  12.363  17.449  0.00  0.00    +0.000 Cl
ENDBRANCH   8  25
BRANCH   1  32
ATOM     32  C   UNL     1       5.851  11.028  26.022  0.00  0.00    +0.000 C 
ATOM     33  C   UNL     1       4.574  10.385  26.570  0.00  0.00    +0.000 C 
BRANCH  32  35
ATOM     34  C   UNL     1       7.036  11.416  28.298  0.00  0.00    +0.000 C 
ATOM     35  C   UNL     1       6.442  12.034  27.037  0.00  0.00    +0.000 C 
ENDBRANCH  32  35
ENDBRANCH   1  32
TORSDOF 4
ENDMDL
