MODEL 1
REMARK VINA RESULT:      -6.6      0.000      0.000
REMARK  Name = 
REMARK  5 active torsions:
REMARK  status: ('A' for Active; 'I' for Inactive)
REMARK    1  A    between atoms: C_2  and  C_3
REMARK    2  A    between atoms: C_3  and  N_4
REMARK    3  A    between atoms: C_5  and  C_6
REMARK    4  A    between atoms: C_14  and  C_15
REMARK    5  A    between atoms: N_26  and  C_27
REMARK                            x       y       z     vdW  Elec       q    Type
REMARK                         _______ _______ _______ _____ _____    ______ ____
ROOT
ATOM      1  N   UNL     1       7.397  14.862  21.719  0.00  0.00    +0.000 N 
ATOM      2  C   UNL     1       7.240  15.745  20.639  0.00  0.00    +0.000 C 
ATOM      3  C   UNL     1       6.056  16.319  20.342  0.00  0.00    +0.000 C 
ATOM      4  C   UNL     1       4.807  16.036  21.159  0.00  0.00    +0.000 C 
ATOM      5  N   UNL     1       5.093  15.111  22.250  0.00  0.00    +0.000 N 
ATOM      6  N   UNL     1       4.212  14.772  23.203  0.00  0.00    +0.000 NA
ATOM      7  N   UNL     1       4.886  13.956  24.004  0.00  0.00    +0.000 NA
ATOM      8  N   UNL     1       6.196  13.819  23.591  0.00  0.00    +0.000 NA
ATOM      9  C   UNL     1       6.323  14.563  22.514  0.00  0.00    +0.000 A 
ENDROOT
BRANCH   2  10
ATOM     10  C   UNL     1       8.392  16.073  19.785  0.00  0.00    +0.000 A 
ATOM     11  C   UNL     1       9.317  17.042  20.198  0.00  0.00    +0.000 A 
ATOM     12  C   UNL     1      10.435  17.327  19.409  0.00  0.00    +0.000 A 
ATOM     13  C   UNL     1      10.624  16.656  18.203  0.00  0.00    +0.000 A 
ATOM     14 CL   UNL     1      12.006  17.002  17.240  0.00  0.00    +0.000 Cl
ATOM     15  C   UNL     1       9.700  15.705  17.773  0.00  0.00    +0.000 A 
ATOM     16  C   UNL     1       8.582  15.421  18.559  0.00  0.00    +0.000 A 
ENDBRANCH   2  10
BRANCH   4  17
ATOM     17  C   UNL     1       3.675  15.519  20.285  0.00  0.00    +0.000 A 
ATOM     18  C   UNL     1       2.494  16.263  20.105  0.00  0.00    +0.000 A 
ATOM     19  C   UNL     1       1.457  15.772  19.313  0.00  0.00    +0.000 A 
ATOM     20  C   UNL     1       1.580  14.531  18.692  0.00  0.00    +0.000 A 
ATOM     21  C   UNL     1       2.744  13.784  18.856  0.00  0.00    +0.000 A 
ATOM     22  C   UNL     1       3.786  14.273  19.646  0.00  0.00    +0.000 A 
ENDBRANCH   4  17
BRANCH   1  23
ATOM     23  C   UNL     1       8.720  14.394  22.226  0.00  0.00    +0.000 C 
BRANCH  23  25
ATOM     24  O   UNL     1       8.478  11.989  22.219  0.00  0.00    +0.000 OA
ATOM     25  C   UNL     1       9.086  12.968  21.793  0.00  0.00    +0.000 C 
ATOM     26  N   UNL     1      10.119  12.876  20.891  0.00  0.00    +0.000 N 
ATOM     27  H   UNL     1      10.547  13.756  20.631  0.00  0.00    +0.000 HD
BRANCH  26  28
ATOM     28  C   UNL     1      10.637  11.636  20.324  0.00  0.00    +0.000 C 
ATOM     29  C   UNL     1       9.739  11.065  19.218  0.00  0.00    +0.000 C 
ATOM     30  C   UNL     1       9.637  12.024  18.034  0.00  0.00    +0.000 C 
ATOM     31  C   UNL     1      11.014  12.368  17.472  0.00  0.00    +0.000 C 
ATOM     32  C   UNL     1      11.994  12.837  18.544  0.00  0.00    +0.000 C 
ATOM     33  C   UNL     1      12.038  11.889  19.750  0.00  0.00    +0.000 C 
ENDBRANCH  26  28
ENDBRANCH  23  25
ENDBRANCH   1  23
TORSDOF 5
ENDMDL
MODEL 2
REMARK VINA RESULT:      -6.6      3.234      7.272
REMARK  Name = 
REMARK  5 active torsions:
REMARK  status: ('A' for Active; 'I' for Inactive)
REMARK    1  A    between atoms: C_2  and  C_3
REMARK    2  A    between atoms: C_3  and  N_4
REMARK    3  A    between atoms: C_5  and  C_6
REMARK    4  A    between atoms: C_14  and  C_15
REMARK    5  A    between atoms: N_26  and  C_27
REMARK                            x       y       z     vdW  Elec       q    Type
REMARK                         _______ _______ _______ _____ _____    ______ ____
ROOT
ATOM      1  N   UNL     1       7.272  14.815  21.862  0.00  0.00    +0.000 N 
ATOM      2  C   UNL     1       8.095  13.837  22.443  0.00  0.00    +0.000 C 
ATOM      3  C   UNL     1       9.320  13.545  21.960  0.00  0.00    +0.000 C 
ATOM      4  C   UNL     1       9.886  14.255  20.742  0.00  0.00    +0.000 C 
ATOM      5  N   UNL     1       8.946  15.245  20.230  0.00  0.00    +0.000 N 
ATOM      6  N   UNL     1       9.221  16.105  19.237  0.00  0.00    +0.000 NA
ATOM      7  N   UNL     1       8.122  16.841  19.120  0.00  0.00    +0.000 NA
ATOM      8  N   UNL     1       7.180  16.486  20.063  0.00  0.00    +0.000 NA
ATOM      9  C   UNL     1       7.711  15.511  20.767  0.00  0.00    +0.000 A 
ENDROOT
BRANCH   2  10
ATOM     10  C   UNL     1       7.629  13.091  23.621  0.00  0.00    +0.000 A 
ATOM     11  C   UNL     1       8.074  13.450  24.900  0.00  0.00    +0.000 A 
ATOM     12  C   UNL     1       7.601  12.770  26.027  0.00  0.00    +0.000 A 
ATOM     13  C   UNL     1       6.696  11.723  25.876  0.00  0.00    +0.000 A 
ATOM     14 CL   UNL     1       6.109  10.894  27.263  0.00  0.00    +0.000 Cl
ATOM     15  C   UNL     1       6.262  11.342  24.607  0.00  0.00    +0.000 A 
ATOM     16  C   UNL     1       6.735  12.019  23.482  0.00  0.00    +0.000 A 
ENDBRANCH   2  10
BRANCH   4  17
ATOM     17  C   UNL     1      10.287  13.267  19.657  0.00  0.00    +0.000 A 
ATOM     18  C   UNL     1      11.550  13.335  19.039  0.00  0.00    +0.000 A 
ATOM     19  C   UNL     1      11.900  12.433  18.035  0.00  0.00    +0.000 A 
ATOM     20  C   UNL     1      10.997  11.453  17.631  0.00  0.00    +0.000 A 
ATOM     21  C   UNL     1       9.745  11.369  18.236  0.00  0.00    +0.000 A 
ATOM     22  C   UNL     1       9.390  12.269  19.243  0.00  0.00    +0.000 A 
ENDBRANCH   4  17
BRANCH   1  23
ATOM     23  C   UNL     1       6.024  15.335  22.494  0.00  0.00    +0.000 C 
BRANCH  23  25
ATOM     24  O   UNL     1       3.984  14.048  22.663  0.00  0.00    +0.000 OA
ATOM     25  C   UNL     1       4.737  14.705  21.945  0.00  0.00    +0.000 C 
ATOM     26  N   UNL     1       4.488  14.944  20.615  0.00  0.00    +0.000 N 
ATOM     27  H   UNL     1       5.193  15.485  20.132  0.00  0.00    +0.000 HD
BRANCH  26  28
ATOM     28  C   UNL     1       3.326  14.464  19.875  0.00  0.00    +0.000 C 
ATOM     29  C   UNL     1       2.165  15.468  19.868  0.00  0.00    +0.000 C 
ATOM     30  C   UNL     1       2.560  16.771  19.176  0.00  0.00    +0.000 C 
ATOM     31  C   UNL     1       3.050  16.521  17.752  0.00  0.00    +0.000 C 
ATOM     32  C   UNL     1       4.131  15.446  17.674  0.00  0.00    +0.000 C 
ATOM     33  C   UNL     1       3.738  14.167  18.426  0.00  0.00    +0.000 C 
ENDBRANCH  26  28
ENDBRANCH  23  25
ENDBRANCH   1  23
TORSDOF 5
ENDMDL
MODEL 3
REMARK VINA RESULT:      -6.6      5.772      9.358
REMARK  Name = 
REMARK  5 active torsions:
REMARK  status: ('A' for Active; 'I' for Inactive)
REMARK    1  A    between atoms: C_2  and  C_3
REMARK    2  A    between atoms: C_3  and  N_4
REMARK    3  A    between atoms: C_5  and  C_6
REMARK    4  A    between atoms: C_14  and  C_15
REMARK    5  A    between atoms: N_26  and  C_27
REMARK                            x       y       z     vdW  Elec       q    Type
REMARK                         _______ _______ _______ _____ _____    ______ ____
ROOT
ATOM      1  N   UNL     1       0.231  13.144  18.778  0.00  0.00    +0.000 N 
ATOM      2  C   UNL     1       1.594  12.824  18.678  0.00  0.00    +0.000 C 
ATOM      3  C   UNL     1       2.023  11.583  18.370  0.00  0.00    +0.000 C 
ATOM      4  C   UNL     1       1.049  10.443  18.120  0.00  0.00    +0.000 C 
ATOM      5  N   UNL     1      -0.331  10.896  18.249  0.00  0.00    +0.000 N 
ATOM      6  N   UNL     1      -1.403  10.140  17.969  0.00  0.00    +0.000 NA
ATOM      7  N   UNL     1      -2.440  10.942  18.180  0.00  0.00    +0.000 NA
ATOM      8  N   UNL     1      -2.028  12.208  18.541  0.00  0.00    +0.000 NA
ATOM      9  C   UNL     1      -0.714  12.178  18.555  0.00  0.00    +0.000 A 
ENDROOT
BRANCH   2  10
ATOM     10  C   UNL     1       2.611  13.860  18.912  0.00  0.00    +0.000 A 
ATOM     11  C   UNL     1       3.141  14.045  20.196  0.00  0.00    +0.000 A 
ATOM     12  C   UNL     1       4.137  15.001  20.415  0.00  0.00    +0.000 A 
ATOM     13  C   UNL     1       4.594  15.782  19.357  0.00  0.00    +0.000 A 
ATOM     14 CL   UNL     1       5.826  16.951  19.627  0.00  0.00    +0.000 Cl
ATOM     15  C   UNL     1       4.060  15.622  18.080  0.00  0.00    +0.000 A 
ATOM     16  C   UNL     1       3.064  14.669  17.860  0.00  0.00    +0.000 A 
ENDBRANCH   2  10
BRANCH   4  17
ATOM     17  C   UNL     1       1.326   9.262  19.037  0.00  0.00    +0.000 A 
ATOM     18  C   UNL     1       0.862   9.245  20.366  0.00  0.00    +0.000 A 
ATOM     19  C   UNL     1       1.135   8.163  21.201  0.00  0.00    +0.000 A 
ATOM     20  C   UNL     1       1.876   7.084  20.726  0.00  0.00    +0.000 A 
ATOM     21  C   UNL     1       2.339   7.082  19.412  0.00  0.00    +0.000 A 
ATOM     22  C   UNL     1       2.067   8.163  18.571  0.00  0.00    +0.000 A 
ENDBRANCH   4  17
BRANCH   1  23
ATOM     23  C   UNL     1      -0.291  14.539  18.879  0.00  0.00    +0.000 C 
BRANCH  23  25
ATOM     24  O   UNL     1       0.187  15.890  20.825  0.00  0.00    +0.000 OA
ATOM     25  C   UNL     1      -0.516  15.019  20.319  0.00  0.00    +0.000 C 
ATOM     26  N   UNL     1      -1.562  14.419  20.980  0.00  0.00    +0.000 N 
ATOM     27  H   UNL     1      -2.053  13.706  20.457  0.00  0.00    +0.000 HD
BRANCH  26  28
ATOM     28  C   UNL     1      -1.978  14.717  22.346  0.00  0.00    +0.000 C 
ATOM     29  C   UNL     1      -3.467  14.434  22.591  0.00  0.00    +0.000 C 
ATOM     30  C   UNL     1      -3.792  12.954  22.396  0.00  0.00    +0.000 C 
ATOM     31  C   UNL     1      -2.931  12.070  23.293  0.00  0.00    +0.000 C 
ATOM     32  C   UNL     1      -1.440  12.379  23.182  0.00  0.00    +0.000 C 
ATOM     33  C   UNL     1      -1.142  13.877  23.322  0.00  0.00    +0.000 C 
ENDBRANCH  26  28
ENDBRANCH  23  25
ENDBRANCH   1  23
TORSDOF 5
ENDMDL
MODEL 4
REMARK VINA RESULT:      -6.6      3.228      7.387
REMARK  Name = 
REMARK  5 active torsions:
REMARK  status: ('A' for Active; 'I' for Inactive)
REMARK    1  A    between atoms: C_2  and  C_3
REMARK    2  A    between atoms: C_3  and  N_4
REMARK    3  A    between atoms: C_5  and  C_6
REMARK    4  A    between atoms: C_14  and  C_15
REMARK    5  A    between atoms: N_26  and  C_27
REMARK                            x       y       z     vdW  Elec       q    Type
REMARK                         _______ _______ _______ _____ _____    ______ ____
ROOT
ATOM      1  N   UNL     1       6.952  14.758  21.640  0.00  0.00    +0.000 N 
ATOM      2  C   UNL     1       7.860  13.905  22.288  0.00  0.00    +0.000 C 
ATOM      3  C   UNL     1       9.116  13.712  21.837  0.00  0.00    +0.000 C 
ATOM      4  C   UNL     1       9.628  14.404  20.586  0.00  0.00    +0.000 C 
ATOM      5  N   UNL     1       8.602  15.262  20.005  0.00  0.00    +0.000 N 
ATOM      6  N   UNL     1       8.805  16.086  18.965  0.00  0.00    +0.000 NA
ATOM      7  N   UNL     1       7.641  16.698  18.793  0.00  0.00    +0.000 NA
ATOM      8  N   UNL     1       6.723  16.304  19.744  0.00  0.00    +0.000 NA
ATOM      9  C   UNL     1       7.338  15.431  20.511  0.00  0.00    +0.000 A 
ENDROOT
BRANCH   2  10
ATOM     10  C   UNL     1       7.450  13.185  23.503  0.00  0.00    +0.000 A 
ATOM     11  C   UNL     1       6.635  12.049  23.403  0.00  0.00    +0.000 A 
ATOM     12  C   UNL     1       6.277  11.337  24.552  0.00  0.00    +0.000 A 
ATOM     13  C   UNL     1       6.720  11.766  25.800  0.00  0.00    +0.000 A 
ATOM     14 CL   UNL     1       6.286  10.883  27.211  0.00  0.00    +0.000 Cl
ATOM     15  C   UNL     1       7.514  12.906  25.914  0.00  0.00    +0.000 A 
ATOM     16  C   UNL     1       7.871  13.618  24.768  0.00  0.00    +0.000 A 
ENDBRANCH   2  10
BRANCH   4  17
ATOM     17  C   UNL     1      10.146  13.401  19.566  0.00  0.00    +0.000 A 
ATOM     18  C   UNL     1       9.351  12.322  19.137  0.00  0.00    +0.000 A 
ATOM     19  C   UNL     1       9.842  11.400  18.213  0.00  0.00    +0.000 A 
ATOM     20  C   UNL     1      11.132  11.540  17.705  0.00  0.00    +0.000 A 
ATOM     21  C   UNL     1      11.929  12.606  18.116  0.00  0.00    +0.000 A 
ATOM     22  C   UNL     1      11.442  13.532  19.040  0.00  0.00    +0.000 A 
ENDBRANCH   4  17
BRANCH   1  23
ATOM     23  C   UNL     1       5.647  15.184  22.225  0.00  0.00    +0.000 C 
BRANCH  23  25
ATOM     24  O   UNL     1       3.918  13.508  22.014  0.00  0.00    +0.000 OA
ATOM     25  C   UNL     1       4.424  14.534  21.564  0.00  0.00    +0.000 C 
ATOM     26  N   UNL     1       3.938  15.190  20.459  0.00  0.00    +0.000 N 
ATOM     27  H   UNL     1       4.454  16.015  20.182  0.00  0.00    +0.000 HD
BRANCH  26  28
ATOM     28  C   UNL     1       2.781  14.775  19.673  0.00  0.00    +0.000 C 
ATOM     29  C   UNL     1       1.731  15.885  19.522  0.00  0.00    +0.000 C 
ATOM     30  C   UNL     1       2.299  17.091  18.778  0.00  0.00    +0.000 C 
ATOM     31  C   UNL     1       2.849  16.695  17.410  0.00  0.00    +0.000 C 
ATOM     32  C   UNL     1       3.817  15.517  17.475  0.00  0.00    +0.000 C 
ATOM     33  C   UNL     1       3.250  14.338  18.277  0.00  0.00    +0.000 C 
ENDBRANCH  26  28
ENDBRANCH  23  25
ENDBRANCH   1  23
TORSDOF 5
ENDMDL
MODEL 5
REMARK VINA RESULT:      -6.5      8.518     10.159
REMARK  Name = 
REMARK  5 active torsions:
REMARK  status: ('A' for Active; 'I' for Inactive)
REMARK    1  A    between atoms: C_2  and  C_3
REMARK    2  A    between atoms: C_3  and  N_4
REMARK    3  A    between atoms: C_5  and  C_6
REMARK    4  A    between atoms: C_14  and  C_15
REMARK    5  A    between atoms: N_26  and  C_27
REMARK                            x       y       z     vdW  Elec       q    Type
REMARK                         _______ _______ _______ _____ _____    ______ ____
ROOT
ATOM      1  N   UNL     1       1.778   7.828  20.090  0.00  0.00    +0.000 N 
ATOM      2  C   UNL     1       2.076   8.144  18.755  0.00  0.00    +0.000 C 
ATOM      3  C   UNL     1       1.591   9.247  18.150  0.00  0.00    +0.000 C 
ATOM      4  C   UNL     1       0.679  10.220  18.878  0.00  0.00    +0.000 C 
ATOM      5  N   UNL     1       0.444   9.789  20.251  0.00  0.00    +0.000 N 
ATOM      6  N   UNL     1      -0.225  10.509  21.165  0.00  0.00    +0.000 NA
ATOM      7  N   UNL     1      -0.168   9.777  22.271  0.00  0.00    +0.000 NA
ATOM      8  N   UNL     1       0.572   8.629  22.075  0.00  0.00    +0.000 NA
ATOM      9  C   UNL     1       0.972   8.658  20.823  0.00  0.00    +0.000 A 
ENDROOT
BRANCH   2  10
ATOM     10  C   UNL     1       2.945   7.257  17.968  0.00  0.00    +0.000 A 
ATOM     11  C   UNL     1       4.082   7.774  17.332  0.00  0.00    +0.000 A 
ATOM     12  C   UNL     1       4.933   6.927  16.615  0.00  0.00    +0.000 A 
ATOM     13  C   UNL     1       4.643   5.568  16.522  0.00  0.00    +0.000 A 
ATOM     14 CL   UNL     1       5.697   4.528  15.649  0.00  0.00    +0.000 Cl
ATOM     15  C   UNL     1       3.504   5.047  17.133  0.00  0.00    +0.000 A 
ATOM     16  C   UNL     1       2.653   5.892  17.847  0.00  0.00    +0.000 A 
ENDBRANCH   2  10
BRANCH   4  17
ATOM     17  C   UNL     1      -0.633  10.416  18.134  0.00  0.00    +0.000 A 
ATOM     18  C   UNL     1      -1.098   9.461  17.210  0.00  0.00    +0.000 A 
ATOM     19  C   UNL     1      -2.295   9.659  16.523  0.00  0.00    +0.000 A 
ATOM     20  C   UNL     1      -3.044  10.812  16.744  0.00  0.00    +0.000 A 
ATOM     21  C   UNL     1      -2.601  11.765  17.659  0.00  0.00    +0.000 A 
ATOM     22  C   UNL     1      -1.404  11.571  18.351  0.00  0.00    +0.000 A 
ENDBRANCH   4  17
BRANCH   1  23
ATOM     23  C   UNL     1       2.473   6.760  20.868  0.00  0.00    +0.000 C 
BRANCH  23  25
ATOM     24  O   UNL     1       0.528   5.341  20.649  0.00  0.00    +0.000 OA
ATOM     25  C   UNL     1       1.733   5.416  20.881  0.00  0.00    +0.000 C 
ATOM     26  N   UNL     1       2.515   4.318  21.152  0.00  0.00    +0.000 N 
ATOM     27  H   UNL     1       3.489   4.516  21.341  0.00  0.00    +0.000 HD
BRANCH  26  28
ATOM     28  C   UNL     1       2.043   2.939  21.206  0.00  0.00    +0.000 C 
ATOM     29  C   UNL     1       1.175   2.556  19.999  0.00  0.00    +0.000 C 
ATOM     30  C   UNL     1       1.964   2.650  18.694  0.00  0.00    +0.000 C 
ATOM     31  C   UNL     1       3.220   1.784  18.738  0.00  0.00    +0.000 C 
ATOM     32  C   UNL     1       4.075   2.035  19.977  0.00  0.00    +0.000 C 
ATOM     33  C   UNL     1       3.252   1.995  21.272  0.00  0.00    +0.000 C 
ENDBRANCH  26  28
ENDBRANCH  23  25
ENDBRANCH   1  23
TORSDOF 5
ENDMDL
MODEL 6
REMARK VINA RESULT:      -6.5      8.194     11.688
REMARK  Name = 
REMARK  5 active torsions:
REMARK  status: ('A' for Active; 'I' for Inactive)
REMARK    1  A    between atoms: C_2  and  C_3
REMARK    2  A    between atoms: C_3  and  N_4
REMARK    3  A    between atoms: C_5  and  C_6
REMARK    4  A    between atoms: C_14  and  C_15
REMARK    5  A    between atoms: N_26  and  C_27
REMARK                            x       y       z     vdW  Elec       q    Type
REMARK                         _______ _______ _______ _____ _____    ______ ____
ROOT
ATOM      1  N   UNL     1      -0.794  13.056  19.709  0.00  0.00    +0.000 N 
ATOM      2  C   UNL     1      -1.567  11.887  19.615  0.00  0.00    +0.000 C 
ATOM      3  C   UNL     1      -1.103  10.683  20.004  0.00  0.00    +0.000 C 
ATOM      4  C   UNL     1       0.300  10.512  20.564  0.00  0.00    +0.000 C 
ATOM      5  N   UNL     1       1.002  11.789  20.615  0.00  0.00    +0.000 N 
ATOM      6  N   UNL     1       2.210  11.966  21.171  0.00  0.00    +0.000 NA
ATOM      7  N   UNL     1       2.452  13.264  21.037  0.00  0.00    +0.000 NA
ATOM      8  N   UNL     1       1.386  13.913  20.449  0.00  0.00    +0.000 NA
ATOM      9  C   UNL     1       0.477  12.993  20.214  0.00  0.00    +0.000 A 
ENDROOT
BRANCH   2  10
ATOM     10  C   UNL     1      -2.934  11.952  19.078  0.00  0.00    +0.000 A 
ATOM     11  C   UNL     1      -3.990  12.374  19.897  0.00  0.00    +0.000 A 
ATOM     12  C   UNL     1      -5.285  12.476  19.378  0.00  0.00    +0.000 A 
ATOM     13  C   UNL     1      -5.528  12.146  18.048  0.00  0.00    +0.000 A 
ATOM     14 CL   UNL     1      -7.119  12.282  17.410  0.00  0.00    +0.000 Cl
ATOM     15  C   UNL     1      -4.489  11.706  17.229  0.00  0.00    +0.000 A 
ATOM     16  C   UNL     1      -3.197  11.602  17.746  0.00  0.00    +0.000 A 
ENDBRANCH   2  10
BRANCH   4  17
ATOM     17  C   UNL     1       1.093   9.482  19.776  0.00  0.00    +0.000 A 
ATOM     18  C   UNL     1       1.409   9.686  18.419  0.00  0.00    +0.000 A 
ATOM     19  C   UNL     1       2.125   8.727  17.703  0.00  0.00    +0.000 A 
ATOM     20  C   UNL     1       2.533   7.551  18.327  0.00  0.00    +0.000 A 
ATOM     21  C   UNL     1       2.233   7.335  19.670  0.00  0.00    +0.000 A 
ATOM     22  C   UNL     1       1.518   8.293  20.392  0.00  0.00    +0.000 A 
ENDBRANCH   4  17
BRANCH   1  23
ATOM     23  C   UNL     1      -1.340  14.432  19.517  0.00  0.00    +0.000 C 
BRANCH  23  25
ATOM     24  O   UNL     1      -1.296  16.324  21.022  0.00  0.00    +0.000 OA
ATOM     25  C   UNL     1      -1.658  15.165  20.827  0.00  0.00    +0.000 C 
ATOM     26  N   UNL     1      -2.385  14.442  21.742  0.00  0.00    +0.000 N 
ATOM     27  H   UNL     1      -2.607  13.494  21.467  0.00  0.00    +0.000 HD
BRANCH  26  28
ATOM     28  C   UNL     1      -2.819  14.927  23.048  0.00  0.00    +0.000 C 
ATOM     29  C   UNL     1      -4.248  15.487  23.033  0.00  0.00    +0.000 C 
ATOM     30  C   UNL     1      -5.264  14.410  22.657  0.00  0.00    +0.000 C 
ATOM     31  C   UNL     1      -5.177  13.209  23.595  0.00  0.00    +0.000 C 
ATOM     32  C   UNL     1      -3.756  12.671  23.744  0.00  0.00    +0.000 C 
ATOM     33  C   UNL     1      -2.743  13.778  24.063  0.00  0.00    +0.000 C 
ENDBRANCH  26  28
ENDBRANCH  23  25
ENDBRANCH   1  23
TORSDOF 5
ENDMDL
MODEL 7
REMARK VINA RESULT:      -6.5      5.657      9.408
REMARK  Name = 
REMARK  5 active torsions:
REMARK  status: ('A' for Active; 'I' for Inactive)
REMARK    1  A    between atoms: C_2  and  C_3
REMARK    2  A    between atoms: C_3  and  N_4
REMARK    3  A    between atoms: C_5  and  C_6
REMARK    4  A    between atoms: C_14  and  C_15
REMARK    5  A    between atoms: N_26  and  C_27
REMARK                            x       y       z     vdW  Elec       q    Type
REMARK                         _______ _______ _______ _____ _____    ______ ____
ROOT
ATOM      1  N   UNL     1       0.331  13.232  18.946  0.00  0.00    +0.000 N 
ATOM      2  C   UNL     1       1.669  12.904  18.679  0.00  0.00    +0.000 C 
ATOM      3  C   UNL     1       2.043  11.676  18.267  0.00  0.00    +0.000 C 
ATOM      4  C   UNL     1       1.032  10.559  18.074  0.00  0.00    +0.000 C 
ATOM      5  N   UNL     1      -0.319  11.017  18.378  0.00  0.00    +0.000 N 
ATOM      6  N   UNL     1      -1.427  10.285  18.184  0.00  0.00    +0.000 NA
ATOM      7  N   UNL     1      -2.422  11.085  18.547  0.00  0.00    +0.000 NA
ATOM      8  N   UNL     1      -1.954  12.328  18.920  0.00  0.00    +0.000 NA
ATOM      9  C   UNL     1      -0.647  12.286  18.785  0.00  0.00    +0.000 A 
ENDROOT
BRANCH   2  10
ATOM     10  C   UNL     1       2.721  13.919  18.847  0.00  0.00    +0.000 A 
ATOM     11  C   UNL     1       3.065  14.754  17.776  0.00  0.00    +0.000 A 
ATOM     12  C   UNL     1       4.036  15.747  17.943  0.00  0.00    +0.000 A 
ATOM     13  C   UNL     1       4.671  15.898  19.173  0.00  0.00    +0.000 A 
ATOM     14 CL   UNL     1       5.856  17.126  19.378  0.00  0.00    +0.000 Cl
ATOM     15  C   UNL     1       4.351  15.059  20.239  0.00  0.00    +0.000 A 
ATOM     16  C   UNL     1       3.384  14.066  20.073  0.00  0.00    +0.000 A 
ENDBRANCH   2  10
BRANCH   4  17
ATOM     17  C   UNL     1       1.392   9.331  18.897  0.00  0.00    +0.000 A 
ATOM     18  C   UNL     1       2.114   8.262  18.334  0.00  0.00    +0.000 A 
ATOM     19  C   UNL     1       2.426   7.136  19.095  0.00  0.00    +0.000 A 
ATOM     20  C   UNL     1       2.021   7.058  20.425  0.00  0.00    +0.000 A 
ATOM     21  C   UNL     1       1.310   8.110  20.998  0.00  0.00    +0.000 A 
ATOM     22  C   UNL     1       0.997   9.241  20.242  0.00  0.00    +0.000 A 
ENDBRANCH   4  17
BRANCH   1  23
ATOM     23  C   UNL     1      -0.157  14.624  19.171  0.00  0.00    +0.000 C 
BRANCH  23  25
ATOM     24  O   UNL     1       0.514  15.618  21.271  0.00  0.00    +0.000 OA
ATOM     25  C   UNL     1      -0.342  14.990  20.650  0.00  0.00    +0.000 C 
ATOM     26  N   UNL     1      -1.528  14.583  21.211  0.00  0.00    +0.000 N 
ATOM     27  H   UNL     1      -2.141  14.060  20.598  0.00  0.00    +0.000 HD
BRANCH  26  28
ATOM     28  C   UNL     1      -1.937  14.824  22.590  0.00  0.00    +0.000 C 
ATOM     29  C   UNL     1      -3.461  14.908  22.756  0.00  0.00    +0.000 C 
ATOM     30  C   UNL     1      -4.136  13.594  22.372  0.00  0.00    +0.000 C 
ATOM     31  C   UNL     1      -3.581  12.424  23.179  0.00  0.00    +0.000 C 
ATOM     32  C   UNL     1      -2.056  12.348  23.149  0.00  0.00    +0.000 C 
ATOM     33  C   UNL     1      -1.399  13.695  23.481  0.00  0.00    +0.000 C 
ENDBRANCH  26  28
ENDBRANCH  23  25
ENDBRANCH   1  23
TORSDOF 5
ENDMDL
MODEL 8
REMARK VINA RESULT:      -6.3      9.006     11.839
REMARK  Name = 
REMARK  5 active torsions:
REMARK  status: ('A' for Active; 'I' for Inactive)
REMARK    1  A    between atoms: C_2  and  C_3
REMARK    2  A    between atoms: C_3  and  N_4
REMARK    3  A    between atoms: C_5  and  C_6
REMARK    4  A    between atoms: C_14  and  C_15
REMARK    5  A    between atoms: N_26  and  C_27
REMARK                            x       y       z     vdW  Elec       q    Type
REMARK                         _______ _______ _______ _____ _____    ______ ____
ROOT
ATOM      1  N   UNL     1      -2.496  12.576  19.644  0.00  0.00    +0.000 N 
ATOM      2  C   UNL     1      -1.189  12.976  19.962  0.00  0.00    +0.000 C 
ATOM      3  C   UNL     1      -0.102  12.356  19.461  0.00  0.00    +0.000 C 
ATOM      4  C   UNL     1      -0.225  11.169  18.520  0.00  0.00    +0.000 C 
ATOM      5  N   UNL     1      -1.624  10.849  18.262  0.00  0.00    +0.000 N 
ATOM      6  N   UNL     1      -2.038   9.927  17.380  0.00  0.00    +0.000 NA
ATOM      7  N   UNL     1      -3.363   9.987  17.431  0.00  0.00    +0.000 NA
ATOM      8  N   UNL     1      -3.785  10.972  18.300  0.00  0.00    +0.000 NA
ATOM      9  C   UNL     1      -2.696  11.522  18.792  0.00  0.00    +0.000 A 
ENDROOT
BRANCH   2  10
ATOM     10  C   UNL     1      -0.971  14.110  20.873  0.00  0.00    +0.000 A 
ATOM     11  C   UNL     1      -1.137  15.423  20.410  0.00  0.00    +0.000 A 
ATOM     12  C   UNL     1      -0.970  16.503  21.282  0.00  0.00    +0.000 A 
ATOM     13  C   UNL     1      -0.625  16.274  22.612  0.00  0.00    +0.000 A 
ATOM     14 CL   UNL     1      -0.429  17.604  23.684  0.00  0.00    +0.000 Cl
ATOM     15  C   UNL     1      -0.436  14.975  23.078  0.00  0.00    +0.000 A 
ATOM     16  C   UNL     1      -0.600  13.896  22.208  0.00  0.00    +0.000 A 
ENDBRANCH   2  10
BRANCH   4  17
ATOM     17  C   UNL     1       0.526   9.958  19.050  0.00  0.00    +0.000 A 
ATOM     18  C   UNL     1       0.382   9.536  20.385  0.00  0.00    +0.000 A 
ATOM     19  C   UNL     1       1.087   8.432  20.863  0.00  0.00    +0.000 A 
ATOM     20  C   UNL     1       1.947   7.735  20.020  0.00  0.00    +0.000 A 
ATOM     21  C   UNL     1       2.098   8.136  18.694  0.00  0.00    +0.000 A 
ATOM     22  C   UNL     1       1.393   9.239  18.210  0.00  0.00    +0.000 A 
ENDBRANCH   4  17
BRANCH   1  23
ATOM     23  C   UNL     1      -3.715  13.369  19.978  0.00  0.00    +0.000 C 
BRANCH  23  25
ATOM     24  O   UNL     1      -5.043  11.970  21.437  0.00  0.00    +0.000 OA
ATOM     25  C   UNL     1      -4.361  12.987  21.317  0.00  0.00    +0.000 C 
ATOM     26  N   UNL     1      -4.106  13.847  22.358  0.00  0.00    +0.000 N 
ATOM     27  H   UNL     1      -3.544  14.655  22.125  0.00  0.00    +0.000 HD
BRANCH  26  28
ATOM     28  C   UNL     1      -4.597  13.689  23.723  0.00  0.00    +0.000 C 
ATOM     29  C   UNL     1      -3.714  14.396  24.761  0.00  0.00    +0.000 C 
ATOM     30  C   UNL     1      -3.681  15.905  24.528  0.00  0.00    +0.000 C 
ATOM     31  C   UNL     1      -5.085  16.502  24.535  0.00  0.00    +0.000 C 
ATOM     32  C   UNL     1      -6.049  15.770  23.605  0.00  0.00    +0.000 C 
ATOM     33  C   UNL     1      -6.023  14.250  23.815  0.00  0.00    +0.000 C 
ENDBRANCH  26  28
ENDBRANCH  23  25
ENDBRANCH   1  23
TORSDOF 5
ENDMDL
MODEL 9
REMARK VINA RESULT:      -6.3      8.171     11.757
REMARK  Name = 
REMARK  5 active torsions:
REMARK  status: ('A' for Active; 'I' for Inactive)
REMARK    1  A    between atoms: C_2  and  C_3
REMARK    2  A    between atoms: C_3  and  N_4
REMARK    3  A    between atoms: C_5  and  C_6
REMARK    4  A    between atoms: C_14  and  C_15
REMARK    5  A    between atoms: N_26  and  C_27
REMARK                            x       y       z     vdW  Elec       q    Type
REMARK                         _______ _______ _______ _____ _____    ______ ____
ROOT
ATOM      1  N   UNL     1      -0.795  13.094  19.836  0.00  0.00    +0.000 N 
ATOM      2  C   UNL     1      -1.579  11.934  19.723  0.00  0.00    +0.000 C 
ATOM      3  C   UNL     1      -1.120  10.716  20.078  0.00  0.00    +0.000 C 
ATOM      4  C   UNL     1       0.286  10.521  20.617  0.00  0.00    +0.000 C 
ATOM      5  N   UNL     1       1.000  11.791  20.691  0.00  0.00    +0.000 N 
ATOM      6  N   UNL     1       2.216  11.944  21.237  0.00  0.00    +0.000 NA
ATOM      7  N   UNL     1       2.467  13.243  21.132  0.00  0.00    +0.000 NA
ATOM      8  N   UNL     1       1.401  13.915  20.571  0.00  0.00    +0.000 NA
ATOM      9  C   UNL     1       0.481  13.008  20.325  0.00  0.00    +0.000 A 
ENDROOT
BRANCH   2  10
ATOM     10  C   UNL     1      -2.951  12.023  19.203  0.00  0.00    +0.000 A 
ATOM     11  C   UNL     1      -3.219  11.685  17.869  0.00  0.00    +0.000 A 
ATOM     12  C   UNL     1      -4.528  11.730  17.381  0.00  0.00    +0.000 A 
ATOM     13  C   UNL     1      -5.568  12.124  18.219  0.00  0.00    +0.000 A 
ATOM     14 CL   UNL     1      -7.179  12.169  17.619  0.00  0.00    +0.000 Cl
ATOM     15  C   UNL     1      -5.311  12.483  19.541  0.00  0.00    +0.000 A 
ATOM     16  C   UNL     1      -4.004  12.441  20.029  0.00  0.00    +0.000 A 
ENDBRANCH   2  10
BRANCH   4  17
ATOM     17  C   UNL     1       1.062   9.503  19.795  0.00  0.00    +0.000 A 
ATOM     18  C   UNL     1       1.516   8.299  20.364  0.00  0.00    +0.000 A 
ATOM     19  C   UNL     1       2.239   7.380  19.604  0.00  0.00    +0.000 A 
ATOM     20  C   UNL     1       2.522   7.650  18.268  0.00  0.00    +0.000 A 
ATOM     21  C   UNL     1       2.076   8.835  17.688  0.00  0.00    +0.000 A 
ATOM     22  C   UNL     1       1.350   9.757  18.444  0.00  0.00    +0.000 A 
ENDBRANCH   4  17
BRANCH   1  23
ATOM     23  C   UNL     1      -1.331  14.478  19.684  0.00  0.00    +0.000 C 
BRANCH  23  25
ATOM     24  O   UNL     1      -0.849  16.082  21.427  0.00  0.00    +0.000 OA
ATOM     25  C   UNL     1      -1.594  15.196  21.014  0.00  0.00    +0.000 C 
ATOM     26  N   UNL     1      -2.721  14.788  21.688  0.00  0.00    +0.000 N 
ATOM     27  H   UNL     1      -3.240  14.038  21.249  0.00  0.00    +0.000 HD
BRANCH  26  28
ATOM     28  C   UNL     1      -3.185  15.328  22.961  0.00  0.00    +0.000 C 
ATOM     29  C   UNL     1      -4.703  15.556  22.995  0.00  0.00    +0.000 C 
ATOM     30  C   UNL     1      -5.467  14.244  22.824  0.00  0.00    +0.000 C 
ATOM     31  C   UNL     1      -5.062  13.220  23.881  0.00  0.00    +0.000 C 
ATOM     32  C   UNL     1      -3.551  13.029  23.978  0.00  0.00    +0.000 C 
ATOM     33  C   UNL     1      -2.800  14.362  24.090  0.00  0.00    +0.000 C 
ENDBRANCH  26  28
ENDBRANCH  23  25
ENDBRANCH   1  23
TORSDOF 5
ENDMDL
