MODEL 1
REMARK VINA RESULT:      -6.7      0.000      0.000
REMARK  Name = 
REMARK  11 active torsions:
REMARK  status: ('A' for Active; 'I' for Inactive)
REMARK    1  A    between atoms: C_1  and  O_2
REMARK    2  A    between atoms: O_2  and  C_3
REMARK    3  A    between atoms: C_7  and  N_8
REMARK    4  A    between atoms: C_9  and  C_11
REMARK    5  A    between atoms: C_11  and  N_12
REMARK    6  A    between atoms: N_12  and  C_13
REMARK    7  A    between atoms: N_12  and  C_14
REMARK    8  A    between atoms: C_14  and  C_15
REMARK    9  A    between atoms: C_14  and  C_16
REMARK   10  A    between atoms: N_18  and  C_19
REMARK   11  A    between atoms: C_22  and  C_23
REMARK                            x       y       z     vdW  Elec       q    Type
REMARK                         _______ _______ _______ _____ _____    ______ ____
ROOT
ATOM      1  N   UNL     1       1.778   3.364  19.326  0.00  0.00    +0.000 NA
ATOM      2  C   UNL     1       0.593   2.697  18.751  0.00  0.00    +0.000 C 
ENDROOT
BRANCH   1   3
ATOM      3  C   UNL     1       1.446   4.154  20.557  0.00  0.00    +0.000 C 
ATOM      4  C   UNL     1       2.177   3.612  21.797  0.00  0.00    +0.000 C 
BRANCH   3   5
ATOM      5  C   UNL     1       1.785   5.663  20.428  0.00  0.00    +0.000 C 
ATOM      6  O   UNL     1       2.857   6.021  19.940  0.00  0.00    +0.000 OA
ATOM      7  N   UNL     1       0.797   6.523  20.903  0.00  0.00    +0.000 N 
ATOM      8  H   UNL     1       0.053   6.120  21.453  0.00  0.00    +0.000 HD
BRANCH   7   9
ATOM      9  C   UNL     1       0.843   7.938  20.830  0.00  0.00    +0.000 A 
ATOM     10  C   UNL     1       1.064   8.628  19.634  0.00  0.00    +0.000 A 
ATOM     11  C   UNL     1       1.148  10.022  19.608  0.00  0.00    +0.000 A 
ATOM     12  C   UNL     1       0.993  10.759  20.786  0.00  0.00    +0.000 A 
ATOM     13  C   UNL     1       0.741  10.079  21.981  0.00  0.00    +0.000 A 
ATOM     14  C   UNL     1       0.655   8.678  22.001  0.00  0.00    +0.000 A 
BRANCH  12  15
ATOM     15  C   UNL     1       1.105  12.189  20.759  0.00  0.00    +0.000 C 
ATOM     16  N   UNL     1       1.201  13.349  20.730  0.00  0.00    +0.000 NA
ENDBRANCH  12  15
ENDBRANCH   7   9
ENDBRANCH   3   5
ENDBRANCH   1   3
BRANCH   1  17
ATOM     17  C   UNL     1       2.841   2.365  19.596  0.00  0.00    +0.000 C 
BRANCH  17  19
ATOM     18  N   UNL     1       4.266   4.017  18.494  0.00  0.00    +0.000 N 
ATOM     19  C   UNL     1       4.246   2.953  19.383  0.00  0.00    +0.000 C 
ATOM     20  O   UNL     1       5.211   2.473  19.971  0.00  0.00    +0.000 OA
ATOM     21  H   UNL     1       3.404   4.160  17.978  0.00  0.00    +0.000 HD
BRANCH  18  26
ATOM     22  C   UNL     1       6.920   5.322  16.259  0.00  0.00    +0.000 A 
ATOM     23  C   UNL     1       7.685   6.082  17.143  0.00  0.00    +0.000 A 
ATOM     24  C   UNL     1       7.322   6.174  18.482  0.00  0.00    +0.000 A 
ATOM     25  C   UNL     1       6.187   5.505  18.943  0.00  0.00    +0.000 A 
ATOM     26  C   UNL     1       5.407   4.739  18.073  0.00  0.00    +0.000 A 
ATOM     27  C   UNL     1       5.769   4.670  16.719  0.00  0.00    +0.000 A 
BRANCH  22  29
ATOM     28  C   UNL     1       6.654   4.494  14.058  0.00  0.00    +0.000 C 
ATOM     29  O   UNL     1       7.378   5.313  14.968  0.00  0.00    +0.000 OA
ENDBRANCH  22  29
ENDBRANCH  18  26
ENDBRANCH  17  19
ENDBRANCH   1  17
TORSDOF 8
ENDMDL
MODEL 2
REMARK VINA RESULT:      -6.6      0.946      1.598
REMARK  Name = 
REMARK  11 active torsions:
REMARK  status: ('A' for Active; 'I' for Inactive)
REMARK    1  A    between atoms: C_1  and  O_2
REMARK    2  A    between atoms: O_2  and  C_3
REMARK    3  A    between atoms: C_7  and  N_8
REMARK    4  A    between atoms: C_9  and  C_11
REMARK    5  A    between atoms: C_11  and  N_12
REMARK    6  A    between atoms: N_12  and  C_13
REMARK    7  A    between atoms: N_12  and  C_14
REMARK    8  A    between atoms: C_14  and  C_15
REMARK    9  A    between atoms: C_14  and  C_16
REMARK   10  A    between atoms: N_18  and  C_19
REMARK   11  A    between atoms: C_22  and  C_23
REMARK                            x       y       z     vdW  Elec       q    Type
REMARK                         _______ _______ _______ _____ _____    ______ ____
ROOT
ATOM      1  N   UNL     1       1.765   3.392  19.377  0.00  0.00    +0.000 NA
ATOM      2  C   UNL     1       0.590   2.628  18.914  0.00  0.00    +0.000 C 
ENDROOT
BRANCH   1   3
ATOM      3  C   UNL     1       1.468   4.205  20.603  0.00  0.00    +0.000 C 
ATOM      4  C   UNL     1       2.235   3.684  21.831  0.00  0.00    +0.000 C 
BRANCH   3   5
ATOM      5  C   UNL     1       1.802   5.710  20.437  0.00  0.00    +0.000 C 
ATOM      6  O   UNL     1       2.855   6.060  19.903  0.00  0.00    +0.000 OA
ATOM      7  N   UNL     1       0.834   6.579  20.936  0.00  0.00    +0.000 N 
ATOM      8  H   UNL     1       0.111   6.186  21.521  0.00  0.00    +0.000 HD
BRANCH   7   9
ATOM      9  C   UNL     1       0.878   7.992  20.839  0.00  0.00    +0.000 A 
ATOM     10  C   UNL     1       1.078   8.663  19.628  0.00  0.00    +0.000 A 
ATOM     11  C   UNL     1       1.160  10.056  19.577  0.00  0.00    +0.000 A 
ATOM     12  C   UNL     1       1.025  10.812  20.745  0.00  0.00    +0.000 A 
ATOM     13  C   UNL     1       0.794  10.153  21.956  0.00  0.00    +0.000 A 
ATOM     14  C   UNL     1       0.709   8.752  22.000  0.00  0.00    +0.000 A 
BRANCH  12  15
ATOM     15  C   UNL     1       1.136  12.242  20.693  0.00  0.00    +0.000 C 
ATOM     16  N   UNL     1       1.220  13.402  20.645  0.00  0.00    +0.000 NA
ENDBRANCH  12  15
ENDBRANCH   7   9
ENDBRANCH   3   5
ENDBRANCH   1   3
BRANCH   1  17
ATOM     17  C   UNL     1       2.911   2.476  19.601  0.00  0.00    +0.000 C 
BRANCH  17  19
ATOM     18  N   UNL     1       4.092   3.827  17.940  0.00  0.00    +0.000 N 
ATOM     19  C   UNL     1       4.233   3.083  19.103  0.00  0.00    +0.000 C 
ATOM     20  O   UNL     1       5.275   2.882  19.720  0.00  0.00    +0.000 OA
ATOM     21  H   UNL     1       3.191   3.738  17.483  0.00  0.00    +0.000 HD
BRANCH  18  26
ATOM     22  C   UNL     1       6.411   6.512  16.864  0.00  0.00    +0.000 A 
ATOM     23  C   UNL     1       7.118   5.881  15.841  0.00  0.00    +0.000 A 
ATOM     24  C   UNL     1       6.837   4.560  15.508  0.00  0.00    +0.000 A 
ATOM     25  C   UNL     1       5.845   3.862  16.200  0.00  0.00    +0.000 A 
ATOM     26  C   UNL     1       5.126   4.477  17.228  0.00  0.00    +0.000 A 
ATOM     27  C   UNL     1       5.432   5.803  17.573  0.00  0.00    +0.000 A 
BRANCH  22  29
ATOM     28  C   UNL     1       8.018   7.988  17.778  0.00  0.00    +0.000 C 
ATOM     29  O   UNL     1       6.781   7.809  17.099  0.00  0.00    +0.000 OA
ENDBRANCH  22  29
ENDBRANCH  18  26
ENDBRANCH  17  19
ENDBRANCH   1  17
TORSDOF 8
ENDMDL
MODEL 3
REMARK VINA RESULT:      -6.5      1.945      3.341
REMARK  Name = 
REMARK  11 active torsions:
REMARK  status: ('A' for Active; 'I' for Inactive)
REMARK    1  A    between atoms: C_1  and  O_2
REMARK    2  A    between atoms: O_2  and  C_3
REMARK    3  A    between atoms: C_7  and  N_8
REMARK    4  A    between atoms: C_9  and  C_11
REMARK    5  A    between atoms: C_11  and  N_12
REMARK    6  A    between atoms: N_12  and  C_13
REMARK    7  A    between atoms: N_12  and  C_14
REMARK    8  A    between atoms: C_14  and  C_15
REMARK    9  A    between atoms: C_14  and  C_16
REMARK   10  A    between atoms: N_18  and  C_19
REMARK   11  A    between atoms: C_22  and  C_23
REMARK                            x       y       z     vdW  Elec       q    Type
REMARK                         _______ _______ _______ _____ _____    ______ ____
ROOT
ATOM      1  N   UNL     1       4.228   3.189  18.707  0.00  0.00    +0.000 NA
ATOM      2  C   UNL     1       4.568   2.434  19.929  0.00  0.00    +0.000 C 
ENDROOT
BRANCH   1   3
ATOM      3  C   UNL     1       2.774   3.556  18.650  0.00  0.00    +0.000 C 
ATOM      4  C   UNL     1       1.892   2.493  19.324  0.00  0.00    +0.000 C 
BRANCH   3   5
ATOM      5  C   UNL     1       2.460   4.924  19.311  0.00  0.00    +0.000 C 
ATOM      6  O   UNL     1       2.471   5.041  20.536  0.00  0.00    +0.000 OA
ATOM      7  N   UNL     1       2.175   5.951  18.413  0.00  0.00    +0.000 N 
ATOM      8  H   UNL     1       2.006   5.697  17.451  0.00  0.00    +0.000 HD
BRANCH   7   9
ATOM      9  C   UNL     1       1.927   7.300  18.770  0.00  0.00    +0.000 A 
ATOM     10  C   UNL     1       1.562   7.688  20.064  0.00  0.00    +0.000 A 
ATOM     11  C   UNL     1       1.283   9.021  20.368  0.00  0.00    +0.000 A 
ATOM     12  C   UNL     1       1.380  10.005  19.379  0.00  0.00    +0.000 A 
ATOM     13  C   UNL     1       1.773   9.632  18.090  0.00  0.00    +0.000 A 
ATOM     14  C   UNL     1       2.056   8.290  17.791  0.00  0.00    +0.000 A 
BRANCH  12  15
ATOM     15  C   UNL     1       1.066  11.370  19.689  0.00  0.00    +0.000 C 
ATOM     16  N   UNL     1       0.814  12.477  19.948  0.00  0.00    +0.000 NA
ENDBRANCH  12  15
ENDBRANCH   7   9
ENDBRANCH   3   5
ENDBRANCH   1   3
BRANCH   1  17
ATOM     17  C   UNL     1       5.093   4.390  18.595  0.00  0.00    +0.000 C 
BRANCH  17  19
ATOM     18  N   UNL     1       5.997   3.970  16.362  0.00  0.00    +0.000 N 
ATOM     19  C   UNL     1       5.250   4.848  17.135  0.00  0.00    +0.000 C 
ATOM     20  O   UNL     1       4.742   5.902  16.762  0.00  0.00    +0.000 OA
ATOM     21  H   UNL     1       6.477   3.244  16.884  0.00  0.00    +0.000 HD
BRANCH  18  26
ATOM     22  C   UNL     1       5.932   3.499  12.686  0.00  0.00    +0.000 A 
ATOM     23  C   UNL     1       6.970   4.336  12.276  0.00  0.00    +0.000 A 
ATOM     24  C   UNL     1       7.691   5.067  13.214  0.00  0.00    +0.000 A 
ATOM     25  C   UNL     1       7.375   4.965  14.570  0.00  0.00    +0.000 A 
ATOM     26  C   UNL     1       6.338   4.134  15.000  0.00  0.00    +0.000 A 
ATOM     27  C   UNL     1       5.601   3.416  14.045  0.00  0.00    +0.000 A 
BRANCH  22  29
ATOM     28  C   UNL     1       5.892   1.611  11.261  0.00  0.00    +0.000 C 
ATOM     29  O   UNL     1       5.297   2.836  11.670  0.00  0.00    +0.000 OA
ENDBRANCH  22  29
ENDBRANCH  18  26
ENDBRANCH  17  19
ENDBRANCH   1  17
TORSDOF 8
ENDMDL
MODEL 4
REMARK VINA RESULT:      -6.5      1.843      2.806
REMARK  Name = 
REMARK  11 active torsions:
REMARK  status: ('A' for Active; 'I' for Inactive)
REMARK    1  A    between atoms: C_1  and  O_2
REMARK    2  A    between atoms: O_2  and  C_3
REMARK    3  A    between atoms: C_7  and  N_8
REMARK    4  A    between atoms: C_9  and  C_11
REMARK    5  A    between atoms: C_11  and  N_12
REMARK    6  A    between atoms: N_12  and  C_13
REMARK    7  A    between atoms: N_12  and  C_14
REMARK    8  A    between atoms: C_14  and  C_15
REMARK    9  A    between atoms: C_14  and  C_16
REMARK   10  A    between atoms: N_18  and  C_19
REMARK   11  A    between atoms: C_22  and  C_23
REMARK                            x       y       z     vdW  Elec       q    Type
REMARK                         _______ _______ _______ _____ _____    ______ ____
ROOT
ATOM      1  N   UNL     1       4.026   3.204  19.398  0.00  0.00    +0.000 NA
ATOM      2  C   UNL     1       4.500   1.991  20.093  0.00  0.00    +0.000 C 
ENDROOT
BRANCH   1   3
ATOM      3  C   UNL     1       2.652   3.614  19.839  0.00  0.00    +0.000 C 
ATOM      4  C   UNL     1       2.546   3.694  21.371  0.00  0.00    +0.000 C 
BRANCH   3   5
ATOM      5  C   UNL     1       2.204   4.982  19.259  0.00  0.00    +0.000 C 
ATOM      6  O   UNL     1       1.754   5.056  18.116  0.00  0.00    +0.000 OA
ATOM      7  N   UNL     1       2.364   6.061  20.126  0.00  0.00    +0.000 N 
ATOM      8  H   UNL     1       2.918   5.914  20.957  0.00  0.00    +0.000 HD
BRANCH   7   9
ATOM      9  C   UNL     1       1.965   7.393  19.853  0.00  0.00    +0.000 A 
ATOM     10  C   UNL     1       1.313   8.197  20.794  0.00  0.00    +0.000 A 
ATOM     11  C   UNL     1       0.895   9.490  20.474  0.00  0.00    +0.000 A 
ATOM     12  C   UNL     1       1.138  10.015  19.202  0.00  0.00    +0.000 A 
ATOM     13  C   UNL     1       1.815   9.230  18.264  0.00  0.00    +0.000 A 
ATOM     14  C   UNL     1       2.236   7.931  18.592  0.00  0.00    +0.000 A 
BRANCH  12  15
ATOM     15  C   UNL     1       0.683  11.334  18.869  0.00  0.00    +0.000 C 
ATOM     16  N   UNL     1       0.318  12.405  18.592  0.00  0.00    +0.000 NA
ENDBRANCH  12  15
ENDBRANCH   7   9
ENDBRANCH   3   5
ENDBRANCH   1   3
BRANCH   1  17
ATOM     17  C   UNL     1       5.003   4.306  19.578  0.00  0.00    +0.000 C 
BRANCH  17  19
ATOM     18  N   UNL     1       5.753   3.986  17.273  0.00  0.00    +0.000 N 
ATOM     19  C   UNL     1       5.417   4.929  18.234  0.00  0.00    +0.000 C 
ATOM     20  O   UNL     1       5.432   6.149  18.098  0.00  0.00    +0.000 OA
ATOM     21  H   UNL     1       5.847   3.037  17.620  0.00  0.00    +0.000 HD
BRANCH  18  26
ATOM     22  C   UNL     1       6.069   3.708  13.590  0.00  0.00    +0.000 A 
ATOM     23  C   UNL     1       7.060   4.650  13.320  0.00  0.00    +0.000 A 
ATOM     24  C   UNL     1       7.623   5.390  14.354  0.00  0.00    +0.000 A 
ATOM     25  C   UNL     1       7.195   5.190  15.667  0.00  0.00    +0.000 A 
ATOM     26  C   UNL     1       6.202   4.250  15.959  0.00  0.00    +0.000 A 
ATOM     27  C   UNL     1       5.624   3.524  14.905  0.00  0.00    +0.000 A 
BRANCH  22  29
ATOM     28  C   UNL     1       6.571   2.612  11.554  0.00  0.00    +0.000 C 
ATOM     29  O   UNL     1       5.593   3.047  12.489  0.00  0.00    +0.000 OA
ENDBRANCH  22  29
ENDBRANCH  18  26
ENDBRANCH  17  19
ENDBRANCH   1  17
TORSDOF 8
ENDMDL
MODEL 5
REMARK VINA RESULT:      -6.4      4.397      7.434
REMARK  Name = 
REMARK  11 active torsions:
REMARK  status: ('A' for Active; 'I' for Inactive)
REMARK    1  A    between atoms: C_1  and  O_2
REMARK    2  A    between atoms: O_2  and  C_3
REMARK    3  A    between atoms: C_7  and  N_8
REMARK    4  A    between atoms: C_9  and  C_11
REMARK    5  A    between atoms: C_11  and  N_12
REMARK    6  A    between atoms: N_12  and  C_13
REMARK    7  A    between atoms: N_12  and  C_14
REMARK    8  A    between atoms: C_14  and  C_15
REMARK    9  A    between atoms: C_14  and  C_16
REMARK   10  A    between atoms: N_18  and  C_19
REMARK   11  A    between atoms: C_22  and  C_23
REMARK                            x       y       z     vdW  Elec       q    Type
REMARK                         _______ _______ _______ _____ _____    ______ ____
ROOT
ATOM      1  N   UNL     1       7.140   6.298  16.755  0.00  0.00    +0.000 NA
ATOM      2  C   UNL     1       5.874   6.653  16.087  0.00  0.00    +0.000 C 
ENDROOT
BRANCH   1   3
ATOM      3  C   UNL     1       7.294   6.977  18.084  0.00  0.00    +0.000 C 
ATOM      4  C   UNL     1       8.211   6.180  19.027  0.00  0.00    +0.000 C 
BRANCH   3   5
ATOM      5  C   UNL     1       7.859   8.418  17.975  0.00  0.00    +0.000 C 
ATOM      6  O   UNL     1       7.496   9.162  17.065  0.00  0.00    +0.000 OA
ATOM      7  N   UNL     1       8.778   8.757  18.966  0.00  0.00    +0.000 N 
ATOM      8  H   UNL     1       9.143   8.011  19.540  0.00  0.00    +0.000 HD
BRANCH   7   9
ATOM      9  C   UNL     1       9.378  10.032  19.120  0.00  0.00    +0.000 A 
ATOM     10  C   UNL     1       9.907  10.755  18.046  0.00  0.00    +0.000 A 
ATOM     11  C   UNL     1      10.530  11.990  18.243  0.00  0.00    +0.000 A 
ATOM     12  C   UNL     1      10.620  12.537  19.526  0.00  0.00    +0.000 A 
ATOM     13  C   UNL     1      10.066  11.836  20.601  0.00  0.00    +0.000 A 
ATOM     14  C   UNL     1       9.438  10.597  20.397  0.00  0.00    +0.000 A 
BRANCH  12  15
ATOM     15  C   UNL     1      11.284  13.793  19.727  0.00  0.00    +0.000 C 
ATOM     16  N   UNL     1      11.820  14.813  19.897  0.00  0.00    +0.000 NA
ENDBRANCH  12  15
ENDBRANCH   7   9
ENDBRANCH   3   5
ENDBRANCH   1   3
BRANCH   1  17
ATOM     17  C   UNL     1       7.250   4.824  16.885  0.00  0.00    +0.000 C 
BRANCH  17  19
ATOM     18  N   UNL     1       5.338   4.081  18.215  0.00  0.00    +0.000 N 
ATOM     19  C   UNL     1       5.869   4.149  16.935  0.00  0.00    +0.000 C 
ATOM     20  O   UNL     1       5.350   3.730  15.904  0.00  0.00    +0.000 OA
ATOM     21  H   UNL     1       5.984   4.323  18.959  0.00  0.00    +0.000 HD
BRANCH  18  26
ATOM     22  C   UNL     1       1.971   3.730  19.726  0.00  0.00    +0.000 A 
ATOM     23  C   UNL     1       1.659   2.407  19.415  0.00  0.00    +0.000 A 
ATOM     24  C   UNL     1       2.558   1.626  18.695  0.00  0.00    +0.000 A 
ATOM     25  C   UNL     1       3.776   2.168  18.281  0.00  0.00    +0.000 A 
ATOM     26  C   UNL     1       4.107   3.492  18.583  0.00  0.00    +0.000 A 
ATOM     27  C   UNL     1       3.184   4.279  19.290  0.00  0.00    +0.000 A 
BRANCH  22  29
ATOM     28  C   UNL     1       1.326   5.724  20.824  0.00  0.00    +0.000 C 
ATOM     29  O   UNL     1       1.006   4.394  20.434  0.00  0.00    +0.000 OA
ENDBRANCH  22  29
ENDBRANCH  18  26
ENDBRANCH  17  19
ENDBRANCH   1  17
TORSDOF 8
ENDMDL
MODEL 6
REMARK VINA RESULT:      -6.4      1.813      2.825
REMARK  Name = 
REMARK  11 active torsions:
REMARK  status: ('A' for Active; 'I' for Inactive)
REMARK    1  A    between atoms: C_1  and  O_2
REMARK    2  A    between atoms: O_2  and  C_3
REMARK    3  A    between atoms: C_7  and  N_8
REMARK    4  A    between atoms: C_9  and  C_11
REMARK    5  A    between atoms: C_11  and  N_12
REMARK    6  A    between atoms: N_12  and  C_13
REMARK    7  A    between atoms: N_12  and  C_14
REMARK    8  A    between atoms: C_14  and  C_15
REMARK    9  A    between atoms: C_14  and  C_16
REMARK   10  A    between atoms: N_18  and  C_19
REMARK   11  A    between atoms: C_22  and  C_23
REMARK                            x       y       z     vdW  Elec       q    Type
REMARK                         _______ _______ _______ _____ _____    ______ ____
ROOT
ATOM      1  N   UNL     1       3.238   2.121  19.726  0.00  0.00    +0.000 NA
ATOM      2  C   UNL     1       4.394   3.027  19.866  0.00  0.00    +0.000 C 
ENDROOT
BRANCH   1   3
ATOM      3  C   UNL     1       2.045   2.593  20.505  0.00  0.00    +0.000 C 
ATOM      4  C   UNL     1       2.350   2.690  22.009  0.00  0.00    +0.000 C 
BRANCH   3   5
ATOM      5  C   UNL     1       1.515   3.974  20.037  0.00  0.00    +0.000 C 
ATOM      6  O   UNL     1       0.396   4.073  19.533  0.00  0.00    +0.000 OA
ATOM      7  N   UNL     1       2.399   5.033  20.234  0.00  0.00    +0.000 N 
ATOM      8  H   UNL     1       3.353   4.806  20.472  0.00  0.00    +0.000 HD
BRANCH   7   9
ATOM      9  C   UNL     1       2.117   6.393  19.953  0.00  0.00    +0.000 A 
ATOM     10  C   UNL     1       1.490   7.242  20.872  0.00  0.00    +0.000 A 
ATOM     11  C   UNL     1       1.188   8.566  20.544  0.00  0.00    +0.000 A 
ATOM     12  C   UNL     1       1.526   9.075  19.287  0.00  0.00    +0.000 A 
ATOM     13  C   UNL     1       2.179   8.243  18.373  0.00  0.00    +0.000 A 
ATOM     14  C   UNL     1       2.483   6.914  18.709  0.00  0.00    +0.000 A 
BRANCH  12  15
ATOM     15  C   UNL     1       1.190  10.427  18.945  0.00  0.00    +0.000 C 
ATOM     16  N   UNL     1       0.911  11.524  18.673  0.00  0.00    +0.000 NA
ENDBRANCH  12  15
ENDBRANCH   7   9
ENDBRANCH   3   5
ENDBRANCH   1   3
BRANCH   1  17
ATOM     17  C   UNL     1       2.907   1.936  18.292  0.00  0.00    +0.000 C 
BRANCH  17  19
ATOM     18  N   UNL     1       4.801   2.897  17.080  0.00  0.00    +0.000 N 
ATOM     19  C   UNL     1       3.468   3.075  17.423  0.00  0.00    +0.000 C 
ATOM     20  O   UNL     1       2.751   4.020  17.108  0.00  0.00    +0.000 OA
ATOM     21  H   UNL     1       5.273   2.147  17.574  0.00  0.00    +0.000 HD
BRANCH  18  26
ATOM     22  C   UNL     1       6.863   5.863  16.245  0.00  0.00    +0.000 A 
ATOM     23  C   UNL     1       7.139   5.643  14.896  0.00  0.00    +0.000 A 
ATOM     24  C   UNL     1       6.652   4.508  14.258  0.00  0.00    +0.000 A 
ATOM     25  C   UNL     1       5.885   3.583  14.969  0.00  0.00    +0.000 A 
ATOM     26  C   UNL     1       5.597   3.785  16.321  0.00  0.00    +0.000 A 
ATOM     27  C   UNL     1       6.112   4.923  16.963  0.00  0.00    +0.000 A 
BRANCH  22  29
ATOM     28  C   UNL     1       7.784   6.961  18.128  0.00  0.00    +0.000 C 
ATOM     29  O   UNL     1       7.399   7.012  16.759  0.00  0.00    +0.000 OA
ENDBRANCH  22  29
ENDBRANCH  18  26
ENDBRANCH  17  19
ENDBRANCH   1  17
TORSDOF 8
ENDMDL
MODEL 7
REMARK VINA RESULT:      -6.4      4.147      9.087
REMARK  Name = 
REMARK  11 active torsions:
REMARK  status: ('A' for Active; 'I' for Inactive)
REMARK    1  A    between atoms: C_1  and  O_2
REMARK    2  A    between atoms: O_2  and  C_3
REMARK    3  A    between atoms: C_7  and  N_8
REMARK    4  A    between atoms: C_9  and  C_11
REMARK    5  A    between atoms: C_11  and  N_12
REMARK    6  A    between atoms: N_12  and  C_13
REMARK    7  A    between atoms: N_12  and  C_14
REMARK    8  A    between atoms: C_14  and  C_15
REMARK    9  A    between atoms: C_14  and  C_16
REMARK   10  A    between atoms: N_18  and  C_19
REMARK   11  A    between atoms: C_22  and  C_23
REMARK                            x       y       z     vdW  Elec       q    Type
REMARK                         _______ _______ _______ _____ _____    ______ ____
ROOT
ATOM      1  N   UNL     1       1.057  11.894  20.638  0.00  0.00    +0.000 NA
ATOM      2  C   UNL     1       2.284  12.668  20.906  0.00  0.00    +0.000 C 
ENDROOT
BRANCH   1   3
ATOM      3  C   UNL     1       0.915  10.714  21.555  0.00  0.00    +0.000 C 
ATOM      4  C   UNL     1      -0.279  10.876  22.510  0.00  0.00    +0.000 C 
BRANCH   3   5
ATOM      5  C   UNL     1       0.744   9.369  20.802  0.00  0.00    +0.000 C 
ATOM      6  O   UNL     1      -0.351   9.049  20.339  0.00  0.00    +0.000 OA
ATOM      7  N   UNL     1       1.902   8.599  20.717  0.00  0.00    +0.000 N 
ATOM      8  H   UNL     1       2.684   8.867  21.296  0.00  0.00    +0.000 HD
BRANCH   7   9
ATOM      9  C   UNL     1       2.015   7.369  20.022  0.00  0.00    +0.000 A 
ATOM     10  C   UNL     1       2.501   7.281  18.713  0.00  0.00    +0.000 A 
ATOM     11  C   UNL     1       2.556   6.056  18.044  0.00  0.00    +0.000 A 
ATOM     12  C   UNL     1       2.139   4.885  18.683  0.00  0.00    +0.000 A 
ATOM     13  C   UNL     1       1.682   4.959  20.001  0.00  0.00    +0.000 A 
ATOM     14  C   UNL     1       1.631   6.192  20.671  0.00  0.00    +0.000 A 
BRANCH  12  15
ATOM     15  C   UNL     1       2.174   3.633  17.982  0.00  0.00    +0.000 C 
ATOM     16  N   UNL     1       2.206   2.614  17.419  0.00  0.00    +0.000 NA
ENDBRANCH  12  15
ENDBRANCH   7   9
ENDBRANCH   3   5
ENDBRANCH   1   3
BRANCH   1  17
ATOM     17  C   UNL     1      -0.130  12.781  20.712  0.00  0.00    +0.000 C 
BRANCH  17  19
ATOM     18  N   UNL     1      -1.895  11.741  19.378  0.00  0.00    +0.000 N 
ATOM     19  C   UNL     1      -0.947  12.754  19.409  0.00  0.00    +0.000 C 
ATOM     20  O   UNL     1      -0.724  13.574  18.524  0.00  0.00    +0.000 OA
ATOM     21  H   UNL     1      -1.816  11.058  20.125  0.00  0.00    +0.000 HD
BRANCH  18  26
ATOM     22  C   UNL     1      -3.084  10.392  16.137  0.00  0.00    +0.000 A 
ATOM     23  C   UNL     1      -4.402  10.844  16.109  0.00  0.00    +0.000 A 
ATOM     24  C   UNL     1      -4.908  11.591  17.167  0.00  0.00    +0.000 A 
ATOM     25  C   UNL     1      -4.094  11.888  18.262  0.00  0.00    +0.000 A 
ATOM     26  C   UNL     1      -2.771  11.443  18.309  0.00  0.00    +0.000 A 
ATOM     27  C   UNL     1      -2.276  10.671  17.246  0.00  0.00    +0.000 A 
BRANCH  22  29
ATOM     28  C   UNL     1      -3.282  10.063  13.802  0.00  0.00    +0.000 C 
ATOM     29  O   UNL     1      -2.706   9.665  15.040  0.00  0.00    +0.000 OA
ENDBRANCH  22  29
ENDBRANCH  18  26
ENDBRANCH  17  19
ENDBRANCH   1  17
TORSDOF 8
ENDMDL
MODEL 8
REMARK VINA RESULT:      -6.4      2.146      3.147
REMARK  Name = 
REMARK  11 active torsions:
REMARK  status: ('A' for Active; 'I' for Inactive)
REMARK    1  A    between atoms: C_1  and  O_2
REMARK    2  A    between atoms: O_2  and  C_3
REMARK    3  A    between atoms: C_7  and  N_8
REMARK    4  A    between atoms: C_9  and  C_11
REMARK    5  A    between atoms: C_11  and  N_12
REMARK    6  A    between atoms: N_12  and  C_13
REMARK    7  A    between atoms: N_12  and  C_14
REMARK    8  A    between atoms: C_14  and  C_15
REMARK    9  A    between atoms: C_14  and  C_16
REMARK   10  A    between atoms: N_18  and  C_19
REMARK   11  A    between atoms: C_22  and  C_23
REMARK                            x       y       z     vdW  Elec       q    Type
REMARK                         _______ _______ _______ _____ _____    ______ ____
ROOT
ATOM      1  N   UNL     1       3.791   2.481  19.122  0.00  0.00    +0.000 NA
ATOM      2  C   UNL     1       4.604   1.526  19.900  0.00  0.00    +0.000 C 
ENDROOT
BRANCH   1   3
ATOM      3  C   UNL     1       2.555   2.910  19.857  0.00  0.00    +0.000 C 
ATOM      4  C   UNL     1       2.800   3.010  21.372  0.00  0.00    +0.000 C 
BRANCH   3   5
ATOM      5  C   UNL     1       1.996   4.274  19.374  0.00  0.00    +0.000 C 
ATOM      6  O   UNL     1       1.132   4.319  18.499  0.00  0.00    +0.000 OA
ATOM      7  N   UNL     1       2.554   5.386  20.003  0.00  0.00    +0.000 N 
ATOM      8  H   UNL     1       3.384   5.240  20.559  0.00  0.00    +0.000 HD
BRANCH   7   9
ATOM      9  C   UNL     1       2.159   6.729  19.785  0.00  0.00    +0.000 A 
ATOM     10  C   UNL     1       1.509   7.496  20.758  0.00  0.00    +0.000 A 
ATOM     11  C   UNL     1       1.096   8.803  20.492  0.00  0.00    +0.000 A 
ATOM     12  C   UNL     1       1.342   9.379  19.242  0.00  0.00    +0.000 A 
ATOM     13  C   UNL     1       2.019   8.632  18.274  0.00  0.00    +0.000 A 
ATOM     14  C   UNL     1       2.435   7.319  18.548  0.00  0.00    +0.000 A 
BRANCH  12  15
ATOM     15  C   UNL     1       0.893  10.713  18.964  0.00  0.00    +0.000 C 
ATOM     16  N   UNL     1       0.534  11.797  18.734  0.00  0.00    +0.000 NA
ENDBRANCH  12  15
ENDBRANCH   7   9
ENDBRANCH   3   5
ENDBRANCH   1   3
BRANCH   1  17
ATOM     17  C   UNL     1       4.617   3.649  18.728  0.00  0.00    +0.000 C 
BRANCH  17  19
ATOM     18  N   UNL     1       5.941   3.951  16.695  0.00  0.00    +0.000 N 
ATOM     19  C   UNL     1       4.654   3.836  17.202  0.00  0.00    +0.000 C 
ATOM     20  O   UNL     1       3.609   3.876  16.560  0.00  0.00    +0.000 OA
ATOM     21  H   UNL     1       6.667   4.067  17.394  0.00  0.00    +0.000 HD
BRANCH  18  26
ATOM     22  C   UNL     1       5.893   3.628  13.002  0.00  0.00    +0.000 A 
ATOM     23  C   UNL     1       6.948   4.462  12.633  0.00  0.00    +0.000 A 
ATOM     24  C   UNL     1       7.675   5.143  13.603  0.00  0.00    +0.000 A 
ATOM     25  C   UNL     1       7.348   4.993  14.952  0.00  0.00    +0.000 A 
ATOM     26  C   UNL     1       6.294   4.162  15.343  0.00  0.00    +0.000 A 
ATOM     27  C   UNL     1       5.552   3.497  14.355  0.00  0.00    +0.000 A 
BRANCH  22  29
ATOM     28  C   UNL     1       5.856   1.824  11.472  0.00  0.00    +0.000 C 
ATOM     29  O   UNL     1       5.253   3.017  11.957  0.00  0.00    +0.000 OA
ENDBRANCH  22  29
ENDBRANCH  18  26
ENDBRANCH  17  19
ENDBRANCH   1  17
TORSDOF 8
ENDMDL
MODEL 9
REMARK VINA RESULT:      -6.4      2.331      7.380
REMARK  Name = 
REMARK  11 active torsions:
REMARK  status: ('A' for Active; 'I' for Inactive)
REMARK    1  A    between atoms: C_1  and  O_2
REMARK    2  A    between atoms: O_2  and  C_3
REMARK    3  A    between atoms: C_7  and  N_8
REMARK    4  A    between atoms: C_9  and  C_11
REMARK    5  A    between atoms: C_11  and  N_12
REMARK    6  A    between atoms: N_12  and  C_13
REMARK    7  A    between atoms: N_12  and  C_14
REMARK    8  A    between atoms: C_14  and  C_15
REMARK    9  A    between atoms: C_14  and  C_16
REMARK   10  A    between atoms: N_18  and  C_19
REMARK   11  A    between atoms: C_22  and  C_23
REMARK                            x       y       z     vdW  Elec       q    Type
REMARK                         _______ _______ _______ _____ _____    ______ ____
ROOT
ATOM      1  N   UNL     1       2.918   3.659  20.519  0.00  0.00    +0.000 NA
ATOM      2  C   UNL     1       2.300   2.880  21.610  0.00  0.00    +0.000 C 
ENDROOT
BRANCH   1   3
ATOM      3  C   UNL     1       4.346   3.268  20.278  0.00  0.00    +0.000 C 
ATOM      4  C   UNL     1       4.477   1.775  19.934  0.00  0.00    +0.000 C 
BRANCH   3   5
ATOM      5  C   UNL     1       5.020   4.079  19.140  0.00  0.00    +0.000 C 
ATOM      6  O   UNL     1       5.344   5.253  19.319  0.00  0.00    +0.000 OA
ATOM      7  N   UNL     1       5.204   3.372  17.953  0.00  0.00    +0.000 N 
ATOM      8  H   UNL     1       4.728   2.487  17.858  0.00  0.00    +0.000 HD
BRANCH   7   9
ATOM      9  C   UNL     1       5.857   3.872  16.799  0.00  0.00    +0.000 A 
ATOM     10  C   UNL     1       7.110   4.493  16.847  0.00  0.00    +0.000 A 
ATOM     11  C   UNL     1       7.704   5.013  15.695  0.00  0.00    +0.000 A 
ATOM     12  C   UNL     1       7.058   4.906  14.460  0.00  0.00    +0.000 A 
ATOM     13  C   UNL     1       5.820   4.261  14.397  0.00  0.00    +0.000 A 
ATOM     14  C   UNL     1       5.229   3.737  15.558  0.00  0.00    +0.000 A 
BRANCH  12  15
ATOM     15  C   UNL     1       7.659   5.465  13.283  0.00  0.00    +0.000 C 
ATOM     16  N   UNL     1       8.148   5.912  12.325  0.00  0.00    +0.000 NA
ENDBRANCH  12  15
ENDBRANCH   7   9
ENDBRANCH   3   5
ENDBRANCH   1   3
BRANCH   1  17
ATOM     17  C   UNL     1       2.107   3.534  19.283  0.00  0.00    +0.000 C 
BRANCH  17  19
ATOM     18  N   UNL     1       2.174   5.970  19.477  0.00  0.00    +0.000 N 
ATOM     19  C   UNL     1       1.748   4.907  18.692  0.00  0.00    +0.000 C 
ATOM     20  O   UNL     1       1.138   4.981  17.629  0.00  0.00    +0.000 OA
ATOM     21  H   UNL     1       2.506   5.713  20.400  0.00  0.00    +0.000 HD
BRANCH  18  26
ATOM     22  C   UNL     1       1.050   9.467  19.973  0.00  0.00    +0.000 A 
ATOM     23  C   UNL     1       1.445  10.063  18.776  0.00  0.00    +0.000 A 
ATOM     24  C   UNL     1       2.093   9.313  17.802  0.00  0.00    +0.000 A 
ATOM     25  C   UNL     1       2.352   7.959  18.022  0.00  0.00    +0.000 A 
ATOM     26  C   UNL     1       1.964   7.343  19.215  0.00  0.00    +0.000 A 
ATOM     27  C   UNL     1       1.330   8.114  20.202  0.00  0.00    +0.000 A 
BRANCH  22  29
ATOM     28  C   UNL     1       0.116   9.760  22.127  0.00  0.00    +0.000 C 
ATOM     29  O   UNL     1       0.425  10.310  20.853  0.00  0.00    +0.000 OA
ENDBRANCH  22  29
ENDBRANCH  18  26
ENDBRANCH  17  19
ENDBRANCH   1  17
TORSDOF 8
ENDMDL
