MODEL 1
REMARK VINA RESULT:      -8.6      0.000      0.000
REMARK  Name = 
REMARK  8 active torsions:
REMARK  status: ('A' for Active; 'I' for Inactive)
REMARK    1  A    between atoms: C_1  and  O_2
REMARK    2  A    between atoms: O_2  and  C_3
REMARK    3  A    between atoms: C_7  and  C_8
REMARK    4  A    between atoms: C_8  and  N_9
REMARK    5  A    between atoms: C_14  and  C_16
REMARK    6  A    between atoms: C_20  and  C_21
REMARK    7  A    between atoms: C_29  and  C_30
REMARK    8  A    between atoms: C_30  and  C_31
REMARK                            x       y       z     vdW  Elec       q    Type
REMARK                         _______ _______ _______ _____ _____    ______ ____
ROOT
ATOM      1  N   UNL     1      -1.887  11.815  22.183  0.00  0.00    +0.000 N 
ATOM      2  C   UNL     1      -0.719  11.094  22.458  0.00  0.00    +0.000 C 
ATOM      3  O   UNL     1      -0.491  10.593  23.563  0.00  0.00    +0.000 OA
ATOM      4  C   UNL     1       0.407  11.134  21.405  0.00  0.00    +0.000 C 
ATOM      5  N   UNL     1       0.006  11.478  20.054  0.00  0.00    +0.000 N 
ATOM      6  C   UNL     1       0.238  10.750  18.893  0.00  0.00    +0.000 C 
ATOM      7  O   UNL     1      -0.350  11.095  17.861  0.00  0.00    +0.000 OA
ATOM      8  C   UNL     1      -0.996  12.558  20.001  0.00  0.00    +0.000 C 
ATOM      9  C   UNL     1      -2.264  12.114  20.767  0.00  0.00    +0.000 C 
ENDROOT
BRANCH   6  10
ATOM     10  C   UNL     1       1.087   9.567  18.834  0.00  0.00    +0.000 A 
ATOM     11  C   UNL     1       2.020   9.381  17.823  0.00  0.00    +0.000 A 
ATOM     12  C   UNL     1       2.734   8.190  18.042  0.00  0.00    +0.000 A 
ATOM     13  C   UNL     1       3.773   7.550  17.341  0.00  0.00    +0.000 A 
ATOM     14  C   UNL     1       4.290   6.322  17.774  0.00  0.00    +0.000 A 
ATOM     15  C   UNL     1       3.723   5.753  18.925  0.00  0.00    +0.000 A 
ATOM     16  C   UNL     1       2.696   6.389  19.668  0.00  0.00    +0.000 A 
ATOM     17  C   UNL     1       2.222   7.619  19.199  0.00  0.00    +0.000 A 
ATOM     18  N   UNL     1       1.264   8.498  19.697  0.00  0.00    +0.000 N 
ATOM     19  H   UNL     1       0.804   8.375  20.585  0.00  0.00    +0.000 HD
BRANCH  14  20
ATOM     20  C   UNL     1       5.377   5.635  16.975  0.00  0.00    +0.000 C 
ATOM     21  C   UNL     1       5.056   4.394  16.168  0.00  0.00    +0.000 C 
ATOM     22  C   UNL     1       5.373   5.678  15.466  0.00  0.00    +0.000 C 
ENDBRANCH  14  20
ENDBRANCH   6  10
BRANCH   1  23
ATOM     23  C   UNL     1      -2.768  12.136  23.311  0.00  0.00    +0.000 C 
BRANCH  23  28
ATOM     24  C   UNL     1      -1.129  15.452  24.303  0.00  0.00    +0.000 A 
ATOM     25  C   UNL     1      -2.239  16.169  24.755  0.00  0.00    +0.000 A 
ATOM     26  C   UNL     1      -3.514  15.620  24.682  0.00  0.00    +0.000 A 
ATOM     27  C   UNL     1      -3.683  14.332  24.180  0.00  0.00    +0.000 A 
ATOM     28  C   UNL     1      -2.579  13.574  23.756  0.00  0.00    +0.000 A 
ATOM     29  C   UNL     1      -1.305  14.163  23.788  0.00  0.00    +0.000 A 
BRANCH  24  31
ATOM     30  C   UNL     1       0.580  16.760  23.290  0.00  0.00    +0.000 C 
ATOM     31  O   UNL     1       0.063  16.108  24.441  0.00  0.00    +0.000 OA
ENDBRANCH  24  31
ENDBRANCH  23  28
ENDBRANCH   1  23
BRANCH   9  32
ATOM     32  C   UNL     1      -3.431  13.118  20.568  0.00  0.00    +0.000 C 
BRANCH  32  33
ATOM     33  C   UNL     1      -4.804  12.560  20.236  0.00  0.00    +0.000 A 
ATOM     34  C   UNL     1      -5.105  11.958  19.007  0.00  0.00    +0.000 A 
ATOM     35  C   UNL     1      -6.395  11.492  18.737  0.00  0.00    +0.000 A 
ATOM     36  C   UNL     1      -7.392  11.586  19.704  0.00  0.00    +0.000 A 
ATOM     37  C   UNL     1      -7.095  12.123  20.951  0.00  0.00    +0.000 A 
ATOM     38  C   UNL     1      -5.809  12.601  21.218  0.00  0.00    +0.000 A 
ENDBRANCH  32  33
ENDBRANCH   9  32
TORSDOF 7
ENDMDL
MODEL 2
REMARK VINA RESULT:      -8.4      1.010      1.608
REMARK  Name = 
REMARK  8 active torsions:
REMARK  status: ('A' for Active; 'I' for Inactive)
REMARK    1  A    between atoms: C_1  and  O_2
REMARK    2  A    between atoms: O_2  and  C_3
REMARK    3  A    between atoms: C_7  and  C_8
REMARK    4  A    between atoms: C_8  and  N_9
REMARK    5  A    between atoms: C_14  and  C_16
REMARK    6  A    between atoms: C_20  and  C_21
REMARK    7  A    between atoms: C_29  and  C_30
REMARK    8  A    between atoms: C_30  and  C_31
REMARK                            x       y       z     vdW  Elec       q    Type
REMARK                         _______ _______ _______ _____ _____    ______ ____
ROOT
ATOM      1  N   UNL     1      -1.511  11.561  22.013  0.00  0.00    +0.000 N 
ATOM      2  C   UNL     1      -0.367  10.820  22.331  0.00  0.00    +0.000 C 
ATOM      3  O   UNL     1      -0.161  10.363  23.458  0.00  0.00    +0.000 OA
ATOM      4  C   UNL     1       0.767  10.779  21.286  0.00  0.00    +0.000 C 
ATOM      5  N   UNL     1       0.385  11.073  19.917  0.00  0.00    +0.000 N 
ATOM      6  C   UNL     1       0.603  10.287  18.792  0.00  0.00    +0.000 C 
ATOM      7  O   UNL     1       0.032  10.602  17.741  0.00  0.00    +0.000 OA
ATOM      8  C   UNL     1      -0.584  12.178  19.808  0.00  0.00    +0.000 C 
ATOM      9  C   UNL     1      -1.870  11.806  20.583  0.00  0.00    +0.000 C 
ENDROOT
BRANCH   6  10
ATOM     10  C   UNL     1       1.418   9.078  18.793  0.00  0.00    +0.000 A 
ATOM     11  C   UNL     1       2.289   8.776  17.755  0.00  0.00    +0.000 A 
ATOM     12  C   UNL     1       2.983   7.588  18.040  0.00  0.00    +0.000 A 
ATOM     13  C   UNL     1       3.965   6.859  17.345  0.00  0.00    +0.000 A 
ATOM     14  C   UNL     1       4.474   5.658  17.858  0.00  0.00    +0.000 A 
ATOM     15  C   UNL     1       3.958   5.209  19.083  0.00  0.00    +0.000 A 
ATOM     16  C   UNL     1       2.990   5.938  19.819  0.00  0.00    +0.000 A 
ATOM     17  C   UNL     1       2.522   7.136  19.269  0.00  0.00    +0.000 A 
ATOM     18  N   UNL     1       1.616   8.083  19.737  0.00  0.00    +0.000 N 
ATOM     19  H   UNL     1       1.202   8.052  20.655  0.00  0.00    +0.000 HD
BRANCH  14  20
ATOM     20  C   UNL     1       5.498   4.872  17.066  0.00  0.00    +0.000 C 
ATOM     21  C   UNL     1       5.128   4.286  15.719  0.00  0.00    +0.000 C 
ATOM     22  C   UNL     1       6.090   5.432  15.795  0.00  0.00    +0.000 C 
ENDBRANCH  14  20
ENDBRANCH   6  10
BRANCH   1  23
ATOM     23  C   UNL     1      -2.391  11.958  23.119  0.00  0.00    +0.000 C 
BRANCH  23  28
ATOM     24  C   UNL     1      -3.203  15.587  24.035  0.00  0.00    +0.000 A 
ATOM     25  C   UNL     1      -1.963  16.195  23.825  0.00  0.00    +0.000 A 
ATOM     26  C   UNL     1      -0.856  15.437  23.456  0.00  0.00    +0.000 A 
ATOM     27  C   UNL     1      -0.993  14.064  23.266  0.00  0.00    +0.000 A 
ATOM     28  C   UNL     1      -2.237  13.434  23.431  0.00  0.00    +0.000 A 
ATOM     29  C   UNL     1      -3.332  14.205  23.855  0.00  0.00    +0.000 A 
BRANCH  24  31
ATOM     30  C   UNL     1      -5.535  16.054  24.088  0.00  0.00    +0.000 C 
ATOM     31  O   UNL     1      -4.203  16.450  24.385  0.00  0.00    +0.000 OA
ENDBRANCH  24  31
ENDBRANCH  23  28
ENDBRANCH   1  23
BRANCH   9  32
ATOM     32  C   UNL     1      -3.006  12.834  20.329  0.00  0.00    +0.000 C 
BRANCH  32  33
ATOM     33  C   UNL     1      -4.334  12.315  19.809  0.00  0.00    +0.000 A 
ATOM     34  C   UNL     1      -4.479  11.716  18.550  0.00  0.00    +0.000 A 
ATOM     35  C   UNL     1      -5.732  11.287  18.102  0.00  0.00    +0.000 A 
ATOM     36  C   UNL     1      -6.851  11.414  18.920  0.00  0.00    +0.000 A 
ATOM     37  C   UNL     1      -6.715  11.948  20.197  0.00  0.00    +0.000 A 
ATOM     38  C   UNL     1      -5.466  12.389  20.641  0.00  0.00    +0.000 A 
ENDBRANCH  32  33
ENDBRANCH   9  32
TORSDOF 7
ENDMDL
MODEL 3
REMARK VINA RESULT:      -8.2      0.902      1.639
REMARK  Name = 
REMARK  8 active torsions:
REMARK  status: ('A' for Active; 'I' for Inactive)
REMARK    1  A    between atoms: C_1  and  O_2
REMARK    2  A    between atoms: O_2  and  C_3
REMARK    3  A    between atoms: C_7  and  C_8
REMARK    4  A    between atoms: C_8  and  N_9
REMARK    5  A    between atoms: C_14  and  C_16
REMARK    6  A    between atoms: C_20  and  C_21
REMARK    7  A    between atoms: C_29  and  C_30
REMARK    8  A    between atoms: C_30  and  C_31
REMARK                            x       y       z     vdW  Elec       q    Type
REMARK                         _______ _______ _______ _____ _____    ______ ____
ROOT
ATOM      1  N   UNL     1      -1.806  11.730  22.078  0.00  0.00    +0.000 N 
ATOM      2  C   UNL     1      -0.601  11.067  22.341  0.00  0.00    +0.000 C 
ATOM      3  O   UNL     1      -0.311  10.632  23.458  0.00  0.00    +0.000 OA
ATOM      4  C   UNL     1       0.479  11.091  21.241  0.00  0.00    +0.000 C 
ATOM      5  N   UNL     1       0.012  11.351  19.892  0.00  0.00    +0.000 N 
ATOM      6  C   UNL     1       0.224  10.572  18.760  0.00  0.00    +0.000 C 
ATOM      7  O   UNL     1      -0.417  10.842  17.738  0.00  0.00    +0.000 OA
ATOM      8  C   UNL     1      -1.031  12.390  19.827  0.00  0.00    +0.000 C 
ATOM      9  C   UNL     1      -2.250  11.941  20.667  0.00  0.00    +0.000 C 
ENDROOT
BRANCH   6  10
ATOM     10  C   UNL     1       1.114   9.418  18.726  0.00  0.00    +0.000 A 
ATOM     11  C   UNL     1       2.079   9.262  17.739  0.00  0.00    +0.000 A 
ATOM     12  C   UNL     1       2.827   8.097  17.979  0.00  0.00    +0.000 A 
ATOM     13  C   UNL     1       3.904   7.491  17.306  0.00  0.00    +0.000 A 
ATOM     14  C   UNL     1       4.451   6.282  17.755  0.00  0.00    +0.000 A 
ATOM     15  C   UNL     1       3.874   5.695  18.892  0.00  0.00    +0.000 A 
ATOM     16  C   UNL     1       2.808   6.297  19.607  0.00  0.00    +0.000 A 
ATOM     17  C   UNL     1       2.305   7.510  19.124  0.00  0.00    +0.000 A 
ATOM     18  N   UNL     1       1.305   8.357  19.595  0.00  0.00    +0.000 N 
ATOM     19  H   UNL     1       0.827   8.219  20.471  0.00  0.00    +0.000 HD
BRANCH  14  20
ATOM     20  C   UNL     1       5.582   5.632  16.986  0.00  0.00    +0.000 C 
ATOM     21  C   UNL     1       5.513   4.158  16.639  0.00  0.00    +0.000 C 
ATOM     22  C   UNL     1       5.389   5.186  15.556  0.00  0.00    +0.000 C 
ENDBRANCH  14  20
ENDBRANCH   6  10
BRANCH   1  23
ATOM     23  C   UNL     1      -2.653  12.078  23.225  0.00  0.00    +0.000 C 
BRANCH  23  28
ATOM     24  C   UNL     1      -3.199  15.602  24.621  0.00  0.00    +0.000 A 
ATOM     25  C   UNL     1      -1.971  16.197  24.321  0.00  0.00    +0.000 A 
ATOM     26  C   UNL     1      -0.950  15.456  23.734  0.00  0.00    +0.000 A 
ATOM     27  C   UNL     1      -1.164  14.118  23.417  0.00  0.00    +0.000 A 
ATOM     28  C   UNL     1      -2.403  13.506  23.672  0.00  0.00    +0.000 A 
ATOM     29  C   UNL     1      -3.404  14.253  24.313  0.00  0.00    +0.000 A 
BRANCH  24  31
ATOM     30  C   UNL     1      -4.233  17.745  24.622  0.00  0.00    +0.000 C 
ATOM     31  O   UNL     1      -4.112  16.447  25.188  0.00  0.00    +0.000 OA
ENDBRANCH  24  31
ENDBRANCH  23  28
ENDBRANCH   1  23
BRANCH   9  32
ATOM     32  C   UNL     1      -3.461  12.892  20.466  0.00  0.00    +0.000 C 
BRANCH  32  33
ATOM     33  C   UNL     1      -4.672  12.358  19.724  0.00  0.00    +0.000 A 
ATOM     34  C   UNL     1      -5.968  12.386  20.258  0.00  0.00    +0.000 A 
ATOM     35  C   UNL     1      -7.045  11.848  19.549  0.00  0.00    +0.000 A 
ATOM     36  C   UNL     1      -6.852  11.309  18.279  0.00  0.00    +0.000 A 
ATOM     37  C   UNL     1      -5.584  11.330  17.708  0.00  0.00    +0.000 A 
ATOM     38  C   UNL     1      -4.504  11.856  18.421  0.00  0.00    +0.000 A 
ENDBRANCH  32  33
ENDBRANCH   9  32
TORSDOF 7
ENDMDL
MODEL 4
REMARK VINA RESULT:      -8.1      1.335      2.258
REMARK  Name = 
REMARK  8 active torsions:
REMARK  status: ('A' for Active; 'I' for Inactive)
REMARK    1  A    between atoms: C_1  and  O_2
REMARK    2  A    between atoms: O_2  and  C_3
REMARK    3  A    between atoms: C_7  and  C_8
REMARK    4  A    between atoms: C_8  and  N_9
REMARK    5  A    between atoms: C_14  and  C_16
REMARK    6  A    between atoms: C_20  and  C_21
REMARK    7  A    between atoms: C_29  and  C_30
REMARK    8  A    between atoms: C_30  and  C_31
REMARK                            x       y       z     vdW  Elec       q    Type
REMARK                         _______ _______ _______ _____ _____    ______ ____
ROOT
ATOM      1  N   UNL     1      -1.995  11.967  22.282  0.00  0.00    +0.000 N 
ATOM      2  C   UNL     1      -0.779  11.299  22.463  0.00  0.00    +0.000 C 
ATOM      3  O   UNL     1      -0.473  10.749  23.524  0.00  0.00    +0.000 OA
ATOM      4  C   UNL     1       0.293  11.461  21.366  0.00  0.00    +0.000 C 
ATOM      5  N   UNL     1      -0.189  11.859  20.056  0.00  0.00    +0.000 N 
ATOM      6  C   UNL     1       0.027  11.212  18.845  0.00  0.00    +0.000 C 
ATOM      7  O   UNL     1      -0.626  11.582  17.862  0.00  0.00    +0.000 OA
ATOM      8  C   UNL     1      -1.248  12.882  20.112  0.00  0.00    +0.000 C 
ATOM      9  C   UNL     1      -2.453  12.324  20.904  0.00  0.00    +0.000 C 
ENDROOT
BRANCH   6  10
ATOM     10  C   UNL     1       0.934  10.084  18.679  0.00  0.00    +0.000 A 
ATOM     11  C   UNL     1       1.006   9.054  19.607  0.00  0.00    +0.000 A 
ATOM     12  C   UNL     1       1.917   8.077  19.172  0.00  0.00    +0.000 A 
ATOM     13  C   UNL     1       2.347   6.853  19.718  0.00  0.00    +0.000 A 
ATOM     14  C   UNL     1       3.317   6.073  19.073  0.00  0.00    +0.000 A 
ATOM     15  C   UNL     1       3.847   6.567  17.871  0.00  0.00    +0.000 A 
ATOM     16  C   UNL     1       3.411   7.780  17.283  0.00  0.00    +0.000 A 
ATOM     17  C   UNL     1       2.433   8.517  17.961  0.00  0.00    +0.000 A 
ATOM     18  N   UNL     1       1.782   9.707  17.650  0.00  0.00    +0.000 N 
ATOM     19  H   UNL     1       1.896  10.191  16.774  0.00  0.00    +0.000 HD
BRANCH  14  20
ATOM     20  C   UNL     1       3.793   4.783  19.707  0.00  0.00    +0.000 C 
ATOM     21  C   UNL     1       2.999   3.506  19.515  0.00  0.00    +0.000 C 
ATOM     22  C   UNL     1       4.336   3.659  18.858  0.00  0.00    +0.000 C 
ENDBRANCH  14  20
ENDBRANCH   6  10
BRANCH   1  23
ATOM     23  C   UNL     1      -2.839  12.173  23.465  0.00  0.00    +0.000 C 
BRANCH  23  28
ATOM     24  C   UNL     1      -3.944  15.687  24.513  0.00  0.00    +0.000 A 
ATOM     25  C   UNL     1      -2.713  16.346  24.561  0.00  0.00    +0.000 A 
ATOM     26  C   UNL     1      -1.530  15.655  24.323  0.00  0.00    +0.000 A 
ATOM     27  C   UNL     1      -1.575  14.300  24.006  0.00  0.00    +0.000 A 
ATOM     28  C   UNL     1      -2.801  13.622  23.912  0.00  0.00    +0.000 A 
ATOM     29  C   UNL     1      -3.982  14.322  24.207  0.00  0.00    +0.000 A 
BRANCH  24  31
ATOM     30  C   UNL     1      -4.770  17.750  25.363  0.00  0.00    +0.000 C 
ATOM     31  O   UNL     1      -5.024  16.488  24.759  0.00  0.00    +0.000 OA
ENDBRANCH  24  31
ENDBRANCH  23  28
ENDBRANCH   1  23
BRANCH   9  32
ATOM     32  C   UNL     1      -3.681  13.271  20.816  0.00  0.00    +0.000 C 
BRANCH  32  33
ATOM     33  C   UNL     1      -5.036  12.656  20.517  0.00  0.00    +0.000 A 
ATOM     34  C   UNL     1      -6.066  12.583  21.465  0.00  0.00    +0.000 A 
ATOM     35  C   UNL     1      -7.285  11.974  21.152  0.00  0.00    +0.000 A 
ATOM     36  C   UNL     1      -7.507  11.463  19.875  0.00  0.00    +0.000 A 
ATOM     37  C   UNL     1      -6.519  11.583  18.904  0.00  0.00    +0.000 A 
ATOM     38  C   UNL     1      -5.296  12.181  19.220  0.00  0.00    +0.000 A 
ENDBRANCH  32  33
ENDBRANCH   9  32
TORSDOF 7
ENDMDL
MODEL 5
REMARK VINA RESULT:      -8.0      3.138      5.480
REMARK  Name = 
REMARK  8 active torsions:
REMARK  status: ('A' for Active; 'I' for Inactive)
REMARK    1  A    between atoms: C_1  and  O_2
REMARK    2  A    between atoms: O_2  and  C_3
REMARK    3  A    between atoms: C_7  and  C_8
REMARK    4  A    between atoms: C_8  and  N_9
REMARK    5  A    between atoms: C_14  and  C_16
REMARK    6  A    between atoms: C_20  and  C_21
REMARK    7  A    between atoms: C_29  and  C_30
REMARK    8  A    between atoms: C_30  and  C_31
REMARK                            x       y       z     vdW  Elec       q    Type
REMARK                         _______ _______ _______ _____ _____    ______ ____
ROOT
ATOM      1  N   UNL     1      -0.660  12.621  19.906  0.00  0.00    +0.000 N 
ATOM      2  C   UNL     1      -0.735  11.480  19.099  0.00  0.00    +0.000 C 
ATOM      3  O   UNL     1      -0.970  11.534  17.889  0.00  0.00    +0.000 OA
ATOM      4  C   UNL     1      -0.746  10.109  19.805  0.00  0.00    +0.000 C 
ATOM      5  N   UNL     1      -0.198  10.078  21.148  0.00  0.00    +0.000 N 
ATOM      6  C   UNL     1       0.815   9.255  21.629  0.00  0.00    +0.000 C 
ATOM      7  O   UNL     1       1.290   9.506  22.743  0.00  0.00    +0.000 OA
ATOM      8  C   UNL     1      -0.577  11.249  21.959  0.00  0.00    +0.000 C 
ATOM      9  C   UNL     1      -0.057  12.533  21.271  0.00  0.00    +0.000 C 
ENDROOT
BRANCH   6  10
ATOM     10  C   UNL     1       1.391   8.152  20.870  0.00  0.00    +0.000 A 
ATOM     11  C   UNL     1       2.073   8.356  19.678  0.00  0.00    +0.000 A 
ATOM     12  C   UNL     1       2.567   7.133  19.192  0.00  0.00    +0.000 A 
ATOM     13  C   UNL     1       3.317   6.784  18.055  0.00  0.00    +0.000 A 
ATOM     14  C   UNL     1       3.653   5.450  17.789  0.00  0.00    +0.000 A 
ATOM     15  C   UNL     1       3.202   4.478  18.696  0.00  0.00    +0.000 A 
ATOM     16  C   UNL     1       2.470   4.804  19.866  0.00  0.00    +0.000 A 
ATOM     17  C   UNL     1       2.170   6.152  20.090  0.00  0.00    +0.000 A 
ATOM     18  N   UNL     1       1.508   6.797  21.131  0.00  0.00    +0.000 N 
ATOM     19  H   UNL     1       1.200   6.330  21.969  0.00  0.00    +0.000 HD
BRANCH  14  20
ATOM     20  C   UNL     1       4.424   5.099  16.534  0.00  0.00    +0.000 C 
ATOM     21  C   UNL     1       5.931   4.945  16.588  0.00  0.00    +0.000 C 
ATOM     22  C   UNL     1       5.065   3.741  16.374  0.00  0.00    +0.000 C 
ENDBRANCH  14  20
ENDBRANCH   6  10
BRANCH   1  23
ATOM     23  C   UNL     1      -1.066  13.900  19.312  0.00  0.00    +0.000 C 
BRANCH  23  28
ATOM     24  C   UNL     1       2.496  14.805  18.235  0.00  0.00    +0.000 A 
ATOM     25  C   UNL     1       2.404  16.197  18.163  0.00  0.00    +0.000 A 
ATOM     26  C   UNL     1       1.191  16.838  18.394  0.00  0.00    +0.000 A 
ATOM     27  C   UNL     1       0.067  16.089  18.728  0.00  0.00    +0.000 A 
ATOM     28  C   UNL     1       0.142  14.691  18.846  0.00  0.00    +0.000 A 
ATOM     29  C   UNL     1       1.360  14.055  18.557  0.00  0.00    +0.000 A 
BRANCH  24  31
ATOM     30  C   UNL     1       4.810  15.248  17.903  0.00  0.00    +0.000 C 
ATOM     31  O   UNL     1       3.747  14.309  17.993  0.00  0.00    +0.000 OA
ENDBRANCH  24  31
ENDBRANCH  23  28
ENDBRANCH   1  23
BRANCH   9  32
ATOM     32  C   UNL     1      -0.237  13.780  22.180  0.00  0.00    +0.000 C 
BRANCH  32  33
ATOM     33  C   UNL     1       0.814  14.872  22.108  0.00  0.00    +0.000 A 
ATOM     34  C   UNL     1       0.520  16.227  22.314  0.00  0.00    +0.000 A 
ATOM     35  C   UNL     1       1.518  17.200  22.202  0.00  0.00    +0.000 A 
ATOM     36  C   UNL     1       2.831  16.830  21.921  0.00  0.00    +0.000 A 
ATOM     37  C   UNL     1       3.152  15.485  21.776  0.00  0.00    +0.000 A 
ATOM     38  C   UNL     1       2.154  14.513  21.875  0.00  0.00    +0.000 A 
ENDBRANCH  32  33
ENDBRANCH   9  32
TORSDOF 7
ENDMDL
MODEL 6
REMARK VINA RESULT:      -7.8      1.892      4.139
REMARK  Name = 
REMARK  8 active torsions:
REMARK  status: ('A' for Active; 'I' for Inactive)
REMARK    1  A    between atoms: C_1  and  O_2
REMARK    2  A    between atoms: O_2  and  C_3
REMARK    3  A    between atoms: C_7  and  C_8
REMARK    4  A    between atoms: C_8  and  N_9
REMARK    5  A    between atoms: C_14  and  C_16
REMARK    6  A    between atoms: C_20  and  C_21
REMARK    7  A    between atoms: C_29  and  C_30
REMARK    8  A    between atoms: C_30  and  C_31
REMARK                            x       y       z     vdW  Elec       q    Type
REMARK                         _______ _______ _______ _____ _____    ______ ____
ROOT
ATOM      1  N   UNL     1      -0.922  12.274  20.287  0.00  0.00    +0.000 N 
ATOM      2  C   UNL     1      -0.931  11.215  19.371  0.00  0.00    +0.000 C 
ATOM      3  O   UNL     1      -1.235  11.364  18.185  0.00  0.00    +0.000 OA
ATOM      4  C   UNL     1      -0.772   9.787  19.932  0.00  0.00    +0.000 C 
ATOM      5  N   UNL     1      -0.152   9.680  21.240  0.00  0.00    +0.000 N 
ATOM      6  C   UNL     1       0.960   8.921  21.588  0.00  0.00    +0.000 C 
ATOM      7  O   UNL     1       1.468   9.108  22.700  0.00  0.00    +0.000 OA
ATOM      8  C   UNL     1      -0.597  10.722  22.182  0.00  0.00    +0.000 C 
ATOM      9  C   UNL     1      -0.241  12.113  21.608  0.00  0.00    +0.000 C 
ENDROOT
BRANCH   6  10
ATOM     10  C   UNL     1       1.598   7.962  20.696  0.00  0.00    +0.000 A 
ATOM     11  C   UNL     1       2.276   8.359  19.551  0.00  0.00    +0.000 A 
ATOM     12  C   UNL     1       2.837   7.241  18.912  0.00  0.00    +0.000 A 
ATOM     13  C   UNL     1       3.612   7.087  17.748  0.00  0.00    +0.000 A 
ATOM     14  C   UNL     1       4.019   5.820  17.309  0.00  0.00    +0.000 A 
ATOM     15  C   UNL     1       3.612   4.713  18.070  0.00  0.00    +0.000 A 
ATOM     16  C   UNL     1       2.856   4.839  19.263  0.00  0.00    +0.000 A 
ATOM     17  C   UNL     1       2.485   6.127  19.663  0.00  0.00    +0.000 A 
ATOM     18  N   UNL     1       1.783   6.591  20.772  0.00  0.00    +0.000 N 
ATOM     19  H   UNL     1       1.494   6.000  21.535  0.00  0.00    +0.000 HD
BRANCH  14  20
ATOM     20  C   UNL     1       4.815   5.682  16.029  0.00  0.00    +0.000 C 
ATOM     21  C   UNL     1       6.286   5.323  16.086  0.00  0.00    +0.000 C 
ATOM     22  C   UNL     1       5.297   4.331  15.559  0.00  0.00    +0.000 C 
ENDBRANCH  14  20
ENDBRANCH   6  10
BRANCH   1  23
ATOM     23  C   UNL     1      -1.482  13.557  19.846  0.00  0.00    +0.000 C 
BRANCH  23  28
ATOM     24  C   UNL     1      -5.180  12.795  20.489  0.00  0.00    +0.000 A 
ATOM     25  C   UNL     1      -5.633  14.041  20.926  0.00  0.00    +0.000 A 
ATOM     26  C   UNL     1      -4.747  15.104  21.077  0.00  0.00    +0.000 A 
ATOM     27  C   UNL     1      -3.402  14.930  20.763  0.00  0.00    +0.000 A 
ATOM     28  C   UNL     1      -2.927  13.698  20.283  0.00  0.00    +0.000 A 
ATOM     29  C   UNL     1      -3.824  12.622  20.187  0.00  0.00    +0.000 A 
BRANCH  24  31
ATOM     30  C   UNL     1      -7.208  11.883  21.335  0.00  0.00    +0.000 C 
ATOM     31  O   UNL     1      -6.157  11.846  20.378  0.00  0.00    +0.000 OA
ENDBRANCH  24  31
ENDBRANCH  23  28
ENDBRANCH   1  23
BRANCH   9  32
ATOM     32  C   UNL     1      -0.491  13.240  22.648  0.00  0.00    +0.000 C 
BRANCH  32  33
ATOM     33  C   UNL     1      -1.832  13.269  23.360  0.00  0.00    +0.000 A 
ATOM     34  C   UNL     1      -2.672  12.151  23.447  0.00  0.00    +0.000 A 
ATOM     35  C   UNL     1      -3.914  12.239  24.084  0.00  0.00    +0.000 A 
ATOM     36  C   UNL     1      -4.317  13.434  24.675  0.00  0.00    +0.000 A 
ATOM     37  C   UNL     1      -3.469  14.535  24.652  0.00  0.00    +0.000 A 
ATOM     38  C   UNL     1      -2.232  14.452  24.005  0.00  0.00    +0.000 A 
ENDBRANCH  32  33
ENDBRANCH   9  32
TORSDOF 7
ENDMDL
MODEL 7
REMARK VINA RESULT:      -7.8      2.581      4.420
REMARK  Name = 
REMARK  8 active torsions:
REMARK  status: ('A' for Active; 'I' for Inactive)
REMARK    1  A    between atoms: C_1  and  O_2
REMARK    2  A    between atoms: O_2  and  C_3
REMARK    3  A    between atoms: C_7  and  C_8
REMARK    4  A    between atoms: C_8  and  N_9
REMARK    5  A    between atoms: C_14  and  C_16
REMARK    6  A    between atoms: C_20  and  C_21
REMARK    7  A    between atoms: C_29  and  C_30
REMARK    8  A    between atoms: C_30  and  C_31
REMARK                            x       y       z     vdW  Elec       q    Type
REMARK                         _______ _______ _______ _____ _____    ______ ____
ROOT
ATOM      1  N   UNL     1      -0.736  12.233  19.972  0.00  0.00    +0.000 N 
ATOM      2  C   UNL     1      -0.782  11.114  19.132  0.00  0.00    +0.000 C 
ATOM      3  O   UNL     1      -1.079  11.191  17.937  0.00  0.00    +0.000 OA
ATOM      4  C   UNL     1      -0.679   9.724  19.792  0.00  0.00    +0.000 C 
ATOM      5  N   UNL     1      -0.066   9.686  21.107  0.00  0.00    +0.000 N 
ATOM      6  C   UNL     1       1.015   8.912  21.512  0.00  0.00    +0.000 C 
ATOM      7  O   UNL     1       1.528   9.157  22.611  0.00  0.00    +0.000 OA
ATOM      8  C   UNL     1      -0.474  10.807  21.972  0.00  0.00    +0.000 C 
ATOM      9  C   UNL     1      -0.064  12.140  21.304  0.00  0.00    +0.000 C 
ENDROOT
BRANCH   6  10
ATOM     10  C   UNL     1       1.618   7.869  20.692  0.00  0.00    +0.000 A 
ATOM     11  C   UNL     1       2.284   8.156  19.508  0.00  0.00    +0.000 A 
ATOM     12  C   UNL     1       2.811   6.977  18.954  0.00  0.00    +0.000 A 
ATOM     13  C   UNL     1       3.562   6.712  17.794  0.00  0.00    +0.000 A 
ATOM     14  C   UNL     1       3.936   5.405  17.456  0.00  0.00    +0.000 A 
ATOM     15  C   UNL     1       3.521   4.373  18.312  0.00  0.00    +0.000 A 
ATOM     16  C   UNL     1       2.789   4.613  19.502  0.00  0.00    +0.000 A 
ATOM     17  C   UNL     1       2.450   5.937  19.800  0.00  0.00    +0.000 A 
ATOM     18  N   UNL     1       1.778   6.505  20.878  0.00  0.00    +0.000 N 
ATOM     19  H   UNL     1       1.490   5.985  21.692  0.00  0.00    +0.000 HD
BRANCH  14  20
ATOM     20  C   UNL     1       4.707   5.146  16.179  0.00  0.00    +0.000 C 
ATOM     21  C   UNL     1       6.220   5.072  16.208  0.00  0.00    +0.000 C 
ATOM     22  C   UNL     1       5.418   3.832  15.957  0.00  0.00    +0.000 C 
ENDBRANCH  14  20
ENDBRANCH   6  10
BRANCH   1  23
ATOM     23  C   UNL     1      -1.245  13.502  19.440  0.00  0.00    +0.000 C 
BRANCH  23  28
ATOM     24  C   UNL     1       2.224  14.760  18.413  0.00  0.00    +0.000 A 
ATOM     25  C   UNL     1       2.031  16.142  18.474  0.00  0.00    +0.000 A 
ATOM     26  C   UNL     1       0.780  16.669  18.777  0.00  0.00    +0.000 A 
ATOM     27  C   UNL     1      -0.282  15.812  19.051  0.00  0.00    +0.000 A 
ATOM     28  C   UNL     1      -0.106  14.419  19.037  0.00  0.00    +0.000 A 
ATOM     29  C   UNL     1       1.150  13.902  18.676  0.00  0.00    +0.000 A 
BRANCH  24  31
ATOM     30  C   UNL     1       4.413  15.407  17.743  0.00  0.00    +0.000 C 
ATOM     31  O   UNL     1       3.502  14.381  18.112  0.00  0.00    +0.000 OA
ENDBRANCH  24  31
ENDBRANCH  23  28
ENDBRANCH   1  23
BRANCH   9  32
ATOM     32  C   UNL     1      -0.273  13.345  22.261  0.00  0.00    +0.000 C 
BRANCH  32  33
ATOM     33  C   UNL     1      -1.561  13.405  23.062  0.00  0.00    +0.000 A 
ATOM     34  C   UNL     1      -2.595  12.471  22.913  0.00  0.00    +0.000 A 
ATOM     35  C   UNL     1      -3.777  12.590  23.650  0.00  0.00    +0.000 A 
ATOM     36  C   UNL     1      -3.929  13.622  24.572  0.00  0.00    +0.000 A 
ATOM     37  C   UNL     1      -2.888  14.521  24.778  0.00  0.00    +0.000 A 
ATOM     38  C   UNL     1      -1.711  14.410  24.034  0.00  0.00    +0.000 A 
ENDBRANCH  32  33
ENDBRANCH   9  32
TORSDOF 7
ENDMDL
MODEL 8
REMARK VINA RESULT:      -7.7      3.268      5.628
REMARK  Name = 
REMARK  8 active torsions:
REMARK  status: ('A' for Active; 'I' for Inactive)
REMARK    1  A    between atoms: C_1  and  O_2
REMARK    2  A    between atoms: O_2  and  C_3
REMARK    3  A    between atoms: C_7  and  C_8
REMARK    4  A    between atoms: C_8  and  N_9
REMARK    5  A    between atoms: C_14  and  C_16
REMARK    6  A    between atoms: C_20  and  C_21
REMARK    7  A    between atoms: C_29  and  C_30
REMARK    8  A    between atoms: C_30  and  C_31
REMARK                            x       y       z     vdW  Elec       q    Type
REMARK                         _______ _______ _______ _____ _____    ______ ____
ROOT
ATOM      1  N   UNL     1      -0.447  12.598  19.777  0.00  0.00    +0.000 N 
ATOM      2  C   UNL     1      -0.563  11.449  18.986  0.00  0.00    +0.000 C 
ATOM      3  O   UNL     1      -0.784  11.495  17.773  0.00  0.00    +0.000 OA
ATOM      4  C   UNL     1      -0.640  10.090  19.712  0.00  0.00    +0.000 C 
ATOM      5  N   UNL     1      -0.108  10.056  21.061  0.00  0.00    +0.000 N 
ATOM      6  C   UNL     1       0.864   9.198  21.564  0.00  0.00    +0.000 C 
ATOM      7  O   UNL     1       1.338   9.444  22.679  0.00  0.00    +0.000 OA
ATOM      8  C   UNL     1      -0.443  11.254  21.850  0.00  0.00    +0.000 C 
ATOM      9  C   UNL     1       0.138  12.504  21.149  0.00  0.00    +0.000 C 
ENDROOT
BRANCH   6  10
ATOM     10  C   UNL     1       1.399   8.060  20.828  0.00  0.00    +0.000 A 
ATOM     11  C   UNL     1       2.167   8.220  19.682  0.00  0.00    +0.000 A 
ATOM     12  C   UNL     1       2.595   6.966  19.212  0.00  0.00    +0.000 A 
ATOM     13  C   UNL     1       3.385   6.570  18.117  0.00  0.00    +0.000 A 
ATOM     14  C   UNL     1       3.633   5.215  17.856  0.00  0.00    +0.000 A 
ATOM     15  C   UNL     1       3.054   4.274  18.721  0.00  0.00    +0.000 A 
ATOM     16  C   UNL     1       2.279   4.646  19.848  0.00  0.00    +0.000 A 
ATOM     17  C   UNL     1       2.069   6.011  20.071  0.00  0.00    +0.000 A 
ATOM     18  N   UNL     1       1.396   6.697  21.078  0.00  0.00    +0.000 N 
ATOM     19  H   UNL     1       1.002   6.249  21.890  0.00  0.00    +0.000 HD
BRANCH  14  20
ATOM     20  C   UNL     1       4.450   4.816  16.645  0.00  0.00    +0.000 C 
ATOM     21  C   UNL     1       5.284   5.852  15.918  0.00  0.00    +0.000 C 
ATOM     22  C   UNL     1       5.958   4.774  16.709  0.00  0.00    +0.000 C 
ENDBRANCH  14  20
ENDBRANCH   6  10
BRANCH   1  23
ATOM     23  C   UNL     1      -0.792  13.884  19.160  0.00  0.00    +0.000 C 
BRANCH  23  28
ATOM     24  C   UNL     1       1.582  16.731  18.196  0.00  0.00    +0.000 A 
ATOM     25  C   UNL     1       2.723  16.011  17.835  0.00  0.00    +0.000 A 
ATOM     26  C   UNL     1       2.755  14.626  17.961  0.00  0.00    +0.000 A 
ATOM     27  C   UNL     1       1.631  13.949  18.424  0.00  0.00    +0.000 A 
ATOM     28  C   UNL     1       0.457  14.645  18.757  0.00  0.00    +0.000 A 
ATOM     29  C   UNL     1       0.459  16.047  18.674  0.00  0.00    +0.000 A 
BRANCH  24  31
ATOM     30  C   UNL     1       1.056  18.631  16.863  0.00  0.00    +0.000 C 
ATOM     31  O   UNL     1       1.685  18.082  18.014  0.00  0.00    +0.000 OA
ENDBRANCH  24  31
ENDBRANCH  23  28
ENDBRANCH   1  23
BRANCH   9  32
ATOM     32  C   UNL     1       0.003  13.771  22.038  0.00  0.00    +0.000 C 
BRANCH  32  33
ATOM     33  C   UNL     1       1.105  14.812  21.968  0.00  0.00    +0.000 A 
ATOM     34  C   UNL     1       0.885  16.173  22.220  0.00  0.00    +0.000 A 
ATOM     35  C   UNL     1       1.926  17.099  22.108  0.00  0.00    +0.000 A 
ATOM     36  C   UNL     1       3.211  16.674  21.779  0.00  0.00    +0.000 A 
ATOM     37  C   UNL     1       3.461  15.319  21.587  0.00  0.00    +0.000 A 
ATOM     38  C   UNL     1       2.418  14.395  21.687  0.00  0.00    +0.000 A 
ENDBRANCH  32  33
ENDBRANCH   9  32
TORSDOF 7
ENDMDL
MODEL 9
REMARK VINA RESULT:      -7.6      1.991      4.450
REMARK  Name = 
REMARK  8 active torsions:
REMARK  status: ('A' for Active; 'I' for Inactive)
REMARK    1  A    between atoms: C_1  and  O_2
REMARK    2  A    between atoms: O_2  and  C_3
REMARK    3  A    between atoms: C_7  and  C_8
REMARK    4  A    between atoms: C_8  and  N_9
REMARK    5  A    between atoms: C_14  and  C_16
REMARK    6  A    between atoms: C_20  and  C_21
REMARK    7  A    between atoms: C_29  and  C_30
REMARK    8  A    between atoms: C_30  and  C_31
REMARK                            x       y       z     vdW  Elec       q    Type
REMARK                         _______ _______ _______ _____ _____    ______ ____
ROOT
ATOM      1  N   UNL     1      -1.215  12.323  20.325  0.00  0.00    +0.000 N 
ATOM      2  C   UNL     1      -1.260  11.194  19.498  0.00  0.00    +0.000 C 
ATOM      3  O   UNL     1      -1.696  11.230  18.345  0.00  0.00    +0.000 OA
ATOM      4  C   UNL     1      -0.962   9.826  20.146  0.00  0.00    +0.000 C 
ATOM      5  N   UNL     1      -0.202   9.857  21.381  0.00  0.00    +0.000 N 
ATOM      6  C   UNL     1       0.981   9.183  21.662  0.00  0.00    +0.000 C 
ATOM      7  O   UNL     1       1.593   9.484  22.694  0.00  0.00    +0.000 OA
ATOM      8  C   UNL     1      -0.604  10.949  22.285  0.00  0.00    +0.000 C 
ATOM      9  C   UNL     1      -0.389  12.304  21.571  0.00  0.00    +0.000 C 
ENDROOT
BRANCH   6  10
ATOM     10  C   UNL     1       1.574   8.185  20.781  0.00  0.00    +0.000 A 
ATOM     11  C   UNL     1       1.651   6.844  21.133  0.00  0.00    +0.000 A 
ATOM     12  C   UNL     1       2.215   6.102  20.081  0.00  0.00    +0.000 A 
ATOM     13  C   UNL     1       2.504   4.735  19.917  0.00  0.00    +0.000 A 
ATOM     14  C   UNL     1       3.114   4.259  18.749  0.00  0.00    +0.000 A 
ATOM     15  C   UNL     1       3.435   5.200  17.758  0.00  0.00    +0.000 A 
ATOM     16  C   UNL     1       3.129   6.579  17.884  0.00  0.00    +0.000 A 
ATOM     17  C   UNL     1       2.510   7.002  19.066  0.00  0.00    +0.000 A 
ATOM     18  N   UNL     1       2.061   8.250  19.485  0.00  0.00    +0.000 N 
ATOM     19  H   UNL     1       2.061   9.069  18.897  0.00  0.00    +0.000 HD
BRANCH  14  20
ATOM     20  C   UNL     1       3.452   2.789  18.618  0.00  0.00    +0.000 C 
ATOM     21  C   UNL     1       2.388   1.801  18.182  0.00  0.00    +0.000 C 
ATOM     22  C   UNL     1       3.523   2.129  17.262  0.00  0.00    +0.000 C 
ENDBRANCH  14  20
ENDBRANCH   6  10
BRANCH   1  23
ATOM     23  C   UNL     1      -1.889  13.537  19.851  0.00  0.00    +0.000 C 
BRANCH  23  28
ATOM     24  C   UNL     1      -5.450  12.707  20.992  0.00  0.00    +0.000 A 
ATOM     25  C   UNL     1      -5.889  13.962  21.417  0.00  0.00    +0.000 A 
ATOM     26  C   UNL     1      -5.030  15.056  21.401  0.00  0.00    +0.000 A 
ATOM     27  C   UNL     1      -3.729  14.904  20.929  0.00  0.00    +0.000 A 
ATOM     28  C   UNL     1      -3.274  13.661  20.458  0.00  0.00    +0.000 A 
ATOM     29  C   UNL     1      -4.137  12.556  20.531  0.00  0.00    +0.000 A 
BRANCH  24  31
ATOM     30  C   UNL     1      -7.014  11.340  19.832  0.00  0.00    +0.000 C 
ATOM     31  O   UNL     1      -6.399  11.725  21.054  0.00  0.00    +0.000 OA
ENDBRANCH  24  31
ENDBRANCH  23  28
ENDBRANCH   1  23
BRANCH   9  32
ATOM     32  C   UNL     1      -0.591  13.499  22.543  0.00  0.00    +0.000 C 
BRANCH  32  33
ATOM     33  C   UNL     1      -1.827  13.500  23.424  0.00  0.00    +0.000 A 
ATOM     34  C   UNL     1      -2.689  12.400  23.530  0.00  0.00    +0.000 A 
ATOM     35  C   UNL     1      -3.835  12.465  24.329  0.00  0.00    +0.000 A 
ATOM     36  C   UNL     1      -4.116  13.614  25.063  0.00  0.00    +0.000 A 
ATOM     37  C   UNL     1      -3.238  14.692  25.019  0.00  0.00    +0.000 A 
ATOM     38  C   UNL     1      -2.099  14.633  24.212  0.00  0.00    +0.000 A 
ENDBRANCH  32  33
ENDBRANCH   9  32
TORSDOF 7
ENDMDL
