MODEL 1
REMARK VINA RESULT:      -6.6      0.000      0.000
REMARK  Name = 
REMARK  5 active torsions:
REMARK  status: ('A' for Active; 'I' for Inactive)
REMARK    1  A    between atoms: C_1  and  C_2
REMARK    2  A    between atoms: C_2  and  C_3
REMARK    3  A    between atoms: C_2  and  N_4
REMARK    4  A    between atoms: C_8  and  C_9
REMARK    5  A    between atoms: C_12  and  N_13
REMARK                            x       y       z     vdW  Elec       q    Type
REMARK                         _______ _______ _______ _____ _____    ______ ____
ROOT
ATOM      1  N   UNL     1       4.561   4.897  17.160  0.00  0.00    +0.000 N 
ATOM      2  C   UNL     1       4.491   6.280  17.065  0.00  0.00    +0.000 C 
ATOM      3  O   UNL     1       5.249   7.012  16.443  0.00  0.00    +0.000 OA
ATOM      4  C   UNL     1       3.337   6.803  17.845  0.00  0.00    +0.000 C 
ATOM      5  C   UNL     1       3.028   8.107  17.825  0.00  0.00    +0.000 C 
ATOM      6  S   UNL     1       2.539   5.512  18.641  0.00  0.00    +0.000 S 
ATOM      7  C   UNL     1       3.614   4.297  17.970  0.00  0.00    +0.000 C 
ATOM      8  S   UNL     1       3.414   2.677  18.322  0.00  0.00    +0.000 S 
ENDROOT
BRANCH   5   9
ATOM      9  C   UNL     1       1.958   8.680  18.566  0.00  0.00    +0.000 A 
ATOM     10  C   UNL     1       0.989   9.590  18.142  0.00  0.00    +0.000 A 
ATOM     11  C   UNL     1       0.141   9.882  19.242  0.00  0.00    +0.000 A 
ATOM     12  C   UNL     1       0.648   9.150  20.282  0.00  0.00    +0.000 A 
ATOM     13  O   UNL     1       1.732   8.433  19.903  0.00  0.00    +0.000 OA
BRANCH  12  14
ATOM     14  N   UNL     1       0.252   9.019  21.649  0.00  0.00    +0.000 N 
ATOM     15  O   UNL     1       0.841   9.752  22.457  0.00  0.00    +0.000 OA
ATOM     16  O   UNL     1      -0.629   8.197  21.926  0.00  0.00    +0.000 OA
ENDBRANCH  12  14
ENDBRANCH   5   9
BRANCH   1  18
ATOM     17  C   UNL     1       5.498   4.300  14.925  0.00  0.00    +0.000 C 
ATOM     18  C   UNL     1       5.621   4.157  16.444  0.00  0.00    +0.000 C 
ATOM     19  C   UNL     1       7.018   4.540  16.937  0.00  0.00    +0.000 C 
ENDBRANCH   1  18
TORSDOF 3
ENDMDL
MODEL 2
REMARK VINA RESULT:      -6.6      4.127      7.705
REMARK  Name = 
REMARK  5 active torsions:
REMARK  status: ('A' for Active; 'I' for Inactive)
REMARK    1  A    between atoms: C_1  and  C_2
REMARK    2  A    between atoms: C_2  and  C_3
REMARK    3  A    between atoms: C_2  and  N_4
REMARK    4  A    between atoms: C_8  and  C_9
REMARK    5  A    between atoms: C_12  and  N_13
REMARK                            x       y       z     vdW  Elec       q    Type
REMARK                         _______ _______ _______ _____ _____    ______ ____
ROOT
ATOM      1  N   UNL     1       2.545   4.551  19.444  0.00  0.00    +0.000 N 
ATOM      2  C   UNL     1       3.255   3.566  18.771  0.00  0.00    +0.000 C 
ATOM      3  O   UNL     1       3.211   2.361  18.977  0.00  0.00    +0.000 OA
ATOM      4  C   UNL     1       4.125   4.167  17.724  0.00  0.00    +0.000 C 
ATOM      5  C   UNL     1       4.837   3.392  16.894  0.00  0.00    +0.000 C 
ATOM      6  S   UNL     1       3.989   5.875  17.763  0.00  0.00    +0.000 S 
ATOM      7  C   UNL     1       2.808   5.855  19.062  0.00  0.00    +0.000 C 
ATOM      8  S   UNL     1       2.156   7.271  19.659  0.00  0.00    +0.000 S 
ENDROOT
BRANCH   5   9
ATOM      9  C   UNL     1       5.708   3.896  15.889  0.00  0.00    +0.000 A 
ATOM     10  C   UNL     1       6.734   4.833  16.011  0.00  0.00    +0.000 A 
ATOM     11  C   UNL     1       7.312   5.028  14.730  0.00  0.00    +0.000 A 
ATOM     12  C   UNL     1       6.597   4.214  13.892  0.00  0.00    +0.000 A 
ATOM     13  O   UNL     1       5.634   3.537  14.560  0.00  0.00    +0.000 OA
BRANCH  12  14
ATOM     14  N   UNL     1       6.682   3.968  12.487  0.00  0.00    +0.000 N 
ATOM     15  O   UNL     1       5.947   3.071  12.048  0.00  0.00    +0.000 OA
ATOM     16  O   UNL     1       7.470   4.650  11.820  0.00  0.00    +0.000 OA
ENDBRANCH  12  14
ENDBRANCH   5   9
BRANCH   1  18
ATOM     17  C   UNL     1       0.502   3.238  20.017  0.00  0.00    +0.000 C 
ATOM     18  C   UNL     1       1.598   4.183  20.516  0.00  0.00    +0.000 C 
ATOM     19  C   UNL     1       2.316   3.616  21.743  0.00  0.00    +0.000 C 
ENDBRANCH   1  18
TORSDOF 3
ENDMDL
MODEL 3
REMARK VINA RESULT:      -6.6      2.981      6.740
REMARK  Name = 
REMARK  5 active torsions:
REMARK  status: ('A' for Active; 'I' for Inactive)
REMARK    1  A    between atoms: C_1  and  C_2
REMARK    2  A    between atoms: C_2  and  C_3
REMARK    3  A    between atoms: C_2  and  N_4
REMARK    4  A    between atoms: C_8  and  C_9
REMARK    5  A    between atoms: C_12  and  N_13
REMARK                            x       y       z     vdW  Elec       q    Type
REMARK                         _______ _______ _______ _____ _____    ______ ____
ROOT
ATOM      1  N   UNL     1       1.110   9.640  19.516  0.00  0.00    +0.000 N 
ATOM      2  C   UNL     1       1.803   9.072  18.456  0.00  0.00    +0.000 C 
ATOM      3  O   UNL     1       1.985   9.565  17.351  0.00  0.00    +0.000 OA
ATOM      4  C   UNL     1       2.321   7.728  18.826  0.00  0.00    +0.000 C 
ATOM      5  C   UNL     1       3.095   7.032  17.981  0.00  0.00    +0.000 C 
ATOM      6  S   UNL     1       1.823   7.329  20.416  0.00  0.00    +0.000 S 
ATOM      7  C   UNL     1       0.996   8.859  20.652  0.00  0.00    +0.000 C 
ATOM      8  S   UNL     1       0.227   9.214  22.091  0.00  0.00    +0.000 S 
ENDROOT
BRANCH   5   9
ATOM      9  C   UNL     1       3.603   5.733  18.257  0.00  0.00    +0.000 A 
ATOM     10  C   UNL     1       4.817   5.375  18.844  0.00  0.00    +0.000 A 
ATOM     11  C   UNL     1       4.885   3.958  18.896  0.00  0.00    +0.000 A 
ATOM     12  C   UNL     1       3.719   3.527  18.322  0.00  0.00    +0.000 A 
ATOM     13  O   UNL     1       2.945   4.567  17.930  0.00  0.00    +0.000 OA
BRANCH  12  14
ATOM     14  N   UNL     1       3.197   2.222  18.069  0.00  0.00    +0.000 N 
ATOM     15  O   UNL     1       2.187   2.171  17.351  0.00  0.00    +0.000 OA
ATOM     16  O   UNL     1       3.773   1.253  18.577  0.00  0.00    +0.000 OA
ENDBRANCH  12  14
ENDBRANCH   5   9
BRANCH   1  18
ATOM     17  C   UNL     1       1.568  12.035  18.982  0.00  0.00    +0.000 C 
ATOM     18  C   UNL     1       0.523  10.989  19.381  0.00  0.00    +0.000 C 
ATOM     19  C   UNL     1      -0.677  10.998  18.431  0.00  0.00    +0.000 C 
ENDBRANCH   1  18
TORSDOF 3
ENDMDL
MODEL 4
REMARK VINA RESULT:      -6.5      3.834      7.510
REMARK  Name = 
REMARK  5 active torsions:
REMARK  status: ('A' for Active; 'I' for Inactive)
REMARK    1  A    between atoms: C_1  and  C_2
REMARK    2  A    between atoms: C_2  and  C_3
REMARK    3  A    between atoms: C_2  and  N_4
REMARK    4  A    between atoms: C_8  and  C_9
REMARK    5  A    between atoms: C_12  and  N_13
REMARK                            x       y       z     vdW  Elec       q    Type
REMARK                         _______ _______ _______ _____ _____    ______ ____
ROOT
ATOM      1  N   UNL     1       3.169   4.212  19.487  0.00  0.00    +0.000 N 
ATOM      2  C   UNL     1       4.342   4.830  19.077  0.00  0.00    +0.000 C 
ATOM      3  O   UNL     1       5.056   5.565  19.746  0.00  0.00    +0.000 OA
ATOM      4  C   UNL     1       4.648   4.490  17.662  0.00  0.00    +0.000 C 
ATOM      5  C   UNL     1       5.783   4.910  17.083  0.00  0.00    +0.000 C 
ATOM      6  S   UNL     1       3.405   3.502  17.017  0.00  0.00    +0.000 S 
ATOM      7  C   UNL     1       2.508   3.468  18.526  0.00  0.00    +0.000 C 
ATOM      8  S   UNL     1       1.081   2.613  18.663  0.00  0.00    +0.000 S 
ENDROOT
BRANCH   5   9
ATOM      9  C   UNL     1       6.128   4.645  15.730  0.00  0.00    +0.000 A 
ATOM     10  C   UNL     1       5.690   3.613  14.900  0.00  0.00    +0.000 A 
ATOM     11  C   UNL     1       6.324   3.756  13.639  0.00  0.00    +0.000 A 
ATOM     12  C   UNL     1       7.128   4.857  13.770  0.00  0.00    +0.000 A 
ATOM     13  O   UNL     1       7.031   5.397  15.008  0.00  0.00    +0.000 OA
BRANCH  12  14
ATOM     14  N   UNL     1       8.023   5.507  12.867  0.00  0.00    +0.000 N 
ATOM     15  O   UNL     1       9.018   6.041  13.378  0.00  0.00    +0.000 OA
ATOM     16  O   UNL     1       7.745   5.498  11.661  0.00  0.00    +0.000 OA
ENDBRANCH  12  14
ENDBRANCH   5   9
BRANCH   1  18
ATOM     17  C   UNL     1       1.507   5.375  20.942  0.00  0.00    +0.000 C 
ATOM     18  C   UNL     1       2.679   4.392  20.870  0.00  0.00    +0.000 C 
ATOM     19  C   UNL     1       2.338   3.056  21.533  0.00  0.00    +0.000 C 
ENDBRANCH   1  18
TORSDOF 3
ENDMDL
MODEL 5
REMARK VINA RESULT:      -6.5      2.617      6.916
REMARK  Name = 
REMARK  5 active torsions:
REMARK  status: ('A' for Active; 'I' for Inactive)
REMARK    1  A    between atoms: C_1  and  C_2
REMARK    2  A    between atoms: C_2  and  C_3
REMARK    3  A    between atoms: C_2  and  N_4
REMARK    4  A    between atoms: C_8  and  C_9
REMARK    5  A    between atoms: C_12  and  N_13
REMARK                            x       y       z     vdW  Elec       q    Type
REMARK                         _______ _______ _______ _____ _____    ______ ____
ROOT
ATOM      1  N   UNL     1       1.061   9.429  19.438  0.00  0.00    +0.000 N 
ATOM      2  C   UNL     1       1.806   9.154  18.300  0.00  0.00    +0.000 C 
ATOM      3  O   UNL     1       1.852   9.821  17.275  0.00  0.00    +0.000 OA
ATOM      4  C   UNL     1       2.577   7.893  18.468  0.00  0.00    +0.000 C 
ATOM      5  C   UNL     1       3.433   7.479  17.524  0.00  0.00    +0.000 C 
ATOM      6  S   UNL     1       2.221   7.191  19.990  0.00  0.00    +0.000 S 
ATOM      7  C   UNL     1       1.135   8.491  20.452  0.00  0.00    +0.000 C 
ATOM      8  S   UNL     1       0.369   8.491  21.936  0.00  0.00    +0.000 S 
ENDROOT
BRANCH   5   9
ATOM      9  C   UNL     1       4.182   6.273  17.605  0.00  0.00    +0.000 A 
ATOM     10  C   UNL     1       3.720   4.960  17.684  0.00  0.00    +0.000 A 
ATOM     11  C   UNL     1       4.843   4.096  17.762  0.00  0.00    +0.000 A 
ATOM     12  C   UNL     1       5.930   4.929  17.746  0.00  0.00    +0.000 A 
ATOM     13  O   UNL     1       5.559   6.228  17.658  0.00  0.00    +0.000 OA
BRANCH  12  14
ATOM     14  N   UNL     1       7.335   4.677  17.808  0.00  0.00    +0.000 N 
ATOM     15  O   UNL     1       7.851   4.753  18.933  0.00  0.00    +0.000 OA
ATOM     16  O   UNL     1       7.928   4.412  16.756  0.00  0.00    +0.000 OA
ENDBRANCH  12  14
ENDBRANCH   5   9
BRANCH   1  18
ATOM     17  C   UNL     1       1.058  11.922  19.308  0.00  0.00    +0.000 C 
ATOM     18  C   UNL     1       0.230  10.650  19.505  0.00  0.00    +0.000 C 
ATOM     19  C   UNL     1      -0.952  10.590  18.535  0.00  0.00    +0.000 C 
ENDBRANCH   1  18
TORSDOF 3
ENDMDL
MODEL 6
REMARK VINA RESULT:      -6.4      2.962      6.850
REMARK  Name = 
REMARK  5 active torsions:
REMARK  status: ('A' for Active; 'I' for Inactive)
REMARK    1  A    between atoms: C_1  and  C_2
REMARK    2  A    between atoms: C_2  and  C_3
REMARK    3  A    between atoms: C_2  and  N_4
REMARK    4  A    between atoms: C_8  and  C_9
REMARK    5  A    between atoms: C_12  and  N_13
REMARK                            x       y       z     vdW  Elec       q    Type
REMARK                         _______ _______ _______ _____ _____    ______ ____
ROOT
ATOM      1  N   UNL     1       0.769  10.213  20.332  0.00  0.00    +0.000 N 
ATOM      2  C   UNL     1       1.302   9.733  19.144  0.00  0.00    +0.000 C 
ATOM      3  O   UNL     1       1.430  10.351  18.096  0.00  0.00    +0.000 OA
ATOM      4  C   UNL     1       1.715   8.311  19.289  0.00  0.00    +0.000 C 
ATOM      5  C   UNL     1       2.335   7.670  18.288  0.00  0.00    +0.000 C 
ATOM      6  S   UNL     1       1.327   7.749  20.860  0.00  0.00    +0.000 S 
ATOM      7  C   UNL     1       0.681   9.300  21.368  0.00  0.00    +0.000 C 
ATOM      8  S   UNL     1       0.086   9.525  22.912  0.00  0.00    +0.000 S 
ENDROOT
BRANCH   5   9
ATOM      9  C   UNL     1       2.734   6.306  18.347  0.00  0.00    +0.000 A 
ATOM     10  C   UNL     1       2.037   5.172  17.931  0.00  0.00    +0.000 A 
ATOM     11  C   UNL     1       2.836   4.032  18.207  0.00  0.00    +0.000 A 
ATOM     12  C   UNL     1       3.970   4.529  18.793  0.00  0.00    +0.000 A 
ATOM     13  O   UNL     1       3.927   5.879  18.891  0.00  0.00    +0.000 OA
BRANCH  12  14
ATOM     14  N   UNL     1       5.144   3.897  19.306  0.00  0.00    +0.000 N 
ATOM     15  O   UNL     1       6.198   4.540  19.197  0.00  0.00    +0.000 OA
ATOM     16  O   UNL     1       5.030   2.772  19.807  0.00  0.00    +0.000 OA
ENDBRANCH  12  14
ENDBRANCH   5   9
BRANCH   1  18
ATOM     17  C   UNL     1       1.446  12.611  20.185  0.00  0.00    +0.000 C 
ATOM     18  C   UNL     1       0.309  11.614  20.428  0.00  0.00    +0.000 C 
ATOM     19  C   UNL     1      -0.886  11.887  19.512  0.00  0.00    +0.000 C 
ENDBRANCH   1  18
TORSDOF 3
ENDMDL
MODEL 7
REMARK VINA RESULT:      -6.3      1.836      2.142
REMARK  Name = 
REMARK  5 active torsions:
REMARK  status: ('A' for Active; 'I' for Inactive)
REMARK    1  A    between atoms: C_1  and  C_2
REMARK    2  A    between atoms: C_2  and  C_3
REMARK    3  A    between atoms: C_2  and  N_4
REMARK    4  A    between atoms: C_8  and  C_9
REMARK    5  A    between atoms: C_12  and  N_13
REMARK                            x       y       z     vdW  Elec       q    Type
REMARK                         _______ _______ _______ _____ _____    ______ ____
ROOT
ATOM      1  N   UNL     1       3.390   4.941  19.218  0.00  0.00    +0.000 N 
ATOM      2  C   UNL     1       3.327   6.250  18.762  0.00  0.00    +0.000 C 
ATOM      3  O   UNL     1       4.002   6.750  17.872  0.00  0.00    +0.000 OA
ATOM      4  C   UNL     1       2.301   7.020  19.515  0.00  0.00    +0.000 C 
ATOM      5  C   UNL     1       2.010   8.286  19.182  0.00  0.00    +0.000 C 
ATOM      6  S   UNL     1       1.603   6.031  20.727  0.00  0.00    +0.000 S 
ATOM      7  C   UNL     1       2.557   4.627  20.277  0.00  0.00    +0.000 C 
ATOM      8  S   UNL     1       2.384   3.172  21.077  0.00  0.00    +0.000 S 
ENDROOT
BRANCH   5   9
ATOM      9  C   UNL     1       1.062   9.090  19.873  0.00  0.00    +0.000 A 
ATOM     10  C   UNL     1       0.148  10.007  19.353  0.00  0.00    +0.000 A 
ATOM     11  C   UNL     1      -0.575  10.576  20.434  0.00  0.00    +0.000 A 
ATOM     12  C   UNL     1      -0.052   9.990  21.556  0.00  0.00    +0.000 A 
ATOM     13  O   UNL     1       0.926   9.107  21.245  0.00  0.00    +0.000 OA
BRANCH  12  14
ATOM     14  N   UNL     1      -0.344  10.145  22.946  0.00  0.00    +0.000 N 
ATOM     15  O   UNL     1       0.470   9.636  23.731  0.00  0.00    +0.000 OA
ATOM     16  O   UNL     1      -1.370  10.758  23.263  0.00  0.00    +0.000 OA
ENDBRANCH  12  14
ENDBRANCH   5   9
BRANCH   1  18
ATOM     17  C   UNL     1       3.928   3.631  17.162  0.00  0.00    +0.000 C 
ATOM     18  C   UNL     1       4.329   3.983  18.597  0.00  0.00    +0.000 C 
ATOM     19  C   UNL     1       5.778   4.470  18.676  0.00  0.00    +0.000 C 
ENDBRANCH   1  18
TORSDOF 3
ENDMDL
MODEL 8
REMARK VINA RESULT:      -6.3      2.186      2.653
REMARK  Name = 
REMARK  5 active torsions:
REMARK  status: ('A' for Active; 'I' for Inactive)
REMARK    1  A    between atoms: C_1  and  C_2
REMARK    2  A    between atoms: C_2  and  C_3
REMARK    3  A    between atoms: C_2  and  N_4
REMARK    4  A    between atoms: C_8  and  C_9
REMARK    5  A    between atoms: C_12  and  N_13
REMARK                            x       y       z     vdW  Elec       q    Type
REMARK                         _______ _______ _______ _____ _____    ______ ____
ROOT
ATOM      1  N   UNL     1       3.322   3.863  19.394  0.00  0.00    +0.000 N 
ATOM      2  C   UNL     1       3.574   5.005  18.647  0.00  0.00    +0.000 C 
ATOM      3  O   UNL     1       4.406   5.132  17.759  0.00  0.00    +0.000 OA
ATOM      4  C   UNL     1       2.680   6.117  19.068  0.00  0.00    +0.000 C 
ATOM      5  C   UNL     1       2.691   7.291  18.421  0.00  0.00    +0.000 C 
ATOM      6  S   UNL     1       1.695   5.610  20.376  0.00  0.00    +0.000 S 
ATOM      7  C   UNL     1       2.362   3.985  20.382  0.00  0.00    +0.000 C 
ATOM      8  S   UNL     1       1.823   2.835  21.465  0.00  0.00    +0.000 S 
ENDROOT
BRANCH   5   9
ATOM      9  C   UNL     1       1.884   8.404  18.784  0.00  0.00    +0.000 A 
ATOM     10  C   UNL     1       1.298   9.366  17.961  0.00  0.00    +0.000 A 
ATOM     11  C   UNL     1       0.599  10.288  18.781  0.00  0.00    +0.000 A 
ATOM     12  C   UNL     1       0.810   9.852  20.062  0.00  0.00    +0.000 A 
ATOM     13  O   UNL     1       1.577   8.736  20.086  0.00  0.00    +0.000 OA
BRANCH  12  14
ATOM     14  N   UNL     1       0.385  10.352  21.331  0.00  0.00    +0.000 N 
ATOM     15  O   UNL     1      -0.643  11.046  21.324  0.00  0.00    +0.000 OA
ATOM     16  O   UNL     1       1.060  10.068  22.328  0.00  0.00    +0.000 OA
ENDBRANCH  12  14
ENDBRANCH   5   9
BRANCH   1  18
ATOM     17  C   UNL     1       4.677   2.031  20.414  0.00  0.00    +0.000 C 
ATOM     18  C   UNL     1       4.082   2.622  19.133  0.00  0.00    +0.000 C 
ATOM     19  C   UNL     1       3.247   1.592  18.370  0.00  0.00    +0.000 C 
ENDBRANCH   1  18
TORSDOF 3
ENDMDL
MODEL 9
REMARK VINA RESULT:      -6.2      2.331      7.239
REMARK  Name = 
REMARK  5 active torsions:
REMARK  status: ('A' for Active; 'I' for Inactive)
REMARK    1  A    between atoms: C_1  and  C_2
REMARK    2  A    between atoms: C_2  and  C_3
REMARK    3  A    between atoms: C_2  and  N_4
REMARK    4  A    between atoms: C_8  and  C_9
REMARK    5  A    between atoms: C_12  and  N_13
REMARK                            x       y       z     vdW  Elec       q    Type
REMARK                         _______ _______ _______ _____ _____    ______ ____
ROOT
ATOM      1  N   UNL     1       1.453   8.042  20.120  0.00  0.00    +0.000 N 
ATOM      2  C   UNL     1       1.941   6.748  20.242  0.00  0.00    +0.000 C 
ATOM      3  O   UNL     1       1.738   5.972  21.166  0.00  0.00    +0.000 OA
ATOM      4  C   UNL     1       2.785   6.392  19.070  0.00  0.00    +0.000 C 
ATOM      5  C   UNL     1       3.291   5.158  18.937  0.00  0.00    +0.000 C 
ATOM      6  S   UNL     1       2.908   7.733  18.011  0.00  0.00    +0.000 S 
ATOM      7  C   UNL     1       1.868   8.743  19.002  0.00  0.00    +0.000 C 
ATOM      8  S   UNL     1       1.494  10.305  18.548  0.00  0.00    +0.000 S 
ENDROOT
BRANCH   5   9
ATOM      9  C   UNL     1       4.127   4.755  17.859  0.00  0.00    +0.000 A 
ATOM     10  C   UNL     1       3.803   3.983  16.742  0.00  0.00    +0.000 A 
ATOM     11  C   UNL     1       4.972   3.834  15.951  0.00  0.00    +0.000 A 
ATOM     12  C   UNL     1       5.950   4.506  16.635  0.00  0.00    +0.000 A 
ATOM     13  O   UNL     1       5.469   5.056  17.775  0.00  0.00    +0.000 OA
BRANCH  12  14
ATOM     14  N   UNL     1       7.338   4.716  16.370  0.00  0.00    +0.000 N 
ATOM     15  O   UNL     1       7.602   5.380  15.357  0.00  0.00    +0.000 OA
ATOM     16  O   UNL     1       8.163   4.226  17.150  0.00  0.00    +0.000 OA
ENDBRANCH  12  14
ENDBRANCH   5   9
BRANCH   1  18
ATOM     17  C   UNL     1       1.360   9.291  22.278  0.00  0.00    +0.000 C 
ATOM     18  C   UNL     1       0.569   8.603  21.162  0.00  0.00    +0.000 C 
ATOM     19  C   UNL     1      -0.495   9.530  20.571  0.00  0.00    +0.000 C 
ENDBRANCH   1  18
TORSDOF 3
ENDMDL
