MODEL 1
REMARK VINA RESULT:      -9.1      0.000      0.000
REMARK  Name = 
REMARK  7 active torsions:
REMARK  status: ('A' for Active; 'I' for Inactive)
REMARK    1  A    between atoms: C_1  and  C_2
REMARK    2  A    between atoms: C_2  and  C_3
REMARK    3  A    between atoms: C_2  and  O_4
REMARK    4  A    between atoms: C_2  and  C_5
REMARK    5  A    between atoms: C_5  and  C_6
REMARK    6  A    between atoms: C_9  and  C_10
REMARK    7  A    between atoms: C_13  and  N_14
REMARK                            x       y       z     vdW  Elec       q    Type
REMARK                         _______ _______ _______ _____ _____    ______ ____
ROOT
ATOM      1  C   UNL     1       1.011   9.676  19.413  0.00  0.00    +0.000 A 
ATOM      2  C   UNL     1       1.452   9.559  18.101  0.00  0.00    +0.000 A 
ATOM      3  C   UNL     1       2.165   8.428  17.698  0.00  0.00    +0.000 A 
ATOM      4  C   UNL     1       2.442   7.372  18.584  0.00  0.00    +0.000 A 
ATOM      5  C   UNL     1       2.012   7.507  19.904  0.00  0.00    +0.000 A 
ATOM      6  C   UNL     1       1.313   8.649  20.315  0.00  0.00    +0.000 A 
ENDROOT
BRANCH   4   7
ATOM      7  N   UNL     1       3.094   6.196  18.088  0.00  0.00    +0.000 N 
ATOM      8  C   UNL     1       4.444   6.232  17.531  0.00  0.00    +0.000 C 
ATOM      9  C   UNL     1       5.433   5.421  18.362  0.00  0.00    +0.000 C 
ATOM     10  O   UNL     1       5.184   4.022  18.207  0.00  0.00    +0.000 OA
ATOM     11  C   UNL     1       4.256   3.594  19.118  0.00  0.00    +0.000 A 
ATOM     12  N   UNL     1       4.741   2.717  20.015  0.00  0.00    +0.000 NA
ATOM     13  C   UNL     1       3.850   2.236  20.891  0.00  0.00    +0.000 A 
ATOM     14  N   UNL     1       2.543   2.531  20.930  0.00  0.00    +0.000 NA
ATOM     15  C   UNL     1       2.095   3.395  20.005  0.00  0.00    +0.000 A 
ATOM     16  N   UNL     1       0.755   3.761  20.147  0.00  0.00    +0.000 N 
ATOM     17  C   UNL     1       2.936   3.977  19.065  0.00  0.00    +0.000 A 
ATOM     18  C   UNL     1       2.413   4.977  18.123  0.00  0.00    +0.000 C 
ATOM     19  O   UNL     1       1.327   4.778  17.585  0.00  0.00    +0.000 OA
ATOM     20  H   UNL     1       0.295   3.149  20.810  0.00  0.00    +0.000 HD
ATOM     21  H   UNL     1       0.281   3.833  19.244  0.00  0.00    +0.000 HD
ENDBRANCH   4   7
BRANCH   1  25
ATOM     22  C   UNL     1      -1.944  12.248  21.310  0.00  0.00    +0.000 C 
ATOM     23  C   UNL     1      -1.925  12.206  19.768  0.00  0.00    +0.000 C 
ATOM     24  C   UNL     1      -1.145  10.996  19.248  0.00  0.00    +0.000 C 
ATOM     25  C   UNL     1       0.273  10.930  19.835  0.00  0.00    +0.000 C 
ATOM     26  C   UNL     1       0.272  11.039  21.359  0.00  0.00    +0.000 C 
ATOM     27  C   UNL     1      -0.500  12.260  21.831  0.00  0.00    +0.000 C 
BRANCH  22  28
ATOM     28  C   UNL     1      -2.793  13.443  21.813  0.00  0.00    +0.000 C 
BRANCH  28  30
ATOM     29  C   UNL     1      -4.610  14.374  23.356  0.00  0.00    +0.000 C 
ATOM     30  C   UNL     1      -3.965  13.112  22.773  0.00  0.00    +0.000 C 
ATOM     31  C   UNL     1      -3.479  12.206  23.908  0.00  0.00    +0.000 C 
BRANCH  30  32
ATOM     32  O   UNL     1      -4.952  12.355  22.073  0.00  0.00    +0.000 OA
ATOM     33  H   UNL     1      -5.490  12.965  21.540  0.00  0.00    +0.000 HD
ENDBRANCH  30  32
ENDBRANCH  28  30
ENDBRANCH  22  28
ENDBRANCH   1  25
TORSDOF 5
ENDMDL
MODEL 2
REMARK VINA RESULT:      -9.1      1.979      3.339
REMARK  Name = 
REMARK  7 active torsions:
REMARK  status: ('A' for Active; 'I' for Inactive)
REMARK    1  A    between atoms: C_1  and  C_2
REMARK    2  A    between atoms: C_2  and  C_3
REMARK    3  A    between atoms: C_2  and  O_4
REMARK    4  A    between atoms: C_2  and  C_5
REMARK    5  A    between atoms: C_5  and  C_6
REMARK    6  A    between atoms: C_9  and  C_10
REMARK    7  A    between atoms: C_13  and  N_14
REMARK                            x       y       z     vdW  Elec       q    Type
REMARK                         _______ _______ _______ _____ _____    ______ ____
ROOT
ATOM      1  C   UNL     1       1.502   8.998  19.210  0.00  0.00    +0.000 A 
ATOM      2  C   UNL     1       2.182   8.721  18.031  0.00  0.00    +0.000 A 
ATOM      3  C   UNL     1       2.897   7.529  17.896  0.00  0.00    +0.000 A 
ATOM      4  C   UNL     1       2.938   6.569  18.922  0.00  0.00    +0.000 A 
ATOM      5  C   UNL     1       2.267   6.864  20.110  0.00  0.00    +0.000 A 
ATOM      6  C   UNL     1       1.566   8.068  20.254  0.00  0.00    +0.000 A 
ENDROOT
BRANCH   4   7
ATOM      7  N   UNL     1       3.608   5.325  18.689  0.00  0.00    +0.000 N 
ATOM      8  C   UNL     1       2.879   4.081  18.450  0.00  0.00    +0.000 C 
ATOM      9  C   UNL     1       3.130   3.525  17.052  0.00  0.00    +0.000 C 
ATOM     10  O   UNL     1       4.458   3.007  16.953  0.00  0.00    +0.000 OA
ATOM     11  C   UNL     1       5.334   3.992  16.584  0.00  0.00    +0.000 A 
ATOM     12  N   UNL     1       5.895   3.796  15.378  0.00  0.00    +0.000 NA
ATOM     13  C   UNL     1       6.797   4.712  15.005  0.00  0.00    +0.000 A 
ATOM     14  N   UNL     1       7.193   5.770  15.728  0.00  0.00    +0.000 NA
ATOM     15  C   UNL     1       6.623   5.918  16.935  0.00  0.00    +0.000 A 
ATOM     16  N   UNL     1       6.979   7.088  17.609  0.00  0.00    +0.000 N 
ATOM     17  C   UNL     1       5.656   5.042  17.411  0.00  0.00    +0.000 A 
ATOM     18  C   UNL     1       5.005   5.293  18.705  0.00  0.00    +0.000 C 
ATOM     19  O   UNL     1       5.692   5.651  19.658  0.00  0.00    +0.000 OA
ATOM     20  H   UNL     1       7.770   7.526  17.152  0.00  0.00    +0.000 HD
ATOM     21  H   UNL     1       7.110   6.928  18.610  0.00  0.00    +0.000 HD
ENDBRANCH   4   7
BRANCH   1  25
ATOM     22  C   UNL     1      -1.380  11.958  20.579  0.00  0.00    +0.000 C 
ATOM     23  C   UNL     1      -1.458  11.524  19.102  0.00  0.00    +0.000 C 
ATOM     24  C   UNL     1      -0.687  10.224  18.857  0.00  0.00    +0.000 C 
ATOM     25  C   UNL     1       0.767  10.316  19.346  0.00  0.00    +0.000 C 
ATOM     26  C   UNL     1       0.859  10.811  20.788  0.00  0.00    +0.000 C 
ATOM     27  C   UNL     1       0.094  12.109  20.983  0.00  0.00    +0.000 C 
BRANCH  22  28
ATOM     28  C   UNL     1      -2.220  13.239  20.816  0.00  0.00    +0.000 C 
BRANCH  28  30
ATOM     29  C   UNL     1      -2.919  12.234  23.063  0.00  0.00    +0.000 C 
ATOM     30  C   UNL     1      -3.314  13.164  21.912  0.00  0.00    +0.000 C 
ATOM     31  C   UNL     1      -4.641  12.702  21.303  0.00  0.00    +0.000 C 
BRANCH  30  32
ATOM     32  O   UNL     1      -3.563  14.474  22.425  0.00  0.00    +0.000 OA
ATOM     33  H   UNL     1      -2.921  14.656  23.132  0.00  0.00    +0.000 HD
ENDBRANCH  30  32
ENDBRANCH  28  30
ENDBRANCH  22  28
ENDBRANCH   1  25
TORSDOF 5
ENDMDL
MODEL 3
REMARK VINA RESULT:      -9.0      0.641      1.208
REMARK  Name = 
REMARK  7 active torsions:
REMARK  status: ('A' for Active; 'I' for Inactive)
REMARK    1  A    between atoms: C_1  and  C_2
REMARK    2  A    between atoms: C_2  and  C_3
REMARK    3  A    between atoms: C_2  and  O_4
REMARK    4  A    between atoms: C_2  and  C_5
REMARK    5  A    between atoms: C_5  and  C_6
REMARK    6  A    between atoms: C_9  and  C_10
REMARK    7  A    between atoms: C_13  and  N_14
REMARK                            x       y       z     vdW  Elec       q    Type
REMARK                         _______ _______ _______ _____ _____    ______ ____
ROOT
ATOM      1  C   UNL     1       1.144   9.677  19.838  0.00  0.00    +0.000 A 
ATOM      2  C   UNL     1       1.464   8.556  20.594  0.00  0.00    +0.000 A 
ATOM      3  C   UNL     1       2.022   7.432  19.982  0.00  0.00    +0.000 A 
ATOM      4  C   UNL     1       2.299   7.399  18.604  0.00  0.00    +0.000 A 
ATOM      5  C   UNL     1       1.957   8.523  17.850  0.00  0.00    +0.000 A 
ATOM      6  C   UNL     1       1.379   9.643  18.459  0.00  0.00    +0.000 A 
ENDROOT
BRANCH   4   7
ATOM      7  N   UNL     1       2.960   6.255  18.051  0.00  0.00    +0.000 N 
ATOM      8  C   UNL     1       4.281   6.344  17.434  0.00  0.00    +0.000 C 
ATOM      9  C   UNL     1       5.330   5.543  18.199  0.00  0.00    +0.000 C 
ATOM     10  O   UNL     1       5.114   4.141  18.023  0.00  0.00    +0.000 OA
ATOM     11  C   UNL     1       4.241   3.665  18.964  0.00  0.00    +0.000 A 
ATOM     12  N   UNL     1       4.792   2.783  19.817  0.00  0.00    +0.000 NA
ATOM     13  C   UNL     1       3.956   2.256  20.720  0.00  0.00    +0.000 A 
ATOM     14  N   UNL     1       2.645   2.512  20.827  0.00  0.00    +0.000 NA
ATOM     15  C   UNL     1       2.130   3.383  19.943  0.00  0.00    +0.000 A 
ATOM     16  N   UNL     1       0.789   3.707  20.155  0.00  0.00    +0.000 N 
ATOM     17  C   UNL     1       2.910   4.010  18.980  0.00  0.00    +0.000 A 
ATOM     18  C   UNL     1       2.316   5.016  18.088  0.00  0.00    +0.000 C 
ATOM     19  O   UNL     1       1.213   4.798  17.595  0.00  0.00    +0.000 OA
ATOM     20  H   UNL     1       0.377   3.066  20.824  0.00  0.00    +0.000 HD
ATOM     21  H   UNL     1       0.271   3.785  19.277  0.00  0.00    +0.000 HD
ENDBRANCH   4   7
BRANCH   1  25
ATOM     22  C   UNL     1      -1.885  12.198  21.687  0.00  0.00    +0.000 C 
ATOM     23  C   UNL     1      -1.267  12.688  20.362  0.00  0.00    +0.000 C 
ATOM     24  C   UNL     1      -0.542  11.557  19.628  0.00  0.00    +0.000 C 
ATOM     25  C   UNL     1       0.503  10.869  20.520  0.00  0.00    +0.000 C 
ATOM     26  C   UNL     1      -0.082  10.440  21.865  0.00  0.00    +0.000 C 
ATOM     27  C   UNL     1      -0.779  11.594  22.565  0.00  0.00    +0.000 C 
BRANCH  22  28
ATOM     28  C   UNL     1      -2.667  13.342  22.381  0.00  0.00    +0.000 C 
BRANCH  28  30
ATOM     29  C   UNL     1      -5.041  12.623  21.749  0.00  0.00    +0.000 C 
ATOM     30  C   UNL     1      -4.093  13.004  22.890  0.00  0.00    +0.000 C 
ATOM     31  C   UNL     1      -4.670  14.187  23.671  0.00  0.00    +0.000 C 
BRANCH  30  32
ATOM     32  O   UNL     1      -4.019  11.926  23.824  0.00  0.00    +0.000 OA
ATOM     33  H   UNL     1      -3.450  12.196  24.564  0.00  0.00    +0.000 HD
ENDBRANCH  30  32
ENDBRANCH  28  30
ENDBRANCH  22  28
ENDBRANCH   1  25
TORSDOF 5
ENDMDL
MODEL 4
REMARK VINA RESULT:      -9.0      1.923      3.351
REMARK  Name = 
REMARK  7 active torsions:
REMARK  status: ('A' for Active; 'I' for Inactive)
REMARK    1  A    between atoms: C_1  and  C_2
REMARK    2  A    between atoms: C_2  and  C_3
REMARK    3  A    between atoms: C_2  and  O_4
REMARK    4  A    between atoms: C_2  and  C_5
REMARK    5  A    between atoms: C_5  and  C_6
REMARK    6  A    between atoms: C_9  and  C_10
REMARK    7  A    between atoms: C_13  and  N_14
REMARK                            x       y       z     vdW  Elec       q    Type
REMARK                         _______ _______ _______ _____ _____    ______ ____
ROOT
ATOM      1  C   UNL     1       1.545   9.038  19.208  0.00  0.00    +0.000 A 
ATOM      2  C   UNL     1       1.600   8.074  20.206  0.00  0.00    +0.000 A 
ATOM      3  C   UNL     1       2.248   6.858  19.974  0.00  0.00    +0.000 A 
ATOM      4  C   UNL     1       2.879   6.577  18.750  0.00  0.00    +0.000 A 
ATOM      5  C   UNL     1       2.802   7.543  17.747  0.00  0.00    +0.000 A 
ATOM      6  C   UNL     1       2.136   8.755  17.971  0.00  0.00    +0.000 A 
ENDROOT
BRANCH   4   7
ATOM      7  N   UNL     1       3.609   5.353  18.605  0.00  0.00    +0.000 N 
ATOM      8  C   UNL     1       2.942   4.060  18.473  0.00  0.00    +0.000 C 
ATOM      9  C   UNL     1       3.207   3.409  17.119  0.00  0.00    +0.000 C 
ATOM     10  O   UNL     1       4.559   2.952  17.043  0.00  0.00    +0.000 OA
ATOM     11  C   UNL     1       5.381   3.948  16.588  0.00  0.00    +0.000 A 
ATOM     12  N   UNL     1       5.940   3.686  15.393  0.00  0.00    +0.000 NA
ATOM     13  C   UNL     1       6.790   4.615  14.938  0.00  0.00    +0.000 A 
ATOM     14  N   UNL     1       7.139   5.744  15.571  0.00  0.00    +0.000 NA
ATOM     15  C   UNL     1       6.573   5.957  16.771  0.00  0.00    +0.000 A 
ATOM     16  N   UNL     1       6.876   7.192  17.347  0.00  0.00    +0.000 N 
ATOM     17  C   UNL     1       5.657   5.074  17.327  0.00  0.00    +0.000 A 
ATOM     18  C   UNL     1       5.006   5.392  18.605  0.00  0.00    +0.000 C 
ATOM     19  O   UNL     1       5.682   5.857  19.519  0.00  0.00    +0.000 OA
ATOM     20  H   UNL     1       7.640   7.633  16.848  0.00  0.00    +0.000 HD
ATOM     21  H   UNL     1       7.024   7.118  18.356  0.00  0.00    +0.000 HD
ENDBRANCH   4   7
BRANCH   1  25
ATOM     22  C   UNL     1      -1.391  11.821  20.814  0.00  0.00    +0.000 C 
ATOM     23  C   UNL     1      -1.416  11.563  19.293  0.00  0.00    +0.000 C 
ATOM     24  C   UNL     1      -0.634  10.300  18.925  0.00  0.00    +0.000 C 
ATOM     25  C   UNL     1       0.802  10.332  19.471  0.00  0.00    +0.000 C 
ATOM     26  C   UNL     1       0.843  10.655  20.964  0.00  0.00    +0.000 C 
ATOM     27  C   UNL     1       0.068  11.922  21.283  0.00  0.00    +0.000 C 
BRANCH  22  28
ATOM     28  C   UNL     1      -2.241  13.067  21.170  0.00  0.00    +0.000 C 
BRANCH  28  30
ATOM     29  C   UNL     1      -3.537  14.262  23.026  0.00  0.00    +0.000 C 
ATOM     30  C   UNL     1      -3.235  12.920  22.351  0.00  0.00    +0.000 C 
ATOM     31  C   UNL     1      -2.686  11.932  23.384  0.00  0.00    +0.000 C 
BRANCH  30  32
ATOM     32  O   UNL     1      -4.452  12.343  21.878  0.00  0.00    +0.000 OA
ATOM     33  H   UNL     1      -4.840  12.940  21.215  0.00  0.00    +0.000 HD
ENDBRANCH  30  32
ENDBRANCH  28  30
ENDBRANCH  22  28
ENDBRANCH   1  25
TORSDOF 5
ENDMDL
MODEL 5
REMARK VINA RESULT:      -8.9      1.026      1.274
REMARK  Name = 
REMARK  7 active torsions:
REMARK  status: ('A' for Active; 'I' for Inactive)
REMARK    1  A    between atoms: C_1  and  C_2
REMARK    2  A    between atoms: C_2  and  C_3
REMARK    3  A    between atoms: C_2  and  O_4
REMARK    4  A    between atoms: C_2  and  C_5
REMARK    5  A    between atoms: C_5  and  C_6
REMARK    6  A    between atoms: C_9  and  C_10
REMARK    7  A    between atoms: C_13  and  N_14
REMARK                            x       y       z     vdW  Elec       q    Type
REMARK                         _______ _______ _______ _____ _____    ______ ____
ROOT
ATOM      1  C   UNL     1       1.118   9.597  19.320  0.00  0.00    +0.000 A 
ATOM      2  C   UNL     1       1.606   9.482  18.024  0.00  0.00    +0.000 A 
ATOM      3  C   UNL     1       2.315   8.342  17.640  0.00  0.00    +0.000 A 
ATOM      4  C   UNL     1       2.540   7.275  18.527  0.00  0.00    +0.000 A 
ATOM      5  C   UNL     1       2.064   7.408  19.832  0.00  0.00    +0.000 A 
ATOM      6  C   UNL     1       1.369   8.559  20.224  0.00  0.00    +0.000 A 
ENDROOT
BRANCH   4   7
ATOM      7  N   UNL     1       3.190   6.092  18.047  0.00  0.00    +0.000 N 
ATOM      8  C   UNL     1       4.542   6.118  17.492  0.00  0.00    +0.000 C 
ATOM      9  C   UNL     1       5.527   5.314  18.336  0.00  0.00    +0.000 C 
ATOM     10  O   UNL     1       5.275   3.914  18.198  0.00  0.00    +0.000 OA
ATOM     11  C   UNL     1       4.344   3.500  19.111  0.00  0.00    +0.000 A 
ATOM     12  N   UNL     1       4.824   2.633  20.020  0.00  0.00    +0.000 NA
ATOM     13  C   UNL     1       3.931   2.164  20.900  0.00  0.00    +0.000 A 
ATOM     14  N   UNL     1       2.624   2.463  20.933  0.00  0.00    +0.000 NA
ATOM     15  C   UNL     1       2.181   3.317  19.996  0.00  0.00    +0.000 A 
ATOM     16  N   UNL     1       0.841   3.688  20.130  0.00  0.00    +0.000 N 
ATOM     17  C   UNL     1       3.025   3.885  19.050  0.00  0.00    +0.000 A 
ATOM     18  C   UNL     1       2.506   4.875  18.096  0.00  0.00    +0.000 C 
ATOM     19  O   UNL     1       1.421   4.672  17.558  0.00  0.00    +0.000 OA
ATOM     20  H   UNL     1       0.378   3.084  20.800  0.00  0.00    +0.000 HD
ATOM     21  H   UNL     1       0.369   3.750  19.226  0.00  0.00    +0.000 HD
ENDBRANCH   4   7
BRANCH   1  25
ATOM     22  C   UNL     1      -2.146  12.306  20.297  0.00  0.00    +0.000 C 
ATOM     23  C   UNL     1      -1.314  12.623  19.037  0.00  0.00    +0.000 C 
ATOM     24  C   UNL     1      -0.490  11.413  18.588  0.00  0.00    +0.000 C 
ATOM     25  C   UNL     1       0.387  10.861  19.723  0.00  0.00    +0.000 C 
ATOM     26  C   UNL     1      -0.415  10.608  20.999  0.00  0.00    +0.000 C 
ATOM     27  C   UNL     1      -1.205  11.837  21.416  0.00  0.00    +0.000 C 
BRANCH  22  28
ATOM     28  C   UNL     1      -3.019  13.523  20.694  0.00  0.00    +0.000 C 
BRANCH  28  30
ATOM     29  C   UNL     1      -5.292  13.039  21.768  0.00  0.00    +0.000 C 
ATOM     30  C   UNL     1      -4.549  13.386  20.474  0.00  0.00    +0.000 C 
ATOM     31  C   UNL     1      -4.837  12.325  19.409  0.00  0.00    +0.000 C 
BRANCH  30  32
ATOM     32  O   UNL     1      -5.063  14.609  19.946  0.00  0.00    +0.000 OA
ATOM     33  H   UNL     1      -5.035  14.563  18.976  0.00  0.00    +0.000 HD
ENDBRANCH  30  32
ENDBRANCH  28  30
ENDBRANCH  22  28
ENDBRANCH   1  25
TORSDOF 5
ENDMDL
MODEL 6
REMARK VINA RESULT:      -8.8      1.989      3.461
REMARK  Name = 
REMARK  7 active torsions:
REMARK  status: ('A' for Active; 'I' for Inactive)
REMARK    1  A    between atoms: C_1  and  C_2
REMARK    2  A    between atoms: C_2  and  C_3
REMARK    3  A    between atoms: C_2  and  O_4
REMARK    4  A    between atoms: C_2  and  C_5
REMARK    5  A    between atoms: C_5  and  C_6
REMARK    6  A    between atoms: C_9  and  C_10
REMARK    7  A    between atoms: C_13  and  N_14
REMARK                            x       y       z     vdW  Elec       q    Type
REMARK                         _______ _______ _______ _____ _____    ______ ____
ROOT
ATOM      1  C   UNL     1       1.513   9.129  19.298  0.00  0.00    +0.000 A 
ATOM      2  C   UNL     1       1.547   8.161  20.293  0.00  0.00    +0.000 A 
ATOM      3  C   UNL     1       2.155   6.926  20.052  0.00  0.00    +0.000 A 
ATOM      4  C   UNL     1       2.764   6.629  18.820  0.00  0.00    +0.000 A 
ATOM      5  C   UNL     1       2.709   7.601  17.820  0.00  0.00    +0.000 A 
ATOM      6  C   UNL     1       2.083   8.832  18.055  0.00  0.00    +0.000 A 
ENDROOT
BRANCH   4   7
ATOM      7  N   UNL     1       3.454   5.383  18.665  0.00  0.00    +0.000 N 
ATOM      8  C   UNL     1       2.745   4.120  18.475  0.00  0.00    +0.000 C 
ATOM      9  C   UNL     1       3.033   3.497  17.112  0.00  0.00    +0.000 C 
ATOM     10  O   UNL     1       4.369   2.992  17.067  0.00  0.00    +0.000 OA
ATOM     11  C   UNL     1       5.241   3.968  16.668  0.00  0.00    +0.000 A 
ATOM     12  N   UNL     1       5.830   3.719  15.485  0.00  0.00    +0.000 NA
ATOM     13  C   UNL     1       6.729   4.627  15.085  0.00  0.00    +0.000 A 
ATOM     14  N   UNL     1       7.096   5.724  15.761  0.00  0.00    +0.000 NA
ATOM     15  C   UNL     1       6.499   5.927  16.947  0.00  0.00    +0.000 A 
ATOM     16  N   UNL     1       6.826   7.133  17.568  0.00  0.00    +0.000 N 
ATOM     17  C   UNL     1       5.533   5.063  17.447  0.00  0.00    +0.000 A 
ATOM     18  C   UNL     1       4.851   5.371  18.712  0.00  0.00    +0.000 C 
ATOM     19  O   UNL     1       5.512   5.785  19.660  0.00  0.00    +0.000 OA
ATOM     20  H   UNL     1       7.622   7.558  17.106  0.00  0.00    +0.000 HD
ATOM     21  H   UNL     1       6.937   7.026  18.578  0.00  0.00    +0.000 HD
ENDBRANCH   4   7
BRANCH   1  25
ATOM     22  C   UNL     1      -1.640  11.966  20.272  0.00  0.00    +0.000 C 
ATOM     23  C   UNL     1      -1.032  12.041  18.857  0.00  0.00    +0.000 C 
ATOM     24  C   UNL     1      -0.251  10.770  18.513  0.00  0.00    +0.000 C 
ATOM     25  C   UNL     1       0.814  10.445  19.572  0.00  0.00    +0.000 C 
ATOM     26  C   UNL     1       0.236  10.436  20.987  0.00  0.00    +0.000 C 
ATOM     27  C   UNL     1      -0.518  11.720  21.290  0.00  0.00    +0.000 C 
BRANCH  22  28
ATOM     28  C   UNL     1      -2.479  13.235  20.573  0.00  0.00    +0.000 C 
BRANCH  28  30
ATOM     29  C   UNL     1      -4.672  12.327  19.615  0.00  0.00    +0.000 C 
ATOM     30  C   UNL     1      -4.000  13.029  20.800  0.00  0.00    +0.000 C 
ATOM     31  C   UNL     1      -4.682  14.374  21.062  0.00  0.00    +0.000 C 
BRANCH  30  32
ATOM     32  O   UNL     1      -4.202  12.258  21.984  0.00  0.00    +0.000 OA
ATOM     33  H   UNL     1      -4.779  12.759  22.585  0.00  0.00    +0.000 HD
ENDBRANCH  30  32
ENDBRANCH  28  30
ENDBRANCH  22  28
ENDBRANCH   1  25
TORSDOF 5
ENDMDL
MODEL 7
REMARK VINA RESULT:      -8.7      3.957     10.271
REMARK  Name = 
REMARK  7 active torsions:
REMARK  status: ('A' for Active; 'I' for Inactive)
REMARK    1  A    between atoms: C_1  and  C_2
REMARK    2  A    between atoms: C_2  and  C_3
REMARK    3  A    between atoms: C_2  and  O_4
REMARK    4  A    between atoms: C_2  and  C_5
REMARK    5  A    between atoms: C_5  and  C_6
REMARK    6  A    between atoms: C_9  and  C_10
REMARK    7  A    between atoms: C_13  and  N_14
REMARK                            x       y       z     vdW  Elec       q    Type
REMARK                         _______ _______ _______ _____ _____    ______ ____
ROOT
ATOM      1  C   UNL     1       3.384   6.818  18.162  0.00  0.00    +0.000 A 
ATOM      2  C   UNL     1       2.908   6.443  19.412  0.00  0.00    +0.000 A 
ATOM      3  C   UNL     1       1.971   7.240  20.074  0.00  0.00    +0.000 A 
ATOM      4  C   UNL     1       1.465   8.420  19.502  0.00  0.00    +0.000 A 
ATOM      5  C   UNL     1       1.964   8.798  18.254  0.00  0.00    +0.000 A 
ATOM      6  C   UNL     1       2.917   8.010  17.597  0.00  0.00    +0.000 A 
ENDROOT
BRANCH   4   7
ATOM      7  N   UNL     1       0.436   9.144  20.186  0.00  0.00    +0.000 N 
ATOM      8  C   UNL     1      -0.034   8.758  21.515  0.00  0.00    +0.000 C 
ATOM      9  C   UNL     1       0.262   9.826  22.564  0.00  0.00    +0.000 C 
ATOM     10  O   UNL     1      -0.582  10.963  22.369  0.00  0.00    +0.000 OA
ATOM     11  C   UNL     1      -0.011  11.843  21.489  0.00  0.00    +0.000 A 
ATOM     12  N   UNL     1       0.311  13.027  22.040  0.00  0.00    +0.000 NA
ATOM     13  C   UNL     1       0.825  13.933  21.199  0.00  0.00    +0.000 A 
ATOM     14  N   UNL     1       1.018  13.768  19.882  0.00  0.00    +0.000 NA
ATOM     15  C   UNL     1       0.664  12.578  19.369  0.00  0.00    +0.000 A 
ATOM     16  N   UNL     1       0.981  12.407  18.020  0.00  0.00    +0.000 N 
ATOM     17  C   UNL     1       0.146  11.556  20.154  0.00  0.00    +0.000 A 
ATOM     18  C   UNL     1      -0.151  10.246  19.559  0.00  0.00    +0.000 C 
ATOM     19  O   UNL     1      -0.709  10.200  18.466  0.00  0.00    +0.000 OA
ATOM     20  H   UNL     1       1.242  13.295  17.607  0.00  0.00    +0.000 HD
ATOM     21  H   UNL     1       0.244  11.911  17.514  0.00  0.00    +0.000 HD
ENDBRANCH   4   7
BRANCH   1  25
ATOM     22  C   UNL     1       5.390   4.459  15.103  0.00  0.00    +0.000 C 
ATOM     23  C   UNL     1       4.925   3.722  16.375  0.00  0.00    +0.000 C 
ATOM     24  C   UNL     1       3.905   4.548  17.163  0.00  0.00    +0.000 C 
ATOM     25  C   UNL     1       4.430   5.957  17.482  0.00  0.00    +0.000 C 
ATOM     26  C   UNL     1       4.956   6.671  16.238  0.00  0.00    +0.000 C 
ATOM     27  C   UNL     1       5.974   5.823  15.496  0.00  0.00    +0.000 C 
BRANCH  22  28
ATOM     28  C   UNL     1       6.371   3.577  14.289  0.00  0.00    +0.000 C 
BRANCH  28  30
ATOM     29  C   UNL     1       7.189   4.734  12.158  0.00  0.00    +0.000 C 
ATOM     30  C   UNL     1       6.268   3.660  12.744  0.00  0.00    +0.000 C 
ATOM     31  C   UNL     1       4.821   3.933  12.325  0.00  0.00    +0.000 C 
BRANCH  30  32
ATOM     32  O   UNL     1       6.598   2.391  12.178  0.00  0.00    +0.000 OA
ATOM     33  H   UNL     1       7.525   2.190  12.391  0.00  0.00    +0.000 HD
ENDBRANCH  30  32
ENDBRANCH  28  30
ENDBRANCH  22  28
ENDBRANCH   1  25
TORSDOF 5
ENDMDL
MODEL 8
REMARK VINA RESULT:      -8.7      0.725      1.277
REMARK  Name = 
REMARK  7 active torsions:
REMARK  status: ('A' for Active; 'I' for Inactive)
REMARK    1  A    between atoms: C_1  and  C_2
REMARK    2  A    between atoms: C_2  and  C_3
REMARK    3  A    between atoms: C_2  and  O_4
REMARK    4  A    between atoms: C_2  and  C_5
REMARK    5  A    between atoms: C_5  and  C_6
REMARK    6  A    between atoms: C_9  and  C_10
REMARK    7  A    between atoms: C_13  and  N_14
REMARK                            x       y       z     vdW  Elec       q    Type
REMARK                         _______ _______ _______ _____ _____    ______ ____
ROOT
ATOM      1  C   UNL     1       1.295   9.515  19.209  0.00  0.00    +0.000 A 
ATOM      2  C   UNL     1       1.481   8.518  20.159  0.00  0.00    +0.000 A 
ATOM      3  C   UNL     1       2.075   7.307  19.798  0.00  0.00    +0.000 A 
ATOM      4  C   UNL     1       2.523   7.061  18.488  0.00  0.00    +0.000 A 
ATOM      5  C   UNL     1       2.315   8.061  17.537  0.00  0.00    +0.000 A 
ATOM      6  C   UNL     1       1.701   9.269  17.892  0.00  0.00    +0.000 A 
ENDROOT
BRANCH   4   7
ATOM      7  N   UNL     1       3.211   5.838  18.203  0.00  0.00    +0.000 N 
ATOM      8  C   UNL     1       4.636   5.805  17.882  0.00  0.00    +0.000 C 
ATOM      9  C   UNL     1       5.446   5.046  18.929  0.00  0.00    +0.000 C 
ATOM     10  O   UNL     1       5.182   3.644  18.842  0.00  0.00    +0.000 OA
ATOM     11  C   UNL     1       4.101   3.308  19.612  0.00  0.00    +0.000 A 
ATOM     12  N   UNL     1       4.401   2.498  20.644  0.00  0.00    +0.000 NA
ATOM     13  C   UNL     1       3.361   2.106  21.390  0.00  0.00    +0.000 A 
ATOM     14  N   UNL     1       2.076   2.427  21.184  0.00  0.00    +0.000 NA
ATOM     15  C   UNL     1       1.817   3.221  20.132  0.00  0.00    +0.000 A 
ATOM     16  N   UNL     1       0.485   3.621  20.016  0.00  0.00    +0.000 N 
ATOM     17  C   UNL     1       2.822   3.709  19.306  0.00  0.00    +0.000 A 
ATOM     18  C   UNL     1       2.496   4.638  18.216  0.00  0.00    +0.000 C 
ATOM     19  O   UNL     1       1.510   4.416  17.518  0.00  0.00    +0.000 OA
ATOM     20  H   UNL     1      -0.099   3.073  20.637  0.00  0.00    +0.000 HD
ATOM     21  H   UNL     1       0.171   3.628  19.044  0.00  0.00    +0.000 HD
ENDBRANCH   4   7
BRANCH   1  25
ATOM     22  C   UNL     1      -1.531  12.233  21.099  0.00  0.00    +0.000 C 
ATOM     23  C   UNL     1      -1.539  12.160  19.559  0.00  0.00    +0.000 C 
ATOM     24  C   UNL     1      -0.813  10.911  19.051  0.00  0.00    +0.000 C 
ATOM     25  C   UNL     1       0.611  10.804  19.616  0.00  0.00    +0.000 C 
ATOM     26  C   UNL     1       0.640  10.944  21.138  0.00  0.00    +0.000 C 
ATOM     27  C   UNL     1      -0.078  12.202  21.596  0.00  0.00    +0.000 C 
BRANCH  22  28
ATOM     28  C   UNL     1      -2.325  13.469  21.591  0.00  0.00    +0.000 C 
BRANCH  28  30
ATOM     29  C   UNL     1      -3.279  12.198  23.598  0.00  0.00    +0.000 C 
ATOM     30  C   UNL     1      -3.573  13.192  22.470  0.00  0.00    +0.000 C 
ATOM     31  C   UNL     1      -4.724  12.671  21.606  0.00  0.00    +0.000 C 
BRANCH  30  32
ATOM     32  O   UNL     1      -4.040  14.420  23.031  0.00  0.00    +0.000 OA
ATOM     33  H   UNL     1      -4.489  14.927  22.335  0.00  0.00    +0.000 HD
ENDBRANCH  30  32
ENDBRANCH  28  30
ENDBRANCH  22  28
ENDBRANCH   1  25
TORSDOF 5
ENDMDL
MODEL 9
REMARK VINA RESULT:      -8.5      2.265      2.902
REMARK  Name = 
REMARK  7 active torsions:
REMARK  status: ('A' for Active; 'I' for Inactive)
REMARK    1  A    between atoms: C_1  and  C_2
REMARK    2  A    between atoms: C_2  and  C_3
REMARK    3  A    between atoms: C_2  and  O_4
REMARK    4  A    between atoms: C_2  and  C_5
REMARK    5  A    between atoms: C_5  and  C_6
REMARK    6  A    between atoms: C_9  and  C_10
REMARK    7  A    between atoms: C_13  and  N_14
REMARK                            x       y       z     vdW  Elec       q    Type
REMARK                         _______ _______ _______ _____ _____    ______ ____
ROOT
ATOM      1  C   UNL     1       1.043   9.675  19.389  0.00  0.00    +0.000 A 
ATOM      2  C   UNL     1       1.513   9.578  18.085  0.00  0.00    +0.000 A 
ATOM      3  C   UNL     1       2.216   8.443  17.674  0.00  0.00    +0.000 A 
ATOM      4  C   UNL     1       2.453   7.363  18.543  0.00  0.00    +0.000 A 
ATOM      5  C   UNL     1       1.994   7.478  19.856  0.00  0.00    +0.000 A 
ATOM      6  C   UNL     1       1.306   8.623  20.275  0.00  0.00    +0.000 A 
ENDROOT
BRANCH   4   7
ATOM      7  N   UNL     1       3.095   6.187  18.037  0.00  0.00    +0.000 N 
ATOM      8  C   UNL     1       4.434   6.222  17.452  0.00  0.00    +0.000 C 
ATOM      9  C   UNL     1       5.440   5.414  18.265  0.00  0.00    +0.000 C 
ATOM     10  O   UNL     1       5.189   4.015  18.119  0.00  0.00    +0.000 OA
ATOM     11  C   UNL     1       4.280   3.588  19.050  0.00  0.00    +0.000 A 
ATOM     12  N   UNL     1       4.784   2.714  19.940  0.00  0.00    +0.000 NA
ATOM     13  C   UNL     1       3.912   2.235  20.835  0.00  0.00    +0.000 A 
ATOM     14  N   UNL     1       2.606   2.529  20.900  0.00  0.00    +0.000 NA
ATOM     15  C   UNL     1       2.138   3.391  19.982  0.00  0.00    +0.000 A 
ATOM     16  N   UNL     1       0.801   3.756  20.150  0.00  0.00    +0.000 N 
ATOM     17  C   UNL     1       2.959   3.970  19.023  0.00  0.00    +0.000 A 
ATOM     18  C   UNL     1       2.416   4.967  18.090  0.00  0.00    +0.000 C 
ATOM     19  O   UNL     1       1.320   4.766  17.574  0.00  0.00    +0.000 OA
ATOM     20  H   UNL     1       0.355   3.145  20.824  0.00  0.00    +0.000 HD
ATOM     21  H   UNL     1       0.308   3.825  19.258  0.00  0.00    +0.000 HD
ENDBRANCH   4   7
BRANCH   1  25
ATOM     22  C   UNL     1      -0.234  13.834  19.494  0.00  0.00    +0.000 C 
ATOM     23  C   UNL     1       0.556  13.304  20.708  0.00  0.00    +0.000 C 
ATOM     24  C   UNL     1       1.278  11.995  20.381  0.00  0.00    +0.000 C 
ATOM     25  C   UNL     1       0.318  10.933  19.820  0.00  0.00    +0.000 C 
ATOM     26  C   UNL     1      -0.519  11.469  18.660  0.00  0.00    +0.000 C 
ATOM     27  C   UNL     1      -1.228  12.759  19.032  0.00  0.00    +0.000 C 
BRANCH  22  28
ATOM     28  C   UNL     1      -0.903  15.192  19.828  0.00  0.00    +0.000 C 
BRANCH  28  30
ATOM     29  C   UNL     1      -0.994  17.368  18.483  0.00  0.00    +0.000 C 
ATOM     30  C   UNL     1      -0.144  16.471  19.389  0.00  0.00    +0.000 C 
ATOM     31  C   UNL     1       1.156  16.095  18.673  0.00  0.00    +0.000 C 
BRANCH  30  32
ATOM     32  O   UNL     1       0.253  17.207  20.546  0.00  0.00    +0.000 OA
ATOM     33  H   UNL     1       1.162  17.526  20.413  0.00  0.00    +0.000 HD
ENDBRANCH  30  32
ENDBRANCH  28  30
ENDBRANCH  22  28
ENDBRANCH   1  25
TORSDOF 5
ENDMDL
