MODEL 1
REMARK VINA RESULT:      -6.8      0.000      0.000
REMARK  Name = 
REMARK  6 active torsions:
REMARK  status: ('A' for Active; 'I' for Inactive)
REMARK    1  A    between atoms: C_1  and  C_2
REMARK    2  A    between atoms: N_4  and  C_5
REMARK    3  A    between atoms: C_13  and  C_15
REMARK    4  A    between atoms: C_18  and  C_19
REMARK    5  A    between atoms: C_19  and  C_20
REMARK    6  A    between atoms: C_19  and  C_21
REMARK                            x       y       z     vdW  Elec       q    Type
REMARK                         _______ _______ _______ _____ _____    ______ ____
ROOT
ATOM      1  C   UNL     1      -1.846   9.834  17.030  0.00  0.00    +0.000 C 
ATOM      2  C   UNL     1      -1.071  10.649  18.074  0.00  0.00    +0.000 C 
ATOM      3  C   UNL     1      -1.718  12.033  18.169  0.00  0.00    +0.000 C 
ATOM      4  N   UNL     1      -1.048  12.973  19.056  0.00  0.00    +0.000 N 
ATOM      5  C   UNL     1       0.280  13.459  18.699  0.00  0.00    +0.000 C 
ATOM      6  C   UNL     1      -1.247  12.774  20.427  0.00  0.00    +0.000 A 
ATOM      7  C   UNL     1      -1.830  13.836  21.140  0.00  0.00    +0.000 A 
ATOM      8  C   UNL     1      -2.102  13.737  22.503  0.00  0.00    +0.000 A 
ATOM      9  C   UNL     1      -1.769  12.576  23.189  0.00  0.00    +0.000 A 
ATOM     10  C   UNL     1      -1.145  11.525  22.514  0.00  0.00    +0.000 A 
ATOM     11  C   UNL     1      -0.878  11.605  21.134  0.00  0.00    +0.000 A 
ATOM     12  N   UNL     1      -0.279  10.487  20.456  0.00  0.00    +0.000 N 
ATOM     13  C   UNL     1       0.830   9.831  21.021  0.00  0.00    +0.000 C 
ATOM     14  O   UNL     1       1.334  10.181  22.094  0.00  0.00    +0.000 OA
ATOM     15  C   UNL     1      -1.118   9.904  19.407  0.00  0.00    +0.000 C 
ENDROOT
BRANCH  13  16
ATOM     16  C   UNL     1       1.444   8.690  20.310  0.00  0.00    +0.000 A 
ATOM     17  C   UNL     1       1.943   8.772  19.022  0.00  0.00    +0.000 A 
ATOM     18  N   UNL     1       2.321   7.507  18.679  0.00  0.00    +0.000 N 
ATOM     19  C   UNL     1       2.018   6.678  19.729  0.00  0.00    +0.000 A 
ATOM     20  N   UNL     1       1.526   7.370  20.744  0.00  0.00    +0.000 NA
ATOM     21  H   UNL     1       2.700   7.220  17.788  0.00  0.00    +0.000 HD
BRANCH  19  22
ATOM     22  C   UNL     1       2.207   5.191  19.620  0.00  0.00    +0.000 C 
ATOM     23  C   UNL     1       1.251   4.435  20.538  0.00  0.00    +0.000 C 
ATOM     24  C   UNL     1       2.057   4.729  18.171  0.00  0.00    +0.000 C 
ENDBRANCH  19  22
ENDBRANCH  13  16
TORSDOF 2
ENDMDL
MODEL 2
REMARK VINA RESULT:      -6.7      0.968      1.358
REMARK  Name = 
REMARK  6 active torsions:
REMARK  status: ('A' for Active; 'I' for Inactive)
REMARK    1  A    between atoms: C_1  and  C_2
REMARK    2  A    between atoms: N_4  and  C_5
REMARK    3  A    between atoms: C_13  and  C_15
REMARK    4  A    between atoms: C_18  and  C_19
REMARK    5  A    between atoms: C_19  and  C_20
REMARK    6  A    between atoms: C_19  and  C_21
REMARK                            x       y       z     vdW  Elec       q    Type
REMARK                         _______ _______ _______ _____ _____    ______ ____
ROOT
ATOM      1  C   UNL     1      -1.809   9.934  17.165  0.00  0.00    +0.000 C 
ATOM      2  C   UNL     1      -0.920  10.713  18.144  0.00  0.00    +0.000 C 
ATOM      3  C   UNL     1      -1.366  12.177  18.124  0.00  0.00    +0.000 C 
ATOM      4  N   UNL     1      -0.563  13.082  18.936  0.00  0.00    +0.000 N 
ATOM      5  C   UNL     1       0.817  13.346  18.548  0.00  0.00    +0.000 C 
ATOM      6  C   UNL     1      -0.780  13.022  20.319  0.00  0.00    +0.000 A 
ATOM      7  C   UNL     1      -1.203  14.209  20.941  0.00  0.00    +0.000 A 
ATOM      8  C   UNL     1      -1.477  14.259  22.307  0.00  0.00    +0.000 A 
ATOM      9  C   UNL     1      -1.306  13.121  23.084  0.00  0.00    +0.000 A 
ATOM     10  C   UNL     1      -0.840  11.943  22.499  0.00  0.00    +0.000 A 
ATOM     11  C   UNL     1      -0.574  11.873  21.118  0.00  0.00    +0.000 A 
ATOM     12  N   UNL     1      -0.143  10.632  20.534  0.00  0.00    +0.000 N 
ATOM     13  C   UNL     1       0.867   9.874  21.156  0.00  0.00    +0.000 C 
ATOM     14  O   UNL     1       1.422  10.234  22.199  0.00  0.00    +0.000 OA
ATOM     15  C   UNL     1      -1.062  10.091  19.531  0.00  0.00    +0.000 C 
ENDROOT
BRANCH  13  16
ATOM     16  C   UNL     1       1.310   8.605  20.541  0.00  0.00    +0.000 A 
ATOM     17  C   UNL     1       1.427   7.417  21.241  0.00  0.00    +0.000 A 
ATOM     18  N   UNL     1       1.959   6.513  20.369  0.00  0.00    +0.000 N 
ATOM     19  C   UNL     1       2.191   7.159  19.182  0.00  0.00    +0.000 A 
ATOM     20  N   UNL     1       1.771   8.412  19.242  0.00  0.00    +0.000 NA
ATOM     21  H   UNL     1       2.197   5.554  20.578  0.00  0.00    +0.000 HD
BRANCH  19  22
ATOM     22  C   UNL     1       2.885   6.461  18.046  0.00  0.00    +0.000 C 
ATOM     23  C   UNL     1       4.397   6.422  18.251  0.00  0.00    +0.000 C 
ATOM     24  C   UNL     1       2.323   5.055  17.845  0.00  0.00    +0.000 C 
ENDBRANCH  19  22
ENDBRANCH  13  16
TORSDOF 2
ENDMDL
MODEL 3
REMARK VINA RESULT:      -6.5      3.304      8.474
REMARK  Name = 
REMARK  6 active torsions:
REMARK  status: ('A' for Active; 'I' for Inactive)
REMARK    1  A    between atoms: C_1  and  C_2
REMARK    2  A    between atoms: N_4  and  C_5
REMARK    3  A    between atoms: C_13  and  C_15
REMARK    4  A    between atoms: C_18  and  C_19
REMARK    5  A    between atoms: C_19  and  C_20
REMARK    6  A    between atoms: C_19  and  C_21
REMARK                            x       y       z     vdW  Elec       q    Type
REMARK                         _______ _______ _______ _____ _____    ______ ____
ROOT
ATOM      1  C   UNL     1       2.486   3.696  20.253  0.00  0.00    +0.000 C 
ATOM      2  C   UNL     1       3.554   4.577  19.592  0.00  0.00    +0.000 C 
ATOM      3  C   UNL     1       4.787   3.709  19.331  0.00  0.00    +0.000 C 
ATOM      4  N   UNL     1       5.939   4.414  18.784  0.00  0.00    +0.000 N 
ATOM      5  C   UNL     1       6.626   5.397  19.613  0.00  0.00    +0.000 C 
ATOM      6  C   UNL     1       5.869   4.741  17.424  0.00  0.00    +0.000 A 
ATOM      7  C   UNL     1       6.876   4.214  16.597  0.00  0.00    +0.000 A 
ATOM      8  C   UNL     1       6.889   4.450  15.224  0.00  0.00    +0.000 A 
ATOM      9  C   UNL     1       5.904   5.246  14.653  0.00  0.00    +0.000 A 
ATOM     10  C   UNL     1       4.922   5.821  15.460  0.00  0.00    +0.000 A 
ATOM     11  C   UNL     1       4.886   5.579  16.847  0.00  0.00    +0.000 A 
ATOM     12  N   UNL     1       3.833   6.145  17.645  0.00  0.00    +0.000 N 
ATOM     13  C   UNL     1       3.476   7.497  17.485  0.00  0.00    +0.000 C 
ATOM     14  O   UNL     1       4.042   8.244  16.680  0.00  0.00    +0.000 OA
ATOM     15  C   UNL     1       2.978   5.152  18.299  0.00  0.00    +0.000 C 
ENDROOT
BRANCH  13  16
ATOM     16  C   UNL     1       2.399   8.071  18.319  0.00  0.00    +0.000 A 
ATOM     17  C   UNL     1       1.563   9.088  17.892  0.00  0.00    +0.000 A 
ATOM     18  N   UNL     1       0.784   9.415  18.964  0.00  0.00    +0.000 N 
ATOM     19  C   UNL     1       1.175   8.634  20.022  0.00  0.00    +0.000 A 
ATOM     20  N   UNL     1       2.119   7.785  19.652  0.00  0.00    +0.000 NA
ATOM     21  H   UNL     1       0.086  10.144  18.992  0.00  0.00    +0.000 HD
BRANCH  19  22
ATOM     22  C   UNL     1       0.585   8.835  21.390  0.00  0.00    +0.000 C 
ATOM     23  C   UNL     1       1.668   9.081  22.437  0.00  0.00    +0.000 C 
ATOM     24  C   UNL     1      -0.437   9.971  21.381  0.00  0.00    +0.000 C 
ENDBRANCH  19  22
ENDBRANCH  13  16
TORSDOF 2
ENDMDL
MODEL 4
REMARK VINA RESULT:      -6.4      3.140      6.467
REMARK  Name = 
REMARK  6 active torsions:
REMARK  status: ('A' for Active; 'I' for Inactive)
REMARK    1  A    between atoms: C_1  and  C_2
REMARK    2  A    between atoms: N_4  and  C_5
REMARK    3  A    between atoms: C_13  and  C_15
REMARK    4  A    between atoms: C_18  and  C_19
REMARK    5  A    between atoms: C_19  and  C_20
REMARK    6  A    between atoms: C_19  and  C_21
REMARK                            x       y       z     vdW  Elec       q    Type
REMARK                         _______ _______ _______ _____ _____    ______ ____
ROOT
ATOM      1  C   UNL     1      -2.634   9.659  17.404  0.00  0.00    +0.000 C 
ATOM      2  C   UNL     1      -1.823  10.430  18.454  0.00  0.00    +0.000 C 
ATOM      3  C   UNL     1      -0.337  10.203  18.163  0.00  0.00    +0.000 C 
ATOM      4  N   UNL     1       0.582  10.796  19.125  0.00  0.00    +0.000 N 
ATOM      5  C   UNL     1       0.618  10.272  20.485  0.00  0.00    +0.000 C 
ATOM      6  C   UNL     1       0.763  12.181  19.028  0.00  0.00    +0.000 A 
ATOM      7  C   UNL     1       2.074  12.629  18.788  0.00  0.00    +0.000 A 
ATOM      8  C   UNL     1       2.367  13.984  18.645  0.00  0.00    +0.000 A 
ATOM      9  C   UNL     1       1.351  14.924  18.764  0.00  0.00    +0.000 A 
ATOM     10  C   UNL     1       0.050  14.508  19.050  0.00  0.00    +0.000 A 
ATOM     11  C   UNL     1      -0.264  13.142  19.183  0.00  0.00    +0.000 A 
ATOM     12  N   UNL     1      -1.622  12.740  19.428  0.00  0.00    +0.000 N 
ATOM     13  C   UNL     1      -2.389  13.404  20.405  0.00  0.00    +0.000 C 
ATOM     14  O   UNL     1      -1.938  14.332  21.085  0.00  0.00    +0.000 OA
ATOM     15  C   UNL     1      -2.201  11.908  18.371  0.00  0.00    +0.000 C 
ENDROOT
BRANCH  13  16
ATOM     16  C   UNL     1      -3.781  12.976  20.656  0.00  0.00    +0.000 A 
ATOM     17  C   UNL     1      -4.282  12.709  21.918  0.00  0.00    +0.000 A 
ATOM     18  N   UNL     1      -5.551  12.244  21.732  0.00  0.00    +0.000 N 
ATOM     19  C   UNL     1      -5.790  12.199  20.383  0.00  0.00    +0.000 A 
ATOM     20  N   UNL     1      -4.755  12.674  19.709  0.00  0.00    +0.000 NA
ATOM     21  H   UNL     1      -6.182  11.931  22.456  0.00  0.00    +0.000 HD
BRANCH  19  22
ATOM     22  C   UNL     1      -7.067  11.618  19.843  0.00  0.00    +0.000 C 
ATOM     23  C   UNL     1      -6.823  10.814  18.569  0.00  0.00    +0.000 C 
ATOM     24  C   UNL     1      -7.769  10.769  20.901  0.00  0.00    +0.000 C 
ENDBRANCH  19  22
ENDBRANCH  13  16
TORSDOF 2
ENDMDL
MODEL 5
REMARK VINA RESULT:      -6.4      5.044      8.016
REMARK  Name = 
REMARK  6 active torsions:
REMARK  status: ('A' for Active; 'I' for Inactive)
REMARK    1  A    between atoms: C_1  and  C_2
REMARK    2  A    between atoms: N_4  and  C_5
REMARK    3  A    between atoms: C_13  and  C_15
REMARK    4  A    between atoms: C_18  and  C_19
REMARK    5  A    between atoms: C_19  and  C_20
REMARK    6  A    between atoms: C_19  and  C_21
REMARK                            x       y       z     vdW  Elec       q    Type
REMARK                         _______ _______ _______ _____ _____    ______ ____
ROOT
ATOM      1  C   UNL     1       5.072   1.894  19.836  0.00  0.00    +0.000 C 
ATOM      2  C   UNL     1       4.059   2.882  19.242  0.00  0.00    +0.000 C 
ATOM      3  C   UNL     1       2.803   2.854  20.116  0.00  0.00    +0.000 C 
ATOM      4  N   UNL     1       1.697   3.674  19.641  0.00  0.00    +0.000 N 
ATOM      5  C   UNL     1       1.021   3.303  18.403  0.00  0.00    +0.000 C 
ATOM      6  C   UNL     1       1.822   5.054  19.846  0.00  0.00    +0.000 A 
ATOM      7  C   UNL     1       0.824   5.668  20.622  0.00  0.00    +0.000 A 
ATOM      8  C   UNL     1       0.863   7.030  20.915  0.00  0.00    +0.000 A 
ATOM      9  C   UNL     1       1.895   7.812  20.413  0.00  0.00    +0.000 A 
ATOM     10  C   UNL     1       2.872   7.235  19.600  0.00  0.00    +0.000 A 
ATOM     11  C   UNL     1       2.854   5.858  19.308  0.00  0.00    +0.000 A 
ATOM     12  N   UNL     1       3.901   5.283  18.509  0.00  0.00    +0.000 N 
ATOM     13  C   UNL     1       4.314   5.919  17.322  0.00  0.00    +0.000 C 
ATOM     14  O   UNL     1       3.802   6.968  16.919  0.00  0.00    +0.000 OA
ATOM     15  C   UNL     1       4.697   4.269  19.205  0.00  0.00    +0.000 C 
ENDROOT
BRANCH  13  16
ATOM     16  C   UNL     1       5.385   5.313  16.504  0.00  0.00    +0.000 A 
ATOM     17  C   UNL     1       6.715   5.288  16.883  0.00  0.00    +0.000 A 
ATOM     18  N   UNL     1       7.400   4.750  15.832  0.00  0.00    +0.000 N 
ATOM     19  C   UNL     1       6.500   4.494  14.830  0.00  0.00    +0.000 A 
ATOM     20  N   UNL     1       5.270   4.784  15.221  0.00  0.00    +0.000 NA
ATOM     21  H   UNL     1       8.400   4.620  15.778  0.00  0.00    +0.000 HD
BRANCH  19  22
ATOM     22  C   UNL     1       6.959   4.003  13.486  0.00  0.00    +0.000 C 
ATOM     23  C   UNL     1       5.797   3.461  12.659  0.00  0.00    +0.000 C 
ATOM     24  C   UNL     1       7.704   5.102  12.729  0.00  0.00    +0.000 C 
ENDBRANCH  19  22
ENDBRANCH  13  16
TORSDOF 2
ENDMDL
MODEL 6
REMARK VINA RESULT:      -6.2      2.911      8.470
REMARK  Name = 
REMARK  6 active torsions:
REMARK  status: ('A' for Active; 'I' for Inactive)
REMARK    1  A    between atoms: C_1  and  C_2
REMARK    2  A    between atoms: N_4  and  C_5
REMARK    3  A    between atoms: C_13  and  C_15
REMARK    4  A    between atoms: C_18  and  C_19
REMARK    5  A    between atoms: C_19  and  C_20
REMARK    6  A    between atoms: C_19  and  C_21
REMARK                            x       y       z     vdW  Elec       q    Type
REMARK                         _______ _______ _______ _____ _____    ______ ____
ROOT
ATOM      1  C   UNL     1       0.574   3.352  18.890  0.00  0.00    +0.000 C 
ATOM      2  C   UNL     1       2.007   3.893  18.797  0.00  0.00    +0.000 C 
ATOM      3  C   UNL     1       2.910   2.756  18.314  0.00  0.00    +0.000 C 
ATOM      4  N   UNL     1       4.330   3.073  18.253  0.00  0.00    +0.000 N 
ATOM      5  C   UNL     1       5.055   3.316  19.495  0.00  0.00    +0.000 C 
ATOM      6  C   UNL     1       4.737   3.869  17.175  0.00  0.00    +0.000 A 
ATOM      7  C   UNL     1       5.697   3.315  16.310  0.00  0.00    +0.000 A 
ATOM      8  C   UNL     1       6.153   4.005  15.189  0.00  0.00    +0.000 A 
ATOM      9  C   UNL     1       5.672   5.281  14.924  0.00  0.00    +0.000 A 
ATOM     10  C   UNL     1       4.755   5.872  15.794  0.00  0.00    +0.000 A 
ATOM     11  C   UNL     1       4.274   5.182  16.922  0.00  0.00    +0.000 A 
ATOM     12  N   UNL     1       3.292   5.797  17.773  0.00  0.00    +0.000 N 
ATOM     13  C   UNL     1       3.453   7.134  18.184  0.00  0.00    +0.000 C 
ATOM     14  O   UNL     1       4.426   7.819  17.850  0.00  0.00    +0.000 OA
ATOM     15  C   UNL     1       2.018   5.079  17.833  0.00  0.00    +0.000 C 
ENDROOT
BRANCH  13  16
ATOM     16  C   UNL     1       2.443   7.753  19.067  0.00  0.00    +0.000 A 
ATOM     17  C   UNL     1       2.090   7.238  20.302  0.00  0.00    +0.000 A 
ATOM     18  N   UNL     1       1.065   8.014  20.758  0.00  0.00    +0.000 N 
ATOM     19  C   UNL     1       0.786   8.952  19.797  0.00  0.00    +0.000 A 
ATOM     20  N   UNL     1       1.628   8.846  18.783  0.00  0.00    +0.000 NA
ATOM     21  H   UNL     1       0.560   7.885  21.623  0.00  0.00    +0.000 HD
BRANCH  19  22
ATOM     22  C   UNL     1      -0.378   9.891  19.948  0.00  0.00    +0.000 C 
ATOM     23  C   UNL     1      -0.052  11.038  20.900  0.00  0.00    +0.000 C 
ATOM     24  C   UNL     1      -0.830  10.420  18.588  0.00  0.00    +0.000 C 
ENDBRANCH  19  22
ENDBRANCH  13  16
TORSDOF 2
ENDMDL
MODEL 7
REMARK VINA RESULT:      -6.2      1.996      3.533
REMARK  Name = 
REMARK  6 active torsions:
REMARK  status: ('A' for Active; 'I' for Inactive)
REMARK    1  A    between atoms: C_1  and  C_2
REMARK    2  A    between atoms: N_4  and  C_5
REMARK    3  A    between atoms: C_13  and  C_15
REMARK    4  A    between atoms: C_18  and  C_19
REMARK    5  A    between atoms: C_19  and  C_20
REMARK    6  A    between atoms: C_19  and  C_21
REMARK                            x       y       z     vdW  Elec       q    Type
REMARK                         _______ _______ _______ _____ _____    ______ ____
ROOT
ATOM      1  C   UNL     1      -0.389   8.901  22.613  0.00  0.00    +0.000 C 
ATOM      2  C   UNL     1      -0.291   9.294  21.133  0.00  0.00    +0.000 C 
ATOM      3  C   UNL     1      -1.046  10.612  20.944  0.00  0.00    +0.000 C 
ATOM      4  N   UNL     1      -1.131  11.088  19.570  0.00  0.00    +0.000 N 
ATOM      5  C   UNL     1      -1.918  10.330  18.605  0.00  0.00    +0.000 C 
ATOM      6  C   UNL     1       0.033  11.667  19.048  0.00  0.00    +0.000 A 
ATOM      7  C   UNL     1      -0.068  13.000  18.613  0.00  0.00    +0.000 A 
ATOM      8  C   UNL     1       1.033  13.686  18.103  0.00  0.00    +0.000 A 
ATOM      9  C   UNL     1       2.257  13.037  17.994  0.00  0.00    +0.000 A 
ATOM     10  C   UNL     1       2.371  11.699  18.373  0.00  0.00    +0.000 A 
ATOM     11  C   UNL     1       1.271  10.998  18.904  0.00  0.00    +0.000 A 
ATOM     12  N   UNL     1       1.431   9.635  19.332  0.00  0.00    +0.000 N 
ATOM     13  C   UNL     1       2.112   8.714  18.513  0.00  0.00    +0.000 C 
ATOM     14  O   UNL     1       2.582   9.023  17.414  0.00  0.00    +0.000 OA
ATOM     15  C   UNL     1       1.185   9.423  20.760  0.00  0.00    +0.000 C 
ENDROOT
BRANCH  13  16
ATOM     16  C   UNL     1       2.261   7.313  18.959  0.00  0.00    +0.000 A 
ATOM     17  C   UNL     1       3.139   6.416  18.377  0.00  0.00    +0.000 A 
ATOM     18  N   UNL     1       2.912   5.214  18.982  0.00  0.00    +0.000 N 
ATOM     19  C   UNL     1       1.891   5.382  19.881  0.00  0.00    +0.000 A 
ATOM     20  N   UNL     1       1.505   6.647  19.920  0.00  0.00    +0.000 NA
ATOM     21  H   UNL     1       3.372   4.342  18.764  0.00  0.00    +0.000 HD
BRANCH  19  22
ATOM     22  C   UNL     1       1.321   4.211  20.632  0.00  0.00    +0.000 C 
ATOM     23  C   UNL     1       0.864   3.106  19.684  0.00  0.00    +0.000 C 
ATOM     24  C   UNL     1       2.326   3.677  21.652  0.00  0.00    +0.000 C 
ENDBRANCH  19  22
ENDBRANCH  13  16
TORSDOF 2
ENDMDL
MODEL 8
REMARK VINA RESULT:      -6.1      1.878      3.319
REMARK  Name = 
REMARK  6 active torsions:
REMARK  status: ('A' for Active; 'I' for Inactive)
REMARK    1  A    between atoms: C_1  and  C_2
REMARK    2  A    between atoms: N_4  and  C_5
REMARK    3  A    between atoms: C_13  and  C_15
REMARK    4  A    between atoms: C_18  and  C_19
REMARK    5  A    between atoms: C_19  and  C_20
REMARK    6  A    between atoms: C_19  and  C_21
REMARK                            x       y       z     vdW  Elec       q    Type
REMARK                         _______ _______ _______ _____ _____    ______ ____
ROOT
ATOM      1  C   UNL     1      -0.456   9.444  22.733  0.00  0.00    +0.000 C 
ATOM      2  C   UNL     1      -0.399   9.959  21.288  0.00  0.00    +0.000 C 
ATOM      3  C   UNL     1      -1.126  11.305  21.237  0.00  0.00    +0.000 C 
ATOM      4  N   UNL     1      -1.245  11.897  19.911  0.00  0.00    +0.000 N 
ATOM      5  C   UNL     1      -2.085  11.240  18.916  0.00  0.00    +0.000 C 
ATOM      6  C   UNL     1      -0.086  12.490  19.397  0.00  0.00    +0.000 A 
ATOM      7  C   UNL     1      -0.167  13.857  19.079  0.00  0.00    +0.000 A 
ATOM      8  C   UNL     1       0.934  14.558  18.588  0.00  0.00    +0.000 A 
ATOM      9  C   UNL     1       2.136  13.893  18.381  0.00  0.00    +0.000 A 
ATOM     10  C   UNL     1       2.228  12.525  18.643  0.00  0.00    +0.000 A 
ATOM     11  C   UNL     1       1.129  11.807  19.153  0.00  0.00    +0.000 A 
ATOM     12  N   UNL     1       1.268  10.410  19.460  0.00  0.00    +0.000 N 
ATOM     13  C   UNL     1       1.896   9.545  18.544  0.00  0.00    +0.000 C 
ATOM     14  O   UNL     1       2.336   9.935  17.457  0.00  0.00    +0.000 OA
ATOM     15  C   UNL     1       1.065  10.085  20.873  0.00  0.00    +0.000 C 
ENDROOT
BRANCH  13  16
ATOM     16  C   UNL     1       2.024   8.109  18.865  0.00  0.00    +0.000 A 
ATOM     17  C   UNL     1       2.012   7.611  20.156  0.00  0.00    +0.000 A 
ATOM     18  N   UNL     1       2.260   6.274  20.051  0.00  0.00    +0.000 N 
ATOM     19  C   UNL     1       2.455   5.985  18.724  0.00  0.00    +0.000 A 
ATOM     20  N   UNL     1       2.277   7.064  17.980  0.00  0.00    +0.000 NA
ATOM     21  H   UNL     1       2.346   5.622  20.817  0.00  0.00    +0.000 HD
BRANCH  19  22
ATOM     22  C   UNL     1       2.865   4.607  18.285  0.00  0.00    +0.000 C 
ATOM     23  C   UNL     1       1.679   3.814  17.743  0.00  0.00    +0.000 C 
ATOM     24  C   UNL     1       3.993   4.678  17.257  0.00  0.00    +0.000 C 
ENDBRANCH  19  22
ENDBRANCH  13  16
TORSDOF 2
ENDMDL
MODEL 9
REMARK VINA RESULT:      -6.0      3.278      7.990
REMARK  Name = 
REMARK  6 active torsions:
REMARK  status: ('A' for Active; 'I' for Inactive)
REMARK    1  A    between atoms: C_1  and  C_2
REMARK    2  A    between atoms: N_4  and  C_5
REMARK    3  A    between atoms: C_13  and  C_15
REMARK    4  A    between atoms: C_18  and  C_19
REMARK    5  A    between atoms: C_19  and  C_20
REMARK    6  A    between atoms: C_19  and  C_21
REMARK                            x       y       z     vdW  Elec       q    Type
REMARK                         _______ _______ _______ _____ _____    ______ ____
ROOT
ATOM      1  C   UNL     1       0.056  15.595  20.780  0.00  0.00    +0.000 C 
ATOM      2  C   UNL     1      -0.779  14.309  20.850  0.00  0.00    +0.000 C 
ATOM      3  C   UNL     1      -0.166  13.294  19.884  0.00  0.00    +0.000 C 
ATOM      4  N   UNL     1      -0.892  12.038  19.758  0.00  0.00    +0.000 N 
ATOM      5  C   UNL     1      -2.214  12.043  19.142  0.00  0.00    +0.000 C 
ATOM      6  C   UNL     1      -0.746  11.134  20.818  0.00  0.00    +0.000 A 
ATOM      7  C   UNL     1      -0.215   9.872  20.500  0.00  0.00    +0.000 A 
ATOM      8  C   UNL     1       0.002   8.904  21.479  0.00  0.00    +0.000 A 
ATOM      9  C   UNL     1      -0.335   9.175  22.800  0.00  0.00    +0.000 A 
ATOM     10  C   UNL     1      -0.907  10.403  23.133  0.00  0.00    +0.000 A 
ATOM     11  C   UNL     1      -1.119  11.395  22.157  0.00  0.00    +0.000 A 
ATOM     12  N   UNL     1      -1.665  12.669  22.539  0.00  0.00    +0.000 N 
ATOM     13  C   UNL     1      -2.783  12.730  23.393  0.00  0.00    +0.000 C 
ATOM     14  O   UNL     1      -3.338  11.718  23.834  0.00  0.00    +0.000 OA
ATOM     15  C   UNL     1      -0.771  13.802  22.291  0.00  0.00    +0.000 C 
ENDROOT
BRANCH  13  16
ATOM     16  C   UNL     1      -3.343  14.045  23.770  0.00  0.00    +0.000 A 
ATOM     17  C   UNL     1      -3.241  14.581  25.041  0.00  0.00    +0.000 A 
ATOM     18  N   UNL     1      -3.964  15.738  25.024  0.00  0.00    +0.000 N 
ATOM     19  C   UNL     1      -4.518  15.870  23.777  0.00  0.00    +0.000 A 
ATOM     20  N   UNL     1      -4.128  14.885  22.985  0.00  0.00    +0.000 NA
ATOM     21  H   UNL     1      -4.115  16.357  25.808  0.00  0.00    +0.000 HD
BRANCH  19  22
ATOM     22  C   UNL     1      -5.473  16.990  23.470  0.00  0.00    +0.000 C 
ATOM     23  C   UNL     1      -5.108  17.696  22.167  0.00  0.00    +0.000 C 
ATOM     24  C   UNL     1      -6.913  16.483  23.433  0.00  0.00    +0.000 C 
ENDBRANCH  19  22
ENDBRANCH  13  16
TORSDOF 2
ENDMDL
