MODEL 1
REMARK VINA RESULT:      -7.4      0.000      0.000
REMARK  Name = 
REMARK  9 active torsions:
REMARK  status: ('A' for Active; 'I' for Inactive)
REMARK    1  A    between atoms: C_1  and  N_2
REMARK    2  A    between atoms: N_2  and  C_21
REMARK    3  A    between atoms: C_3  and  C_5
REMARK    4  A    between atoms: C_10  and  O_11
REMARK    5  A    between atoms: O_11  and  C_12
REMARK    6  A    between atoms: C_12  and  C_13
REMARK    7  A    between atoms: C_13  and  C_14
REMARK    8  A    between atoms: C_14  and  O_15
REMARK    9  A    between atoms: O_15  and  N_16
REMARK                            x       y       z     vdW  Elec       q    Type
REMARK                         _______ _______ _______ _____ _____    ______ ____
ROOT
ATOM      1  C   UNL     1       4.829   5.229  17.119  0.00  0.00    +0.000 A 
ATOM      2  C   UNL     1       5.001   4.411  16.002  0.00  0.00    +0.000 A 
ATOM      3  C   UNL     1       6.054   4.660  15.125  0.00  0.00    +0.000 A 
ATOM      4 CL   UNL     1       6.179   3.748  13.670  0.00  0.00    +0.000 Cl
ATOM      5  C   UNL     1       6.995   5.649  15.403  0.00  0.00    +0.000 A 
ATOM      6  C   UNL     1       6.904   6.388  16.582  0.00  0.00    +0.000 A 
ATOM      7  C   UNL     1       5.810   6.193  17.427  0.00  0.00    +0.000 A 
ENDROOT
BRANCH   1  10
ATOM      8  C   UNL     1       4.703   3.100  19.321  0.00  0.00    +0.000 C 
ATOM      9  N   UNL     1       3.673   4.105  19.075  0.00  0.00    +0.000 N 
ATOM     10  C   UNL     1       3.684   5.078  18.060  0.00  0.00    +0.000 C 
ATOM     11  O   UNL     1       2.740   5.838  17.857  0.00  0.00    +0.000 OA
BRANCH   9  12
ATOM     12  C   UNL     1       2.461   3.919  19.887  0.00  0.00    +0.000 C 
ATOM     13  C   UNL     1       1.299   3.189  19.218  0.00  0.00    +0.000 C 
ATOM     14  C   UNL     1       0.373   2.863  20.386  0.00  0.00    +0.000 C 
ATOM     15  C   UNL     1       1.269   2.716  21.617  0.00  0.00    +0.000 C 
ATOM     16  C   UNL     1       2.669   3.163  21.200  0.00  0.00    +0.000 C 
ENDBRANCH   9  12
ENDBRANCH   1  10
BRANCH   6  17
ATOM     17  O   UNL     1       7.906   7.300  16.768  0.00  0.00    +0.000 OA
BRANCH  17  18
ATOM     18  C   UNL     1       8.042   7.840  18.084  0.00  0.00    +0.000 C 
BRANCH  18  19
ATOM     19  C   UNL     1       8.304   9.344  17.966  0.00  0.00    +0.000 C 
BRANCH  19  20
ATOM     20  C   UNL     1       9.057   9.896  19.172  0.00  0.00    +0.000 C 
BRANCH  20  21
ATOM     21  O   UNL     1      10.040  10.830  18.722  0.00  0.00    +0.000 OA
BRANCH  21  22
ATOM     22  N   UNL     1       9.431  11.696  17.795  0.00  0.00    +0.000 NA
ATOM     23  C   UNL     1       9.536  12.926  18.188  0.00  0.00    +0.000 C 
ATOM     24  N   UNL     1      10.120  13.349  19.333  0.00  0.00    +0.000 N 
ATOM     25  N   UNL     1       9.005  13.939  17.472  0.00  0.00    +0.000 N 
ATOM     26  H   UNL     1      10.643  12.595  19.767  0.00  0.00    +0.000 HD
ATOM     27  H   UNL     1      10.649  14.207  19.278  0.00  0.00    +0.000 HD
ATOM     28  H   UNL     1       8.719  13.652  16.543  0.00  0.00    +0.000 HD
ATOM     29  H   UNL     1       9.487  14.825  17.495  0.00  0.00    +0.000 HD
ENDBRANCH  21  22
ENDBRANCH  20  21
ENDBRANCH  19  20
ENDBRANCH  18  19
ENDBRANCH  17  18
ENDBRANCH   6  17
TORSDOF 8
ENDMDL
MODEL 2
REMARK VINA RESULT:      -7.3      4.596      7.016
REMARK  Name = 
REMARK  9 active torsions:
REMARK  status: ('A' for Active; 'I' for Inactive)
REMARK    1  A    between atoms: C_1  and  N_2
REMARK    2  A    between atoms: N_2  and  C_21
REMARK    3  A    between atoms: C_3  and  C_5
REMARK    4  A    between atoms: C_10  and  O_11
REMARK    5  A    between atoms: O_11  and  C_12
REMARK    6  A    between atoms: C_12  and  C_13
REMARK    7  A    between atoms: C_13  and  C_14
REMARK    8  A    between atoms: C_14  and  O_15
REMARK    9  A    between atoms: O_15  and  N_16
REMARK                            x       y       z     vdW  Elec       q    Type
REMARK                         _______ _______ _______ _____ _____    ______ ____
ROOT
ATOM      1  C   UNL     1       2.156   6.513  20.126  0.00  0.00    +0.000 A 
ATOM      2  C   UNL     1       1.605   5.397  20.756  0.00  0.00    +0.000 A 
ATOM      3  C   UNL     1       2.144   4.136  20.512  0.00  0.00    +0.000 A 
ATOM      4 CL   UNL     1       1.375   2.743  21.169  0.00  0.00    +0.000 Cl
ATOM      5  C   UNL     1       3.288   3.989  19.730  0.00  0.00    +0.000 A 
ATOM      6  C   UNL     1       3.920   5.112  19.199  0.00  0.00    +0.000 A 
ATOM      7  C   UNL     1       3.342   6.370  19.379  0.00  0.00    +0.000 A 
ENDROOT
BRANCH   1  10
ATOM      8  C   UNL     1       1.855   8.487  17.800  0.00  0.00    +0.000 C 
ATOM      9  N   UNL     1       1.442   8.752  19.175  0.00  0.00    +0.000 N 
ATOM     10  C   UNL     1       1.587   7.883  20.271  0.00  0.00    +0.000 C 
ATOM     11  O   UNL     1       1.296   8.206  21.420  0.00  0.00    +0.000 OA
BRANCH   9  12
ATOM     12  C   UNL     1       0.998  10.135  19.403  0.00  0.00    +0.000 C 
ATOM     13  C   UNL     1       1.652  11.211  18.539  0.00  0.00    +0.000 C 
ATOM     14  C   UNL     1       0.759  12.428  18.763  0.00  0.00    +0.000 C 
ATOM     15  C   UNL     1      -0.639  11.887  19.065  0.00  0.00    +0.000 C 
ATOM     16  C   UNL     1      -0.502  10.373  19.222  0.00  0.00    +0.000 C 
ENDBRANCH   9  12
ENDBRANCH   1  10
BRANCH   6  17
ATOM     17  O   UNL     1       5.056   4.849  18.485  0.00  0.00    +0.000 OA
BRANCH  17  18
ATOM     18  C   UNL     1       6.299   5.061  19.159  0.00  0.00    +0.000 C 
BRANCH  18  19
ATOM     19  C   UNL     1       6.958   6.314  18.577  0.00  0.00    +0.000 C 
BRANCH  19  20
ATOM     20  C   UNL     1       7.153   6.216  17.067  0.00  0.00    +0.000 C 
BRANCH  20  21
ATOM     21  O   UNL     1       7.582   4.895  16.737  0.00  0.00    +0.000 OA
BRANCH  21  22
ATOM     22  N   UNL     1       7.486   4.737  15.343  0.00  0.00    +0.000 NA
ATOM     23  C   UNL     1       6.526   3.920  15.044  0.00  0.00    +0.000 C 
ATOM     24  N   UNL     1       5.725   3.275  15.925  0.00  0.00    +0.000 N 
ATOM     25  N   UNL     1       6.256   3.591  13.763  0.00  0.00    +0.000 N 
ATOM     26  H   UNL     1       5.843   3.657  16.858  0.00  0.00    +0.000 HD
ATOM     27  H   UNL     1       4.756   3.179  15.665  0.00  0.00    +0.000 HD
ATOM     28  H   UNL     1       6.731   4.191  13.098  0.00  0.00    +0.000 HD
ATOM     29  H   UNL     1       5.293   3.402  13.526  0.00  0.00    +0.000 HD
ENDBRANCH  21  22
ENDBRANCH  20  21
ENDBRANCH  19  20
ENDBRANCH  18  19
ENDBRANCH  17  18
ENDBRANCH   6  17
TORSDOF 8
ENDMDL
MODEL 3
REMARK VINA RESULT:      -7.2      4.928      6.729
REMARK  Name = 
REMARK  9 active torsions:
REMARK  status: ('A' for Active; 'I' for Inactive)
REMARK    1  A    between atoms: C_1  and  N_2
REMARK    2  A    between atoms: N_2  and  C_21
REMARK    3  A    between atoms: C_3  and  C_5
REMARK    4  A    between atoms: C_10  and  O_11
REMARK    5  A    between atoms: O_11  and  C_12
REMARK    6  A    between atoms: C_12  and  C_13
REMARK    7  A    between atoms: C_13  and  C_14
REMARK    8  A    between atoms: C_14  and  O_15
REMARK    9  A    between atoms: O_15  and  N_16
REMARK                            x       y       z     vdW  Elec       q    Type
REMARK                         _______ _______ _______ _____ _____    ______ ____
ROOT
ATOM      1  C   UNL     1       2.274   7.418  18.986  0.00  0.00    +0.000 A 
ATOM      2  C   UNL     1       2.025   6.596  20.084  0.00  0.00    +0.000 A 
ATOM      3  C   UNL     1       2.575   5.317  20.122  0.00  0.00    +0.000 A 
ATOM      4 CL   UNL     1       2.149   4.248  21.402  0.00  0.00    +0.000 Cl
ATOM      5  C   UNL     1       3.452   4.888  19.128  0.00  0.00    +0.000 A 
ATOM      6  C   UNL     1       3.807   5.749  18.091  0.00  0.00    +0.000 A 
ATOM      7  C   UNL     1       3.202   7.004  18.008  0.00  0.00    +0.000 A 
ENDROOT
BRANCH   1  10
ATOM      8  C   UNL     1       1.024   8.993  21.300  0.00  0.00    +0.000 C 
ATOM      9  N   UNL     1       1.118   9.470  19.923  0.00  0.00    +0.000 N 
ATOM     10  C   UNL     1       1.659   8.767  18.832  0.00  0.00    +0.000 C 
ATOM     11  O   UNL     1       1.626   9.196  17.682  0.00  0.00    +0.000 OA
BRANCH   9  12
ATOM     12  C   UNL     1       0.408  10.737  19.687  0.00  0.00    +0.000 C 
ATOM     13  C   UNL     1      -0.699  11.091  20.676  0.00  0.00    +0.000 C 
ATOM     14  C   UNL     1      -0.980  12.560  20.373  0.00  0.00    +0.000 C 
ATOM     15  C   UNL     1       0.332  13.151  19.854  0.00  0.00    +0.000 C 
ATOM     16  C   UNL     1       1.297  11.982  19.660  0.00  0.00    +0.000 C 
ENDBRANCH   9  12
ENDBRANCH   1  10
BRANCH   6  17
ATOM     17  O   UNL     1       4.706   5.235  17.199  0.00  0.00    +0.000 OA
BRANCH  17  18
ATOM     18  C   UNL     1       5.028   6.053  16.072  0.00  0.00    +0.000 C 
BRANCH  18  19
ATOM     19  C   UNL     1       6.061   5.314  15.216  0.00  0.00    +0.000 C 
BRANCH  19  20
ATOM     20  C   UNL     1       6.759   4.199  15.989  0.00  0.00    +0.000 C 
BRANCH  20  21
ATOM     21  O   UNL     1       7.934   4.724  16.608  0.00  0.00    +0.000 OA
BRANCH  21  22
ATOM     22  N   UNL     1       7.880   4.422  17.981  0.00  0.00    +0.000 NA
ATOM     23  C   UNL     1       7.822   5.509  18.682  0.00  0.00    +0.000 C 
ATOM     24  N   UNL     1       7.833   6.773  18.196  0.00  0.00    +0.000 N 
ATOM     25  N   UNL     1       7.787   5.474  20.032  0.00  0.00    +0.000 N 
ATOM     26  H   UNL     1       7.701   6.768  17.190  0.00  0.00    +0.000 HD
ATOM     27  H   UNL     1       7.238   7.440  18.663  0.00  0.00    +0.000 HD
ATOM     28  H   UNL     1       7.609   4.544  20.392  0.00  0.00    +0.000 HD
ATOM     29  H   UNL     1       7.267   6.200  20.500  0.00  0.00    +0.000 HD
ENDBRANCH  21  22
ENDBRANCH  20  21
ENDBRANCH  19  20
ENDBRANCH  18  19
ENDBRANCH  17  18
ENDBRANCH   6  17
TORSDOF 8
ENDMDL
MODEL 4
REMARK VINA RESULT:      -7.2      4.438      6.533
REMARK  Name = 
REMARK  9 active torsions:
REMARK  status: ('A' for Active; 'I' for Inactive)
REMARK    1  A    between atoms: C_1  and  N_2
REMARK    2  A    between atoms: N_2  and  C_21
REMARK    3  A    between atoms: C_3  and  C_5
REMARK    4  A    between atoms: C_10  and  O_11
REMARK    5  A    between atoms: O_11  and  C_12
REMARK    6  A    between atoms: C_12  and  C_13
REMARK    7  A    between atoms: C_13  and  C_14
REMARK    8  A    between atoms: C_14  and  O_15
REMARK    9  A    between atoms: O_15  and  N_16
REMARK                            x       y       z     vdW  Elec       q    Type
REMARK                         _______ _______ _______ _____ _____    ______ ____
ROOT
ATOM      1  C   UNL     1       2.543   5.943  19.550  0.00  0.00    +0.000 A 
ATOM      2  C   UNL     1       1.751   4.820  19.313  0.00  0.00    +0.000 A 
ATOM      3  C   UNL     1       2.350   3.638  18.881  0.00  0.00    +0.000 A 
ATOM      4 CL   UNL     1       1.362   2.298  18.445  0.00  0.00    +0.000 Cl
ATOM      5  C   UNL     1       3.736   3.536  18.782  0.00  0.00    +0.000 A 
ATOM      6  C   UNL     1       4.543   4.615  19.138  0.00  0.00    +0.000 A 
ATOM      7  C   UNL     1       3.947   5.824  19.501  0.00  0.00    +0.000 A 
ENDROOT
BRANCH   1  10
ATOM      8  C   UNL     1       2.231   8.297  17.610  0.00  0.00    +0.000 C 
ATOM      9  N   UNL     1       1.821   8.314  19.011  0.00  0.00    +0.000 N 
ATOM     10  C   UNL     1       1.972   7.265  19.936  0.00  0.00    +0.000 C 
ATOM     11  O   UNL     1       1.683   7.379  21.125  0.00  0.00    +0.000 OA
BRANCH   9  12
ATOM     12  C   UNL     1       1.375   9.634  19.481  0.00  0.00    +0.000 C 
ATOM     13  C   UNL     1       1.647  10.815  18.553  0.00  0.00    +0.000 C 
ATOM     14  C   UNL     1       0.786  11.927  19.143  0.00  0.00    +0.000 C 
ATOM     15  C   UNL     1      -0.405  11.241  19.813  0.00  0.00    +0.000 C 
ATOM     16  C   UNL     1      -0.119   9.740  19.791  0.00  0.00    +0.000 C 
ENDBRANCH   9  12
ENDBRANCH   1  10
BRANCH   6  17
ATOM     17  O   UNL     1       5.887   4.384  19.041  0.00  0.00    +0.000 OA
BRANCH  17  18
ATOM     18  C   UNL     1       6.750   5.436  19.479  0.00  0.00    +0.000 C 
BRANCH  18  19
ATOM     19  C   UNL     1       7.346   6.120  18.246  0.00  0.00    +0.000 C 
BRANCH  19  20
ATOM     20  C   UNL     1       7.485   5.164  17.065  0.00  0.00    +0.000 C 
BRANCH  20  21
ATOM     21  O   UNL     1       7.211   5.873  15.856  0.00  0.00    +0.000 OA
BRANCH  21  22
ATOM     22  N   UNL     1       7.484   5.018  14.773  0.00  0.00    +0.000 NA
ATOM     23  C   UNL     1       6.406   4.409  14.393  0.00  0.00    +0.000 C 
ATOM     24  N   UNL     1       5.180   4.538  14.951  0.00  0.00    +0.000 N 
ATOM     25  N   UNL     1       6.423   3.516  13.381  0.00  0.00    +0.000 N 
ATOM     26  H   UNL     1       5.162   5.323  15.595  0.00  0.00    +0.000 HD
ATOM     27  H   UNL     1       4.394   4.538  14.318  0.00  0.00    +0.000 HD
ATOM     28  H   UNL     1       7.288   3.540  12.855  0.00  0.00    +0.000 HD
ATOM     29  H   UNL     1       5.597   3.452  12.806  0.00  0.00    +0.000 HD
ENDBRANCH  21  22
ENDBRANCH  20  21
ENDBRANCH  19  20
ENDBRANCH  18  19
ENDBRANCH  17  18
ENDBRANCH   6  17
TORSDOF 8
ENDMDL
MODEL 5
REMARK VINA RESULT:      -7.1      4.720      7.849
REMARK  Name = 
REMARK  9 active torsions:
REMARK  status: ('A' for Active; 'I' for Inactive)
REMARK    1  A    between atoms: C_1  and  N_2
REMARK    2  A    between atoms: N_2  and  C_21
REMARK    3  A    between atoms: C_3  and  C_5
REMARK    4  A    between atoms: C_10  and  O_11
REMARK    5  A    between atoms: O_11  and  C_12
REMARK    6  A    between atoms: C_12  and  C_13
REMARK    7  A    between atoms: C_13  and  C_14
REMARK    8  A    between atoms: C_14  and  O_15
REMARK    9  A    between atoms: O_15  and  N_16
REMARK                            x       y       z     vdW  Elec       q    Type
REMARK                         _______ _______ _______ _____ _____    ______ ____
ROOT
ATOM      1  C   UNL     1       2.912   7.273  17.902  0.00  0.00    +0.000 A 
ATOM      2  C   UNL     1       4.192   7.272  17.347  0.00  0.00    +0.000 A 
ATOM      3  C   UNL     1       4.823   6.059  17.082  0.00  0.00    +0.000 A 
ATOM      4 CL   UNL     1       6.456   6.053  16.539  0.00  0.00    +0.000 Cl
ATOM      5  C   UNL     1       4.153   4.851  17.266  0.00  0.00    +0.000 A 
ATOM      6  C   UNL     1       2.828   4.847  17.701  0.00  0.00    +0.000 A 
ATOM      7  C   UNL     1       2.216   6.055  18.038  0.00  0.00    +0.000 A 
ENDROOT
BRANCH   1  10
ATOM      8  C   UNL     1       1.677   7.747  20.667  0.00  0.00    +0.000 C 
ATOM      9  N   UNL     1       1.670   8.717  19.576  0.00  0.00    +0.000 N 
ATOM     10  C   UNL     1       2.203   8.526  18.288  0.00  0.00    +0.000 C 
ATOM     11  O   UNL     1       2.085   9.355  17.390  0.00  0.00    +0.000 OA
BRANCH   9  12
ATOM     12  C   UNL     1       0.869   9.917  19.856  0.00  0.00    +0.000 C 
ATOM     13  C   UNL     1      -0.492  10.002  19.170  0.00  0.00    +0.000 C 
ATOM     14  C   UNL     1      -1.187  11.139  19.912  0.00  0.00    +0.000 C 
ATOM     15  C   UNL     1      -0.611  11.144  21.329  0.00  0.00    +0.000 C 
ATOM     16  C   UNL     1       0.555  10.156  21.334  0.00  0.00    +0.000 C 
ENDBRANCH   9  12
ENDBRANCH   1  10
BRANCH   6  17
ATOM     17  O   UNL     1       2.261   3.607  17.805  0.00  0.00    +0.000 OA
BRANCH  17  18
ATOM     18  C   UNL     1       3.101   2.492  17.498  0.00  0.00    +0.000 C 
BRANCH  18  19
ATOM     19  C   UNL     1       3.210   1.610  18.744  0.00  0.00    +0.000 C 
BRANCH  19  20
ATOM     20  C   UNL     1       4.293   2.095  19.703  0.00  0.00    +0.000 C 
BRANCH  20  21
ATOM     21  O   UNL     1       3.741   3.092  20.565  0.00  0.00    +0.000 OA
BRANCH  21  22
ATOM     22  N   UNL     1       3.014   2.443  21.579  0.00  0.00    +0.000 NA
ATOM     23  C   UNL     1       1.794   2.876  21.609  0.00  0.00    +0.000 C 
ATOM     24  N   UNL     1       1.267   3.831  20.808  0.00  0.00    +0.000 N 
ATOM     25  N   UNL     1       0.908   2.416  22.518  0.00  0.00    +0.000 N 
ATOM     26  H   UNL     1       1.899   4.041  20.041  0.00  0.00    +0.000 HD
ATOM     27  H   UNL     1       0.317   3.687  20.500  0.00  0.00    +0.000 HD
ATOM     28  H   UNL     1       1.240   1.591  23.003  0.00  0.00    +0.000 HD
ATOM     29  H   UNL     1      -0.059   2.362  22.236  0.00  0.00    +0.000 HD
ENDBRANCH  21  22
ENDBRANCH  20  21
ENDBRANCH  19  20
ENDBRANCH  18  19
ENDBRANCH  17  18
ENDBRANCH   6  17
TORSDOF 8
ENDMDL
MODEL 6
REMARK VINA RESULT:      -7.1      4.455      6.346
REMARK  Name = 
REMARK  9 active torsions:
REMARK  status: ('A' for Active; 'I' for Inactive)
REMARK    1  A    between atoms: C_1  and  N_2
REMARK    2  A    between atoms: N_2  and  C_21
REMARK    3  A    between atoms: C_3  and  C_5
REMARK    4  A    between atoms: C_10  and  O_11
REMARK    5  A    between atoms: O_11  and  C_12
REMARK    6  A    between atoms: C_12  and  C_13
REMARK    7  A    between atoms: C_13  and  C_14
REMARK    8  A    between atoms: C_14  and  O_15
REMARK    9  A    between atoms: O_15  and  N_16
REMARK                            x       y       z     vdW  Elec       q    Type
REMARK                         _______ _______ _______ _____ _____    ______ ____
ROOT
ATOM      1  C   UNL     1       2.931   6.612  18.523  0.00  0.00    +0.000 A 
ATOM      2  C   UNL     1       2.222   5.450  18.222  0.00  0.00    +0.000 A 
ATOM      3  C   UNL     1       2.861   4.215  18.308  0.00  0.00    +0.000 A 
ATOM      4 CL   UNL     1       2.034   2.795  17.794  0.00  0.00    +0.000 Cl
ATOM      5  C   UNL     1       4.165   4.119  18.788  0.00  0.00    +0.000 A 
ATOM      6  C   UNL     1       4.839   5.263  19.211  0.00  0.00    +0.000 A 
ATOM      7  C   UNL     1       4.231   6.510  19.059  0.00  0.00    +0.000 A 
ENDROOT
BRANCH   1  10
ATOM      8  C   UNL     1       1.369   8.037  20.744  0.00  0.00    +0.000 C 
ATOM      9  N   UNL     1       1.656   8.607  19.430  0.00  0.00    +0.000 N 
ATOM     10  C   UNL     1       2.345   7.975  18.379  0.00  0.00    +0.000 C 
ATOM     11  O   UNL     1       2.474   8.483  17.268  0.00  0.00    +0.000 OA
BRANCH   9  12
ATOM     12  C   UNL     1       0.988   9.894  19.186  0.00  0.00    +0.000 C 
ATOM     13  C   UNL     1      -0.381   9.834  18.512  0.00  0.00    +0.000 C 
ATOM     14  C   UNL     1      -0.932  11.241  18.716  0.00  0.00    +0.000 C 
ATOM     15  C   UNL     1      -0.310  11.764  20.011  0.00  0.00    +0.000 C 
ATOM     16  C   UNL     1       0.751  10.748  20.432  0.00  0.00    +0.000 C 
ENDBRANCH   9  12
ENDBRANCH   1  10
BRANCH   6  17
ATOM     17  O   UNL     1       6.096   5.041  19.702  0.00  0.00    +0.000 OA
BRANCH  17  18
ATOM     18  C   UNL     1       7.149   4.934  18.741  0.00  0.00    +0.000 C 
BRANCH  18  19
ATOM     19  C   UNL     1       7.486   6.338  18.233  0.00  0.00    +0.000 C 
BRANCH  19  20
ATOM     20  C   UNL     1       7.281   6.472  16.726  0.00  0.00    +0.000 C 
BRANCH  20  21
ATOM     21  O   UNL     1       7.449   5.191  16.117  0.00  0.00    +0.000 OA
BRANCH  21  22
ATOM     22  N   UNL     1       7.606   5.380  14.733  0.00  0.00    +0.000 NA
ATOM     23  C   UNL     1       6.927   4.495  14.074  0.00  0.00    +0.000 C 
ATOM     24  N   UNL     1       6.179   3.503  14.612  0.00  0.00    +0.000 N 
ATOM     25  N   UNL     1       6.941   4.460  12.725  0.00  0.00    +0.000 N 
ATOM     26  H   UNL     1       6.059   3.649  15.609  0.00  0.00    +0.000 HD
ATOM     27  H   UNL     1       5.312   3.289  14.143  0.00  0.00    +0.000 HD
ATOM     28  H   UNL     1       7.354   5.290  12.317  0.00  0.00    +0.000 HD
ATOM     29  H   UNL     1       6.099   4.153  12.261  0.00  0.00    +0.000 HD
ENDBRANCH  21  22
ENDBRANCH  20  21
ENDBRANCH  19  20
ENDBRANCH  18  19
ENDBRANCH  17  18
ENDBRANCH   6  17
TORSDOF 8
ENDMDL
MODEL 7
REMARK VINA RESULT:      -7.1      1.290      1.694
REMARK  Name = 
REMARK  9 active torsions:
REMARK  status: ('A' for Active; 'I' for Inactive)
REMARK    1  A    between atoms: C_1  and  N_2
REMARK    2  A    between atoms: N_2  and  C_21
REMARK    3  A    between atoms: C_3  and  C_5
REMARK    4  A    between atoms: C_10  and  O_11
REMARK    5  A    between atoms: O_11  and  C_12
REMARK    6  A    between atoms: C_12  and  C_13
REMARK    7  A    between atoms: C_13  and  C_14
REMARK    8  A    between atoms: C_14  and  O_15
REMARK    9  A    between atoms: O_15  and  N_16
REMARK                            x       y       z     vdW  Elec       q    Type
REMARK                         _______ _______ _______ _____ _____    ______ ____
ROOT
ATOM      1  C   UNL     1       5.272   4.040  16.509  0.00  0.00    +0.000 A 
ATOM      2  C   UNL     1       5.449   3.574  15.206  0.00  0.00    +0.000 A 
ATOM      3  C   UNL     1       6.307   4.254  14.346  0.00  0.00    +0.000 A 
ATOM      4 CL   UNL     1       6.412   3.770  12.697  0.00  0.00    +0.000 Cl
ATOM      5  C   UNL     1       7.068   5.330  14.799  0.00  0.00    +0.000 A 
ATOM      6  C   UNL     1       6.992   5.724  16.134  0.00  0.00    +0.000 A 
ATOM      7  C   UNL     1       6.080   5.094  16.982  0.00  0.00    +0.000 A 
ENDROOT
BRANCH   1  10
ATOM      8  C   UNL     1       3.383   5.645  18.314  0.00  0.00    +0.000 C 
ATOM      9  N   UNL     1       3.444   4.187  18.260  0.00  0.00    +0.000 N 
ATOM     10  C   UNL     1       4.313   3.418  17.465  0.00  0.00    +0.000 C 
ATOM     11  O   UNL     1       4.369   2.193  17.534  0.00  0.00    +0.000 OA
BRANCH   9  12
ATOM     12  C   UNL     1       2.615   3.522  19.277  0.00  0.00    +0.000 C 
ATOM     13  C   UNL     1       2.594   4.162  20.662  0.00  0.00    +0.000 C 
ATOM     14  C   UNL     1       1.421   3.470  21.349  0.00  0.00    +0.000 C 
ATOM     15  C   UNL     1       0.437   3.091  20.241  0.00  0.00    +0.000 C 
ATOM     16  C   UNL     1       1.137   3.374  18.913  0.00  0.00    +0.000 C 
ENDBRANCH   9  12
ENDBRANCH   1  10
BRANCH   6  17
ATOM     17  O   UNL     1       7.814   6.763  16.474  0.00  0.00    +0.000 OA
BRANCH  17  18
ATOM     18  C   UNL     1       7.593   7.362  17.753  0.00  0.00    +0.000 C 
BRANCH  18  19
ATOM     19  C   UNL     1       7.715   8.880  17.605  0.00  0.00    +0.000 C 
BRANCH  19  20
ATOM     20  C   UNL     1       8.867   9.450  18.428  0.00  0.00    +0.000 C 
BRANCH  20  21
ATOM     21  O   UNL     1       8.591  10.818  18.732  0.00  0.00    +0.000 OA
BRANCH  21  22
ATOM     22  N   UNL     1       9.700  11.589  18.341  0.00  0.00    +0.000 NA
ATOM     23  C   UNL     1       9.324  12.579  17.596  0.00  0.00    +0.000 C 
ATOM     24  N   UNL     1       8.054  12.848  17.211  0.00  0.00    +0.000 N 
ATOM     25  N   UNL     1      10.218  13.448  17.077  0.00  0.00    +0.000 N 
ATOM     26  H   UNL     1       7.395  12.283  17.737  0.00  0.00    +0.000 HD
ATOM     27  H   UNL     1       7.791  13.822  17.177  0.00  0.00    +0.000 HD
ATOM     28  H   UNL     1      11.137  13.355  17.493  0.00  0.00    +0.000 HD
ATOM     29  H   UNL     1       9.919  14.403  16.957  0.00  0.00    +0.000 HD
ENDBRANCH  21  22
ENDBRANCH  20  21
ENDBRANCH  19  20
ENDBRANCH  18  19
ENDBRANCH  17  18
ENDBRANCH   6  17
TORSDOF 8
ENDMDL
MODEL 8
REMARK VINA RESULT:      -7.1      4.913      7.045
REMARK  Name = 
REMARK  9 active torsions:
REMARK  status: ('A' for Active; 'I' for Inactive)
REMARK    1  A    between atoms: C_1  and  N_2
REMARK    2  A    between atoms: N_2  and  C_21
REMARK    3  A    between atoms: C_3  and  C_5
REMARK    4  A    between atoms: C_10  and  O_11
REMARK    5  A    between atoms: O_11  and  C_12
REMARK    6  A    between atoms: C_12  and  C_13
REMARK    7  A    between atoms: C_13  and  C_14
REMARK    8  A    between atoms: C_14  and  O_15
REMARK    9  A    between atoms: O_15  and  N_16
REMARK                            x       y       z     vdW  Elec       q    Type
REMARK                         _______ _______ _______ _____ _____    ______ ____
ROOT
ATOM      1  C   UNL     1       2.150   7.003  19.955  0.00  0.00    +0.000 A 
ATOM      2  C   UNL     1       1.751   5.848  20.628  0.00  0.00    +0.000 A 
ATOM      3  C   UNL     1       2.269   4.615  20.239  0.00  0.00    +0.000 A 
ATOM      4 CL   UNL     1       1.666   3.176  20.966  0.00  0.00    +0.000 Cl
ATOM      5  C   UNL     1       3.255   4.533  19.259  0.00  0.00    +0.000 A 
ATOM      6  C   UNL     1       3.752   5.694  18.669  0.00  0.00    +0.000 A 
ATOM      7  C   UNL     1       3.185   6.926  19.002  0.00  0.00    +0.000 A 
ENDROOT
BRANCH   1  10
ATOM      8  C   UNL     1       1.473   9.087  17.810  0.00  0.00    +0.000 C 
ATOM      9  N   UNL     1       1.262   9.269  19.243  0.00  0.00    +0.000 N 
ATOM     10  C   UNL     1       1.584   8.349  20.257  0.00  0.00    +0.000 C 
ATOM     11  O   UNL     1       1.458   8.605  21.452  0.00  0.00    +0.000 OA
BRANCH   9  12
ATOM     12  C   UNL     1       0.830  10.626  19.609  0.00  0.00    +0.000 C 
ATOM     13  C   UNL     1       1.425  11.773  18.795  0.00  0.00    +0.000 C 
ATOM     14  C   UNL     1       0.546  12.961  19.171  0.00  0.00    +0.000 C 
ATOM     15  C   UNL     1      -0.829  12.387  19.516  0.00  0.00    +0.000 C 
ATOM     16  C   UNL     1      -0.679  10.867  19.543  0.00  0.00    +0.000 C 
ENDBRANCH   9  12
ENDBRANCH   1  10
BRANCH   6  17
ATOM     17  O   UNL     1       4.746   5.493  17.752  0.00  0.00    +0.000 OA
BRANCH  17  18
ATOM     18  C   UNL     1       5.560   6.624  17.434  0.00  0.00    +0.000 C 
BRANCH  18  19
ATOM     19  C   UNL     1       7.004   6.310  17.836  0.00  0.00    +0.000 C 
BRANCH  19  20
ATOM     20  C   UNL     1       7.299   4.813  17.809  0.00  0.00    +0.000 C 
BRANCH  20  21
ATOM     21  O   UNL     1       7.892   4.477  16.554  0.00  0.00    +0.000 OA
BRANCH  21  22
ATOM     22  N   UNL     1       6.915   3.856  15.757  0.00  0.00    +0.000 NA
ATOM     23  C   UNL     1       6.850   4.424  14.595  0.00  0.00    +0.000 C 
ATOM     24  N   UNL     1       7.587   5.481  14.182  0.00  0.00    +0.000 N 
ATOM     25  N   UNL     1       5.964   4.015  13.661  0.00  0.00    +0.000 N 
ATOM     26  H   UNL     1       8.344   5.664  14.835  0.00  0.00    +0.000 HD
ATOM     27  H   UNL     1       7.897   5.467  13.222  0.00  0.00    +0.000 HD
ATOM     28  H   UNL     1       5.533   3.129  13.895  0.00  0.00    +0.000 HD
ATOM     29  H   UNL     1       6.242   4.091  12.695  0.00  0.00    +0.000 HD
ENDBRANCH  21  22
ENDBRANCH  20  21
ENDBRANCH  19  20
ENDBRANCH  18  19
ENDBRANCH  17  18
ENDBRANCH   6  17
TORSDOF 8
ENDMDL
MODEL 9
REMARK VINA RESULT:      -7.0      4.633      6.396
REMARK  Name = 
REMARK  9 active torsions:
REMARK  status: ('A' for Active; 'I' for Inactive)
REMARK    1  A    between atoms: C_1  and  N_2
REMARK    2  A    between atoms: N_2  and  C_21
REMARK    3  A    between atoms: C_3  and  C_5
REMARK    4  A    between atoms: C_10  and  O_11
REMARK    5  A    between atoms: O_11  and  C_12
REMARK    6  A    between atoms: C_12  and  C_13
REMARK    7  A    between atoms: C_13  and  C_14
REMARK    8  A    between atoms: C_14  and  O_15
REMARK    9  A    between atoms: O_15  and  N_16
REMARK                            x       y       z     vdW  Elec       q    Type
REMARK                         _______ _______ _______ _____ _____    ______ ____
ROOT
ATOM      1  C   UNL     1       2.623   7.006  18.748  0.00  0.00    +0.000 A 
ATOM      2  C   UNL     1       2.206   6.343  19.903  0.00  0.00    +0.000 A 
ATOM      3  C   UNL     1       2.669   5.055  20.159  0.00  0.00    +0.000 A 
ATOM      4 CL   UNL     1       2.041   4.180  21.501  0.00  0.00    +0.000 Cl
ATOM      5  C   UNL     1       3.622   4.462  19.333  0.00  0.00    +0.000 A 
ATOM      6  C   UNL     1       4.139   5.167  18.247  0.00  0.00    +0.000 A 
ATOM      7  C   UNL     1       3.625   6.428  17.943  0.00  0.00    +0.000 A 
ENDROOT
BRANCH   1  10
ATOM      8  C   UNL     1       0.997   8.812  20.618  0.00  0.00    +0.000 C 
ATOM      9  N   UNL     1       1.391   9.163  19.257  0.00  0.00    +0.000 N 
ATOM     10  C   UNL     1       2.113   8.352  18.362  0.00  0.00    +0.000 C 
ATOM     11  O   UNL     1       2.334   8.679  17.199  0.00  0.00    +0.000 OA
BRANCH   9  12
ATOM     12  C   UNL     1       0.801  10.422  18.777  0.00  0.00    +0.000 C 
ATOM     13  C   UNL     1      -0.723  10.478  18.710  0.00  0.00    +0.000 C 
ATOM     14  C   UNL     1      -1.009  11.964  18.522  0.00  0.00    +0.000 C 
ATOM     15  C   UNL     1       0.141  12.713  19.197  0.00  0.00    +0.000 C 
ATOM     16  C   UNL     1       1.185  11.665  19.581  0.00  0.00    +0.000 C 
ENDBRANCH   9  12
ENDBRANCH   1  10
BRANCH   6  17
ATOM     17  O   UNL     1       5.097   4.501  17.534  0.00  0.00    +0.000 OA
BRANCH  17  18
ATOM     18  C   UNL     1       4.713   4.012  16.247  0.00  0.00    +0.000 C 
BRANCH  18  19
ATOM     19  C   UNL     1       5.344   4.911  15.180  0.00  0.00    +0.000 C 
BRANCH  19  20
ATOM     20  C   UNL     1       6.860   4.752  15.113  0.00  0.00    +0.000 C 
BRANCH  20  21
ATOM     21  O   UNL     1       7.475   5.916  15.668  0.00  0.00    +0.000 OA
BRANCH  21  22
ATOM     22  N   UNL     1       7.816   5.639  17.004  0.00  0.00    +0.000 NA
ATOM     23  C   UNL     1       7.758   6.718  17.719  0.00  0.00    +0.000 C 
ATOM     24  N   UNL     1       7.441   7.955  17.270  0.00  0.00    +0.000 N 
ATOM     25  N   UNL     1       8.066   6.707  19.033  0.00  0.00    +0.000 N 
ATOM     26  H   UNL     1       7.064   7.906  16.329  0.00  0.00    +0.000 HD
ATOM     27  H   UNL     1       6.880   8.526  17.884  0.00  0.00    +0.000 HD
ATOM     28  H   UNL     1       8.138   5.769  19.409  0.00  0.00    +0.000 HD
ATOM     29  H   UNL     1       7.568   7.349  19.631  0.00  0.00    +0.000 HD
ENDBRANCH  21  22
ENDBRANCH  20  21
ENDBRANCH  19  20
ENDBRANCH  18  19
ENDBRANCH  17  18
ENDBRANCH   6  17
TORSDOF 8
ENDMDL
