MODEL 1
REMARK VINA RESULT:      -6.9      0.000      0.000
REMARK  Name = 
REMARK  10 active torsions:
REMARK  status: ('A' for Active; 'I' for Inactive)
REMARK    1  A    between atoms: C_1  and  C_2
REMARK    2  A    between atoms: C_2  and  C_3
REMARK    3  A    between atoms: C_3  and  C_4
REMARK    4  A    between atoms: C_4  and  C_5
REMARK    5  A    between atoms: C_5  and  C_6
REMARK    6  A    between atoms: C_8  and  O_9
REMARK    7  A    between atoms: C_14  and  C_15
REMARK    8  A    between atoms: C_14  and  C_16
REMARK    9  A    between atoms: C_20  and  C_21
REMARK   10  A    between atoms: C_22  and  O_23
REMARK                            x       y       z     vdW  Elec       q    Type
REMARK                         _______ _______ _______ _____ _____    ______ ____
ROOT
ATOM      1  C   UNL     1       2.715   6.882  18.602  0.00  0.00    +0.000 A 
ATOM      2  C   UNL     1       2.507   7.917  17.702  0.00  0.00    +0.000 A 
ATOM      3  C   UNL     1       1.916   9.117  18.121  0.00  0.00    +0.000 A 
ATOM      4  C   UNL     1       1.469   9.325  19.438  0.00  0.00    +0.000 A 
ATOM      5  C   UNL     1       1.677   8.268  20.328  0.00  0.00    +0.000 A 
ATOM      6  C   UNL     1       2.298   7.071  19.923  0.00  0.00    +0.000 A 
ATOM      7  O   UNL     1       1.390   8.330  21.658  0.00  0.00    +0.000 OA
ATOM      8  C   UNL     1       0.313   9.188  22.053  0.00  0.00    +0.000 C 
ATOM      9  C   UNL     1       0.510   9.317  23.581  0.00  0.00    +0.000 C 
ATOM     10  C   UNL     1      -1.020   8.452  21.824  0.00  0.00    +0.000 C 
ATOM     11  C   UNL     1       0.383  10.608  21.409  0.00  0.00    +0.000 C 
ATOM     12  C   UNL     1      -0.913  11.407  21.647  0.00  0.00    +0.000 C 
ATOM     13  C   UNL     1      -0.941  12.730  20.919  0.00  0.00    +0.000 C 
ATOM     14  C   UNL     1      -0.902  12.553  19.412  0.00  0.00    +0.000 C 
ATOM     15  C   UNL     1      -2.289  12.317  18.795  0.00  0.00    +0.000 C 
ATOM     16  C   UNL     1       0.077  11.472  18.928  0.00  0.00    +0.000 C 
ATOM     17  C   UNL     1       0.943  10.674  19.958  0.00  0.00    +0.000 C 
ENDROOT
BRANCH   3  18
ATOM     18  O   UNL     1       1.853  10.112  17.194  0.00  0.00    +0.000 OA
ATOM     19  H   UNL     1       0.982  10.112  16.773  0.00  0.00    +0.000 HD
ENDBRANCH   3  18
BRANCH  16  20
ATOM     20  O   UNL     1       0.961  12.235  18.076  0.00  0.00    +0.000 OA
ATOM     21  H   UNL     1       1.329  11.598  17.433  0.00  0.00    +0.000 HD
ENDBRANCH  16  20
BRANCH   1  22
ATOM     22  C   UNL     1       3.430   5.633  18.147  0.00  0.00    +0.000 C 
BRANCH  22  23
ATOM     23  C   UNL     1       2.928   4.339  18.785  0.00  0.00    +0.000 C 
BRANCH  23  24
ATOM     24  C   UNL     1       1.706   3.735  18.090  0.00  0.00    +0.000 C 
BRANCH  24  26
ATOM     25  C   UNL     1       1.123   3.477  20.535  0.00  0.00    +0.000 C 
ATOM     26  C   UNL     1       0.827   3.021  19.119  0.00  0.00    +0.000 C 
ENDBRANCH  24  26
ENDBRANCH  23  24
ENDBRANCH  22  23
ENDBRANCH   1  22
TORSDOF 6
ENDMDL
MODEL 2
REMARK VINA RESULT:      -6.8      4.234      7.471
REMARK  Name = 
REMARK  10 active torsions:
REMARK  status: ('A' for Active; 'I' for Inactive)
REMARK    1  A    between atoms: C_1  and  C_2
REMARK    2  A    between atoms: C_2  and  C_3
REMARK    3  A    between atoms: C_3  and  C_4
REMARK    4  A    between atoms: C_4  and  C_5
REMARK    5  A    between atoms: C_5  and  C_6
REMARK    6  A    between atoms: C_8  and  O_9
REMARK    7  A    between atoms: C_14  and  C_15
REMARK    8  A    between atoms: C_14  and  C_16
REMARK    9  A    between atoms: C_20  and  C_21
REMARK   10  A    between atoms: C_22  and  O_23
REMARK                            x       y       z     vdW  Elec       q    Type
REMARK                         _______ _______ _______ _____ _____    ______ ____
ROOT
ATOM      1  C   UNL     1       6.062   4.560  15.496  0.00  0.00    +0.000 A 
ATOM      2  C   UNL     1       5.742   3.288  15.948  0.00  0.00    +0.000 A 
ATOM      3  C   UNL     1       4.656   3.092  16.812  0.00  0.00    +0.000 A 
ATOM      4  C   UNL     1       3.870   4.152  17.298  0.00  0.00    +0.000 A 
ATOM      5  C   UNL     1       4.214   5.427  16.842  0.00  0.00    +0.000 A 
ATOM      6  C   UNL     1       5.283   5.629  15.949  0.00  0.00    +0.000 A 
ATOM      7  O   UNL     1       3.507   6.553  17.137  0.00  0.00    +0.000 OA
ATOM      8  C   UNL     1       2.814   6.577  18.390  0.00  0.00    +0.000 C 
ATOM      9  C   UNL     1       1.847   7.774  18.233  0.00  0.00    +0.000 C 
ATOM     10  C   UNL     1       3.813   6.941  19.505  0.00  0.00    +0.000 C 
ATOM     11  C   UNL     1       1.984   5.285  18.666  0.00  0.00    +0.000 C 
ATOM     12  C   UNL     1       1.468   5.236  20.117  0.00  0.00    +0.000 C 
ATOM     13  C   UNL     1       0.782   3.936  20.464  0.00  0.00    +0.000 C 
ATOM     14  C   UNL     1       1.729   2.752  20.381  0.00  0.00    +0.000 C 
ATOM     15  C   UNL     1       2.538   2.534  21.668  0.00  0.00    +0.000 C 
ATOM     16  C   UNL     1       2.673   2.782  19.168  0.00  0.00    +0.000 C 
ATOM     17  C   UNL     1       2.594   3.954  18.136  0.00  0.00    +0.000 C 
ENDROOT
BRANCH   3  18
ATOM     18  O   UNL     1       4.353   1.799  17.113  0.00  0.00    +0.000 OA
ATOM     19  H   UNL     1       3.397   1.707  17.236  0.00  0.00    +0.000 HD
ENDBRANCH   3  18
BRANCH  16  20
ATOM     20  O   UNL     1       2.324   1.551  18.494  0.00  0.00    +0.000 OA
ATOM     21  H   UNL     1       2.447   0.841  19.154  0.00  0.00    +0.000 HD
ENDBRANCH  16  20
BRANCH   1  22
ATOM     22  C   UNL     1       7.182   4.736  14.499  0.00  0.00    +0.000 C 
BRANCH  22  23
ATOM     23  C   UNL     1       6.730   4.897  13.049  0.00  0.00    +0.000 C 
BRANCH  23  24
ATOM     24  C   UNL     1       6.935   3.646  12.191  0.00  0.00    +0.000 C 
BRANCH  24  26
ATOM     25  C   UNL     1       4.522   3.415  11.479  0.00  0.00    +0.000 C 
ATOM     26  C   UNL     1       5.675   2.780  12.232  0.00  0.00    +0.000 C 
ENDBRANCH  24  26
ENDBRANCH  23  24
ENDBRANCH  22  23
ENDBRANCH   1  22
TORSDOF 6
ENDMDL
MODEL 3
REMARK VINA RESULT:      -6.8      4.362      6.880
REMARK  Name = 
REMARK  10 active torsions:
REMARK  status: ('A' for Active; 'I' for Inactive)
REMARK    1  A    between atoms: C_1  and  C_2
REMARK    2  A    between atoms: C_2  and  C_3
REMARK    3  A    between atoms: C_3  and  C_4
REMARK    4  A    between atoms: C_4  and  C_5
REMARK    5  A    between atoms: C_5  and  C_6
REMARK    6  A    between atoms: C_8  and  O_9
REMARK    7  A    between atoms: C_14  and  C_15
REMARK    8  A    between atoms: C_14  and  C_16
REMARK    9  A    between atoms: C_20  and  C_21
REMARK   10  A    between atoms: C_22  and  O_23
REMARK                            x       y       z     vdW  Elec       q    Type
REMARK                         _______ _______ _______ _____ _____    ______ ____
ROOT
ATOM      1  C   UNL     1       5.886   3.981  14.257  0.00  0.00    +0.000 A 
ATOM      2  C   UNL     1       5.830   5.364  14.357  0.00  0.00    +0.000 A 
ATOM      3  C   UNL     1       5.270   5.974  15.488  0.00  0.00    +0.000 A 
ATOM      4  C   UNL     1       4.705   5.241  16.546  0.00  0.00    +0.000 A 
ATOM      5  C   UNL     1       4.760   3.850  16.423  0.00  0.00    +0.000 A 
ATOM      6  C   UNL     1       5.349   3.229  15.306  0.00  0.00    +0.000 A 
ATOM      7  O   UNL     1       4.344   2.987  17.392  0.00  0.00    +0.000 OA
ATOM      8  C   UNL     1       3.284   3.430  18.247  0.00  0.00    +0.000 C 
ATOM      9  C   UNL     1       3.332   2.420  19.417  0.00  0.00    +0.000 C 
ATOM     10  C   UNL     1       1.940   3.226  17.522  0.00  0.00    +0.000 C 
ATOM     11  C   UNL     1       3.500   4.870  18.809  0.00  0.00    +0.000 C 
ATOM     12  C   UNL     1       2.235   5.406  19.506  0.00  0.00    +0.000 C 
ATOM     13  C   UNL     1       2.357   6.849  19.937  0.00  0.00    +0.000 C 
ATOM     14  C   UNL     1       2.538   7.784  18.755  0.00  0.00    +0.000 C 
ATOM     15  C   UNL     1       1.210   8.211  18.113  0.00  0.00    +0.000 C 
ATOM     16  C   UNL     1       3.498   7.259  17.675  0.00  0.00    +0.000 C 
ATOM     17  C   UNL     1       4.207   5.877  17.856  0.00  0.00    +0.000 C 
ENDROOT
BRANCH   3  18
ATOM     18  O   UNL     1       5.359   7.332  15.545  0.00  0.00    +0.000 OA
ATOM     19  H   UNL     1       6.233   7.615  15.242  0.00  0.00    +0.000 HD
ENDBRANCH   3  18
BRANCH  16  20
ATOM     20  O   UNL     1       4.506   8.295  17.649  0.00  0.00    +0.000 OA
ATOM     21  H   UNL     1       5.071   8.137  18.430  0.00  0.00    +0.000 HD
ENDBRANCH  16  20
BRANCH   1  22
ATOM     22  C   UNL     1       6.570   3.348  13.070  0.00  0.00    +0.000 C 
BRANCH  22  23
ATOM     23  C   UNL     1       5.625   2.789  12.008  0.00  0.00    +0.000 C 
BRANCH  23  24
ATOM     24  C   UNL     1       4.429   3.693  11.702  0.00  0.00    +0.000 C 
BRANCH  24  26
ATOM     25  C   UNL     1       2.965   4.099   9.683  0.00  0.00    +0.000 C 
ATOM     26  C   UNL     1       3.569   3.059  10.606  0.00  0.00    +0.000 C 
ENDBRANCH  24  26
ENDBRANCH  23  24
ENDBRANCH  22  23
ENDBRANCH   1  22
TORSDOF 6
ENDMDL
MODEL 4
REMARK VINA RESULT:      -6.7      4.387      7.855
REMARK  Name = 
REMARK  10 active torsions:
REMARK  status: ('A' for Active; 'I' for Inactive)
REMARK    1  A    between atoms: C_1  and  C_2
REMARK    2  A    between atoms: C_2  and  C_3
REMARK    3  A    between atoms: C_3  and  C_4
REMARK    4  A    between atoms: C_4  and  C_5
REMARK    5  A    between atoms: C_5  and  C_6
REMARK    6  A    between atoms: C_8  and  O_9
REMARK    7  A    between atoms: C_14  and  C_15
REMARK    8  A    between atoms: C_14  and  C_16
REMARK    9  A    between atoms: C_20  and  C_21
REMARK   10  A    between atoms: C_22  and  O_23
REMARK                            x       y       z     vdW  Elec       q    Type
REMARK                         _______ _______ _______ _____ _____    ______ ____
ROOT
ATOM      1  C   UNL     1       7.078   7.229  17.718  0.00  0.00    +0.000 A 
ATOM      2  C   UNL     1       7.281   5.904  18.077  0.00  0.00    +0.000 A 
ATOM      3  C   UNL     1       6.192   5.049  18.290  0.00  0.00    +0.000 A 
ATOM      4  C   UNL     1       4.857   5.480  18.197  0.00  0.00    +0.000 A 
ATOM      5  C   UNL     1       4.671   6.820  17.846  0.00  0.00    +0.000 A 
ATOM      6  C   UNL     1       5.760   7.678  17.599  0.00  0.00    +0.000 A 
ATOM      7  O   UNL     1       3.450   7.382  17.623  0.00  0.00    +0.000 OA
ATOM      8  C   UNL     1       2.340   6.835  18.344  0.00  0.00    +0.000 C 
ATOM      9  C   UNL     1       1.117   7.412  17.594  0.00  0.00    +0.000 C 
ATOM     10  C   UNL     1       2.328   7.429  19.765  0.00  0.00    +0.000 C 
ATOM     11  C   UNL     1       2.276   5.277  18.297  0.00  0.00    +0.000 C 
ATOM     12  C   UNL     1       1.234   4.718  19.285  0.00  0.00    +0.000 C 
ATOM     13  C   UNL     1       1.242   3.210  19.373  0.00  0.00    +0.000 C 
ATOM     14  C   UNL     1       2.561   2.677  19.905  0.00  0.00    +0.000 C 
ATOM     15  C   UNL     1       2.626   2.651  21.439  0.00  0.00    +0.000 C 
ATOM     16  C   UNL     1       3.803   3.385  19.339  0.00  0.00    +0.000 C 
ATOM     17  C   UNL     1       3.645   4.536  18.292  0.00  0.00    +0.000 C 
ENDROOT
BRANCH   3  18
ATOM     18  O   UNL     1       6.491   3.742  18.531  0.00  0.00    +0.000 OA
ATOM     19  H   UNL     1       7.127   3.681  19.257  0.00  0.00    +0.000 HD
ENDBRANCH   3  18
BRANCH  16  20
ATOM     20  O   UNL     1       4.508   2.288  18.716  0.00  0.00    +0.000 OA
ATOM     21  H   UNL     1       5.141   2.697  18.093  0.00  0.00    +0.000 HD
ENDBRANCH  16  20
BRANCH   1  22
ATOM     22  C   UNL     1       8.266   8.108  17.411  0.00  0.00    +0.000 C 
BRANCH  22  23
ATOM     23  C   UNL     1       8.682   9.043  18.545  0.00  0.00    +0.000 C 
BRANCH  23  24
ATOM     24  C   UNL     1       8.778  10.514  18.135  0.00  0.00    +0.000 C 
BRANCH  24  26
ATOM     25  C   UNL     1      10.977  11.737  17.900  0.00  0.00    +0.000 C 
ATOM     26  C   UNL     1       9.948  11.177  18.864  0.00  0.00    +0.000 C 
ENDBRANCH  24  26
ENDBRANCH  23  24
ENDBRANCH  22  23
ENDBRANCH   1  22
TORSDOF 6
ENDMDL
MODEL 5
REMARK VINA RESULT:      -6.6      2.312      7.311
REMARK  Name = 
REMARK  10 active torsions:
REMARK  status: ('A' for Active; 'I' for Inactive)
REMARK    1  A    between atoms: C_1  and  C_2
REMARK    2  A    between atoms: C_2  and  C_3
REMARK    3  A    between atoms: C_3  and  C_4
REMARK    4  A    between atoms: C_4  and  C_5
REMARK    5  A    between atoms: C_5  and  C_6
REMARK    6  A    between atoms: C_8  and  O_9
REMARK    7  A    between atoms: C_14  and  C_15
REMARK    8  A    between atoms: C_14  and  C_16
REMARK    9  A    between atoms: C_20  and  C_21
REMARK   10  A    between atoms: C_22  and  O_23
REMARK                            x       y       z     vdW  Elec       q    Type
REMARK                         _______ _______ _______ _____ _____    ______ ____
ROOT
ATOM      1  C   UNL     1       1.275   7.217  20.711  0.00  0.00    +0.000 A 
ATOM      2  C   UNL     1       1.911   8.056  19.808  0.00  0.00    +0.000 A 
ATOM      3  C   UNL     1       2.646   7.525  18.739  0.00  0.00    +0.000 A 
ATOM      4  C   UNL     1       2.817   6.143  18.545  0.00  0.00    +0.000 A 
ATOM      5  C   UNL     1       2.179   5.313  19.471  0.00  0.00    +0.000 A 
ATOM      6  C   UNL     1       1.413   5.837  20.530  0.00  0.00    +0.000 A 
ATOM      7  O   UNL     1       2.162   3.953  19.384  0.00  0.00    +0.000 OA
ATOM      8  C   UNL     1       3.286   3.327  18.755  0.00  0.00    +0.000 C 
ATOM      9  C   UNL     1       2.781   1.891  18.485  0.00  0.00    +0.000 C 
ATOM     10  C   UNL     1       4.434   3.224  19.776  0.00  0.00    +0.000 C 
ATOM     11  C   UNL     1       3.687   3.989  17.400  0.00  0.00    +0.000 C 
ATOM     12  C   UNL     1       5.040   3.462  16.886  0.00  0.00    +0.000 C 
ATOM     13  C   UNL     1       5.531   4.180  15.651  0.00  0.00    +0.000 C 
ATOM     14  C   UNL     1       5.797   5.651  15.915  0.00  0.00    +0.000 C 
ATOM     15  C   UNL     1       7.198   5.919  16.485  0.00  0.00    +0.000 C 
ATOM     16  C   UNL     1       4.735   6.338  16.789  0.00  0.00    +0.000 C 
ATOM     17  C   UNL     1       3.501   5.532  17.310  0.00  0.00    +0.000 C 
ENDROOT
BRANCH   3  18
ATOM     18  O   UNL     1       3.141   8.425  17.844  0.00  0.00    +0.000 OA
ATOM     19  H   UNL     1       3.776   9.007  18.284  0.00  0.00    +0.000 HD
ENDBRANCH   3  18
BRANCH  16  20
ATOM     20  O   UNL     1       4.264   7.385  15.910  0.00  0.00    +0.000 OA
ATOM     21  H   UNL     1       5.040   7.950  15.728  0.00  0.00    +0.000 HD
ENDBRANCH  16  20
BRANCH   1  22
ATOM     22  C   UNL     1       0.420   7.811  21.804  0.00  0.00    +0.000 C 
BRANCH  22  23
ATOM     23  C   UNL     1       0.628   9.305  22.041  0.00  0.00    +0.000 C 
BRANCH  23  24
ATOM     24  C   UNL     1      -0.350   9.919  23.045  0.00  0.00    +0.000 C 
BRANCH  24  26
ATOM     25  C   UNL     1      -2.096  11.745  23.119  0.00  0.00    +0.000 C 
ATOM     26  C   UNL     1      -0.735  11.330  22.594  0.00  0.00    +0.000 C 
ENDBRANCH  24  26
ENDBRANCH  23  24
ENDBRANCH  22  23
ENDBRANCH   1  22
TORSDOF 6
ENDMDL
MODEL 6
REMARK VINA RESULT:      -6.5      4.469      6.828
REMARK  Name = 
REMARK  10 active torsions:
REMARK  status: ('A' for Active; 'I' for Inactive)
REMARK    1  A    between atoms: C_1  and  C_2
REMARK    2  A    between atoms: C_2  and  C_3
REMARK    3  A    between atoms: C_3  and  C_4
REMARK    4  A    between atoms: C_4  and  C_5
REMARK    5  A    between atoms: C_5  and  C_6
REMARK    6  A    between atoms: C_8  and  O_9
REMARK    7  A    between atoms: C_14  and  C_15
REMARK    8  A    between atoms: C_14  and  C_16
REMARK    9  A    between atoms: C_20  and  C_21
REMARK   10  A    between atoms: C_22  and  O_23
REMARK                            x       y       z     vdW  Elec       q    Type
REMARK                         _______ _______ _______ _____ _____    ______ ____
ROOT
ATOM      1  C   UNL     1       5.882   3.961  14.508  0.00  0.00    +0.000 A 
ATOM      2  C   UNL     1       5.808   5.346  14.538  0.00  0.00    +0.000 A 
ATOM      3  C   UNL     1       5.220   6.005  15.626  0.00  0.00    +0.000 A 
ATOM      4  C   UNL     1       4.643   5.318  16.709  0.00  0.00    +0.000 A 
ATOM      5  C   UNL     1       4.717   3.924  16.658  0.00  0.00    +0.000 A 
ATOM      6  C   UNL     1       5.334   3.255  15.583  0.00  0.00    +0.000 A 
ATOM      7  O   UNL     1       4.293   3.105  17.661  0.00  0.00    +0.000 OA
ATOM      8  C   UNL     1       3.212   3.577  18.473  0.00  0.00    +0.000 C 
ATOM      9  C   UNL     1       3.251   2.627  19.693  0.00  0.00    +0.000 C 
ATOM     10  C   UNL     1       1.885   3.320  17.735  0.00  0.00    +0.000 C 
ATOM     11  C   UNL     1       3.401   5.045  18.966  0.00  0.00    +0.000 C 
ATOM     12  C   UNL     1       2.117   5.600  19.612  0.00  0.00    +0.000 C 
ATOM     13  C   UNL     1       2.214   7.063  19.973  0.00  0.00    +0.000 C 
ATOM     14  C   UNL     1       2.406   7.941  18.749  0.00  0.00    +0.000 C 
ATOM     15  C   UNL     1       1.085   8.318  18.063  0.00  0.00    +0.000 C 
ATOM     16  C   UNL     1       3.392   7.375  17.714  0.00  0.00    +0.000 C 
ATOM     17  C   UNL     1       4.114   6.012  17.977  0.00  0.00    +0.000 C 
ENDROOT
BRANCH   3  18
ATOM     18  O   UNL     1       5.291   7.365  15.617  0.00  0.00    +0.000 OA
ATOM     19  H   UNL     1       5.681   7.666  14.784  0.00  0.00    +0.000 HD
ENDBRANCH   3  18
BRANCH  16  20
ATOM     20  O   UNL     1       4.388   8.420  17.654  0.00  0.00    +0.000 OA
ATOM     21  H   UNL     1       3.894   9.263  17.695  0.00  0.00    +0.000 HD
ENDBRANCH  16  20
BRANCH   1  22
ATOM     22  C   UNL     1       6.595   3.278  13.366  0.00  0.00    +0.000 C 
BRANCH  22  23
ATOM     23  C   UNL     1       5.906   3.410  12.009  0.00  0.00    +0.000 C 
BRANCH  23  24
ATOM     24  C   UNL     1       5.346   2.094  11.465  0.00  0.00    +0.000 C 
BRANCH  24  26
ATOM     25  C   UNL     1       6.152  -0.296  11.326  0.00  0.00    +0.000 C 
ATOM     26  C   UNL     1       6.497   1.161  11.085  0.00  0.00    +0.000 C 
ENDBRANCH  24  26
ENDBRANCH  23  24
ENDBRANCH  22  23
ENDBRANCH   1  22
TORSDOF 6
ENDMDL
MODEL 7
REMARK VINA RESULT:      -6.5      1.320      2.322
REMARK  Name = 
REMARK  10 active torsions:
REMARK  status: ('A' for Active; 'I' for Inactive)
REMARK    1  A    between atoms: C_1  and  C_2
REMARK    2  A    between atoms: C_2  and  C_3
REMARK    3  A    between atoms: C_3  and  C_4
REMARK    4  A    between atoms: C_4  and  C_5
REMARK    5  A    between atoms: C_5  and  C_6
REMARK    6  A    between atoms: C_8  and  O_9
REMARK    7  A    between atoms: C_14  and  C_15
REMARK    8  A    between atoms: C_14  and  C_16
REMARK    9  A    between atoms: C_20  and  C_21
REMARK   10  A    between atoms: C_22  and  O_23
REMARK                            x       y       z     vdW  Elec       q    Type
REMARK                         _______ _______ _______ _____ _____    ______ ____
ROOT
ATOM      1  C   UNL     1       2.828   6.952  18.666  0.00  0.00    +0.000 A 
ATOM      2  C   UNL     1       2.588   7.957  17.741  0.00  0.00    +0.000 A 
ATOM      3  C   UNL     1       1.936   9.137  18.125  0.00  0.00    +0.000 A 
ATOM      4  C   UNL     1       1.458   9.351  19.431  0.00  0.00    +0.000 A 
ATOM      5  C   UNL     1       1.699   8.323  20.346  0.00  0.00    +0.000 A 
ATOM      6  C   UNL     1       2.381   7.148  19.975  0.00  0.00    +0.000 A 
ATOM      7  O   UNL     1       1.387   8.398  21.670  0.00  0.00    +0.000 OA
ATOM      8  C   UNL     1       0.266   9.214  22.029  0.00  0.00    +0.000 C 
ATOM      9  C   UNL     1       0.431   9.382  23.557  0.00  0.00    +0.000 C 
ATOM     10  C   UNL     1      -1.028   8.412  21.795  0.00  0.00    +0.000 C 
ATOM     11  C   UNL     1       0.281  10.621  21.357  0.00  0.00    +0.000 C 
ATOM     12  C   UNL     1      -1.054  11.364  21.558  0.00  0.00    +0.000 C 
ATOM     13  C   UNL     1      -1.131  12.670  20.802  0.00  0.00    +0.000 C 
ATOM     14  C   UNL     1      -1.058  12.464  19.300  0.00  0.00    +0.000 C 
ATOM     15  C   UNL     1      -2.422  12.153  18.667  0.00  0.00    +0.000 C 
ATOM     16  C   UNL     1      -0.022  11.420  18.854  0.00  0.00    +0.000 C 
ATOM     17  C   UNL     1       0.862  10.685  19.914  0.00  0.00    +0.000 C 
ENDROOT
BRANCH   3  18
ATOM     18  O   UNL     1       1.843  10.110  17.177  0.00  0.00    +0.000 OA
ATOM     19  H   UNL     1       0.966  10.517  17.212  0.00  0.00    +0.000 HD
ENDBRANCH   3  18
BRANCH  16  20
ATOM     20  O   UNL     1       0.840  12.207  18.001  0.00  0.00    +0.000 OA
ATOM     21  H   UNL     1       0.878  11.731  17.148  0.00  0.00    +0.000 HD
ENDBRANCH  16  20
BRANCH   1  22
ATOM     22  C   UNL     1       3.607   5.727  18.248  0.00  0.00    +0.000 C 
BRANCH  22  23
ATOM     23  C   UNL     1       4.622   5.232  19.277  0.00  0.00    +0.000 C 
BRANCH  23  24
ATOM     24  C   UNL     1       6.076   5.306  18.802  0.00  0.00    +0.000 C 
BRANCH  24  26
ATOM     25  C   UNL     1       7.466   7.096  17.685  0.00  0.00    +0.000 C 
ATOM     26  C   UNL     1       6.187   6.283  17.630  0.00  0.00    +0.000 C 
ENDBRANCH  24  26
ENDBRANCH  23  24
ENDBRANCH  22  23
ENDBRANCH   1  22
TORSDOF 6
ENDMDL
MODEL 8
REMARK VINA RESULT:      -6.4      2.393      7.288
REMARK  Name = 
REMARK  10 active torsions:
REMARK  status: ('A' for Active; 'I' for Inactive)
REMARK    1  A    between atoms: C_1  and  C_2
REMARK    2  A    between atoms: C_2  and  C_3
REMARK    3  A    between atoms: C_3  and  C_4
REMARK    4  A    between atoms: C_4  and  C_5
REMARK    5  A    between atoms: C_5  and  C_6
REMARK    6  A    between atoms: C_8  and  O_9
REMARK    7  A    between atoms: C_14  and  C_15
REMARK    8  A    between atoms: C_14  and  C_16
REMARK    9  A    between atoms: C_20  and  C_21
REMARK   10  A    between atoms: C_22  and  O_23
REMARK                            x       y       z     vdW  Elec       q    Type
REMARK                         _______ _______ _______ _____ _____    ______ ____
ROOT
ATOM      1  C   UNL     1       1.452   7.229  20.520  0.00  0.00    +0.000 A 
ATOM      2  C   UNL     1       2.123   8.003  19.585  0.00  0.00    +0.000 A 
ATOM      3  C   UNL     1       2.841   7.400  18.544  0.00  0.00    +0.000 A 
ATOM      4  C   UNL     1       2.960   6.005  18.411  0.00  0.00    +0.000 A 
ATOM      5  C   UNL     1       2.287   5.240  19.368  0.00  0.00    +0.000 A 
ATOM      6  C   UNL     1       1.537   5.839  20.399  0.00  0.00    +0.000 A 
ATOM      7  O   UNL     1       2.218   3.880  19.339  0.00  0.00    +0.000 OA
ATOM      8  C   UNL     1       3.319   3.185  18.744  0.00  0.00    +0.000 C 
ATOM      9  C   UNL     1       2.760   1.759  18.533  0.00  0.00    +0.000 C 
ATOM     10  C   UNL     1       4.459   3.082  19.775  0.00  0.00    +0.000 C 
ATOM     11  C   UNL     1       3.751   3.771  17.364  0.00  0.00    +0.000 C 
ATOM     12  C   UNL     1       5.085   3.171  16.881  0.00  0.00    +0.000 C 
ATOM     13  C   UNL     1       5.608   3.816  15.620  0.00  0.00    +0.000 C 
ATOM     14  C   UNL     1       5.930   5.286  15.822  0.00  0.00    +0.000 C 
ATOM     15  C   UNL     1       7.338   5.524  16.388  0.00  0.00    +0.000 C 
ATOM     16  C   UNL     1       4.892   6.051  16.659  0.00  0.00    +0.000 C 
ATOM     17  C   UNL     1       3.625   5.315  17.207  0.00  0.00    +0.000 C 
ENDROOT
BRANCH   3  18
ATOM     18  O   UNL     1       3.375   8.240  17.615  0.00  0.00    +0.000 OA
ATOM     19  H   UNL     1       2.886   8.160  16.784  0.00  0.00    +0.000 HD
ENDBRANCH   3  18
BRANCH  16  20
ATOM     20  O   UNL     1       4.465   7.076  15.734  0.00  0.00    +0.000 OA
ATOM     21  H   UNL     1       4.859   7.910  16.059  0.00  0.00    +0.000 HD
ENDBRANCH  16  20
BRANCH   1  22
ATOM     22  C   UNL     1       0.615   7.902  21.582  0.00  0.00    +0.000 C 
BRANCH  22  23
ATOM     23  C   UNL     1       0.829   9.409  21.706  0.00  0.00    +0.000 C 
BRANCH  23  24
ATOM     24  C   UNL     1      -0.418  10.242  21.399  0.00  0.00    +0.000 C 
BRANCH  24  26
ATOM     25  C   UNL     1      -0.715  10.380  18.893  0.00  0.00    +0.000 C 
ATOM     26  C   UNL     1      -0.185  11.072  20.135  0.00  0.00    +0.000 C 
ENDBRANCH  24  26
ENDBRANCH  23  24
ENDBRANCH  22  23
ENDBRANCH   1  22
TORSDOF 6
ENDMDL
MODEL 9
REMARK VINA RESULT:      -6.3      2.608      7.466
REMARK  Name = 
REMARK  10 active torsions:
REMARK  status: ('A' for Active; 'I' for Inactive)
REMARK    1  A    between atoms: C_1  and  C_2
REMARK    2  A    between atoms: C_2  and  C_3
REMARK    3  A    between atoms: C_3  and  C_4
REMARK    4  A    between atoms: C_4  and  C_5
REMARK    5  A    between atoms: C_5  and  C_6
REMARK    6  A    between atoms: C_8  and  O_9
REMARK    7  A    between atoms: C_14  and  C_15
REMARK    8  A    between atoms: C_14  and  C_16
REMARK    9  A    between atoms: C_20  and  C_21
REMARK   10  A    between atoms: C_22  and  O_23
REMARK                            x       y       z     vdW  Elec       q    Type
REMARK                         _______ _______ _______ _____ _____    ______ ____
ROOT
ATOM      1  C   UNL     1       2.269   8.907  18.218  0.00  0.00    +0.000 A 
ATOM      2  C   UNL     1       1.675   8.333  19.333  0.00  0.00    +0.000 A 
ATOM      3  C   UNL     1       2.117   7.093  19.815  0.00  0.00    +0.000 A 
ATOM      4  C   UNL     1       3.134   6.352  19.188  0.00  0.00    +0.000 A 
ATOM      5  C   UNL     1       3.713   6.941  18.060  0.00  0.00    +0.000 A 
ATOM      6  C   UNL     1       3.297   8.201  17.588  0.00  0.00    +0.000 A 
ATOM      7  O   UNL     1       4.770   6.408  17.385  0.00  0.00    +0.000 OA
ATOM      8  C   UNL     1       4.898   4.982  17.397  0.00  0.00    +0.000 C 
ATOM      9  C   UNL     1       6.344   4.756  16.900  0.00  0.00    +0.000 C 
ATOM     10  C   UNL     1       3.951   4.388  16.337  0.00  0.00    +0.000 C 
ATOM     11  C   UNL     1       4.744   4.357  18.819  0.00  0.00    +0.000 C 
ATOM     12  C   UNL     1       4.630   2.822  18.758  0.00  0.00    +0.000 C 
ATOM     13  C   UNL     1       4.338   2.191  20.099  0.00  0.00    +0.000 C 
ATOM     14  C   UNL     1       2.994   2.628  20.654  0.00  0.00    +0.000 C 
ATOM     15  C   UNL     1       1.822   1.783  20.133  0.00  0.00    +0.000 C 
ATOM     16  C   UNL     1       2.689   4.122  20.466  0.00  0.00    +0.000 C 
ATOM     17  C   UNL     1       3.730   5.058  19.769  0.00  0.00    +0.000 C 
ENDROOT
BRANCH   3  18
ATOM     18  O   UNL     1       1.549   6.662  20.975  0.00  0.00    +0.000 OA
ATOM     19  H   UNL     1       0.610   6.480  20.832  0.00  0.00    +0.000 HD
ENDBRANCH   3  18
BRANCH  16  20
ATOM     20  O   UNL     1       2.516   4.562  21.832  0.00  0.00    +0.000 OA
ATOM     21  H   UNL     1       1.555   4.689  21.953  0.00  0.00    +0.000 HD
ENDBRANCH  16  20
BRANCH   1  22
ATOM     22  C   UNL     1       1.834  10.282  17.769  0.00  0.00    +0.000 C 
BRANCH  22  23
ATOM     23  C   UNL     1       1.183  11.136  18.856  0.00  0.00    +0.000 C 
BRANCH  23  24
ATOM     24  C   UNL     1      -0.230  11.611  18.511  0.00  0.00    +0.000 C 
BRANCH  24  26
ATOM     25  C   UNL     1      -1.868  10.057  17.377  0.00  0.00    +0.000 C 
ATOM     26  C   UNL     1      -1.220  10.459  18.689  0.00  0.00    +0.000 C 
ENDBRANCH  24  26
ENDBRANCH  23  24
ENDBRANCH  22  23
ENDBRANCH   1  22
TORSDOF 6
ENDMDL
