MODEL 1
REMARK VINA RESULT:      -8.2      0.000      0.000
REMARK  Name = 
REMARK  11 active torsions:
REMARK  status: ('A' for Active; 'I' for Inactive)
REMARK    1  A    between atoms: C_1  and  O_2
REMARK    2  A    between atoms: O_2  and  C_3
REMARK    3  A    between atoms: C_6  and  C_7
REMARK    4  A    between atoms: C_13  and  C_14
REMARK    5  A    between atoms: C_16  and  O_17
REMARK    6  A    between atoms: O_17  and  C_18
REMARK    7  A    between atoms: C_19  and  O_20
REMARK    8  A    between atoms: O_20  and  C_21
REMARK    9  A    between atoms: C_22  and  O_23
REMARK   10  A    between atoms: O_23  and  C_24
REMARK   11  A    between atoms: C_29  and  N_30
REMARK                            x       y       z     vdW  Elec       q    Type
REMARK                         _______ _______ _______ _____ _____    ______ ____
ROOT
ATOM      1  C   UNL     1       3.800   3.997  19.257  0.00  0.00    +0.000 A 
ATOM      2  C   UNL     1       3.728   2.744  19.736  0.00  0.00    +0.000 A 
ATOM      3  C   UNL     1       2.737   2.533  20.824  0.00  0.00    +0.000 A 
ATOM      4  N   UNL     1       1.960   3.431  21.346  0.00  0.00    +0.000 NA
ATOM      5  C   UNL     1       2.078   4.692  20.831  0.00  0.00    +0.000 A 
ATOM      6  N   UNL     1       1.451   5.793  21.172  0.00  0.00    +0.000 NA
ATOM      7  C   UNL     1       1.965   6.749  20.333  0.00  0.00    +0.000 A 
ATOM      8  N   UNL     1       2.882   6.296  19.472  0.00  0.00    +0.000 NA
ATOM      9  N   UNL     1       2.974   4.986  19.796  0.00  0.00    +0.000 N 
ENDROOT
BRANCH   1  13
ATOM     10  C   UNL     1       6.474   5.074  16.120  0.00  0.00    +0.000 A 
ATOM     11  C   UNL     1       5.386   4.238  15.857  0.00  0.00    +0.000 A 
ATOM     12  C   UNL     1       4.515   3.875  16.886  0.00  0.00    +0.000 A 
ATOM     13  C   UNL     1       4.749   4.323  18.188  0.00  0.00    +0.000 A 
ATOM     14  C   UNL     1       5.870   5.114  18.462  0.00  0.00    +0.000 A 
ATOM     15  C   UNL     1       6.717   5.530  17.431  0.00  0.00    +0.000 A 
BRANCH  15  16
ATOM     16  N   UNL     1       7.895   6.230  17.750  0.00  0.00    +0.000 N 
ATOM     17  H   UNL     1       8.177   6.912  17.055  0.00  0.00    +0.000 HD
ATOM     18  H   UNL     1       8.642   5.591  18.014  0.00  0.00    +0.000 HD
ENDBRANCH  15  16
BRANCH  10  20
ATOM     19  C   UNL     1       7.225   4.840  13.896  0.00  0.00    +0.000 C 
ATOM     20  O   UNL     1       7.353   5.501  15.152  0.00  0.00    +0.000 OA
ENDBRANCH  10  20
ENDBRANCH   1  13
BRANCH   7  21
ATOM     21  C   UNL     1       1.558   8.148  20.407  0.00  0.00    +0.000 A 
ATOM     22  C   UNL     1       1.083   8.667  21.610  0.00  0.00    +0.000 A 
ATOM     23  C   UNL     1       0.725  10.014  21.716  0.00  0.00    +0.000 A 
ATOM     24  C   UNL     1       0.795  10.855  20.582  0.00  0.00    +0.000 A 
ATOM     25  C   UNL     1       1.248  10.331  19.352  0.00  0.00    +0.000 A 
ATOM     26  C   UNL     1       1.644   8.987  19.288  0.00  0.00    +0.000 A 
BRANCH  23  27
ATOM     27  O   UNL     1       0.287  10.573  22.895  0.00  0.00    +0.000 OA
ATOM     28  C   UNL     1      -1.090  10.369  23.204  0.00  0.00    +0.000 C 
ENDBRANCH  23  27
BRANCH  24  29
ATOM     29  O   UNL     1       0.337  12.139  20.781  0.00  0.00    +0.000 OA
ATOM     30  C   UNL     1      -0.937  12.468  20.244  0.00  0.00    +0.000 C 
ENDBRANCH  24  29
BRANCH  25  31
ATOM     31  O   UNL     1       1.253  11.156  18.256  0.00  0.00    +0.000 OA
ATOM     32  C   UNL     1       2.385  11.991  18.048  0.00  0.00    +0.000 C 
ENDBRANCH  25  31
ENDBRANCH   7  21
TORSDOF 7
ENDMDL
MODEL 2
REMARK VINA RESULT:      -8.1      0.454      2.290
REMARK  Name = 
REMARK  11 active torsions:
REMARK  status: ('A' for Active; 'I' for Inactive)
REMARK    1  A    between atoms: C_1  and  O_2
REMARK    2  A    between atoms: O_2  and  C_3
REMARK    3  A    between atoms: C_6  and  C_7
REMARK    4  A    between atoms: C_13  and  C_14
REMARK    5  A    between atoms: C_16  and  O_17
REMARK    6  A    between atoms: O_17  and  C_18
REMARK    7  A    between atoms: C_19  and  O_20
REMARK    8  A    between atoms: O_20  and  C_21
REMARK    9  A    between atoms: C_22  and  O_23
REMARK   10  A    between atoms: O_23  and  C_24
REMARK   11  A    between atoms: C_29  and  N_30
REMARK                            x       y       z     vdW  Elec       q    Type
REMARK                         _______ _______ _______ _____ _____    ______ ____
ROOT
ATOM      1  C   UNL     1       3.839   3.990  19.253  0.00  0.00    +0.000 A 
ATOM      2  C   UNL     1       3.784   2.731  19.721  0.00  0.00    +0.000 A 
ATOM      3  C   UNL     1       2.790   2.496  20.801  0.00  0.00    +0.000 A 
ATOM      4  N   UNL     1       1.996   3.377  21.327  0.00  0.00    +0.000 NA
ATOM      5  C   UNL     1       2.097   4.645  20.822  0.00  0.00    +0.000 A 
ATOM      6  N   UNL     1       1.450   5.732  21.168  0.00  0.00    +0.000 NA
ATOM      7  C   UNL     1       1.954   6.703  20.340  0.00  0.00    +0.000 A 
ATOM      8  N   UNL     1       2.882   6.272  19.481  0.00  0.00    +0.000 NA
ATOM      9  N   UNL     1       2.994   4.961  19.795  0.00  0.00    +0.000 N 
ENDROOT
BRANCH   1  13
ATOM     10  C   UNL     1       6.509   5.130  16.135  0.00  0.00    +0.000 A 
ATOM     11  C   UNL     1       5.475   4.225  15.877  0.00  0.00    +0.000 A 
ATOM     12  C   UNL     1       4.606   3.842  16.900  0.00  0.00    +0.000 A 
ATOM     13  C   UNL     1       4.788   4.339  18.192  0.00  0.00    +0.000 A 
ATOM     14  C   UNL     1       5.856   5.201  18.464  0.00  0.00    +0.000 A 
ATOM     15  C   UNL     1       6.699   5.636  17.436  0.00  0.00    +0.000 A 
BRANCH  15  16
ATOM     16  N   UNL     1       7.828   6.412  17.756  0.00  0.00    +0.000 N 
ATOM     17  H   UNL     1       7.672   7.413  17.716  0.00  0.00    +0.000 HD
ATOM     18  H   UNL     1       8.643   6.110  17.226  0.00  0.00    +0.000 HD
ENDBRANCH  15  16
BRANCH  10  20
ATOM     19  C   UNL     1       7.243   4.948  13.901  0.00  0.00    +0.000 C 
ATOM     20  O   UNL     1       7.381   5.579  15.171  0.00  0.00    +0.000 OA
ENDBRANCH  10  20
ENDBRANCH   1  13
BRANCH   7  21
ATOM     21  C   UNL     1       1.524   8.095  20.423  0.00  0.00    +0.000 A 
ATOM     22  C   UNL     1       1.584   8.905  19.290  0.00  0.00    +0.000 A 
ATOM     23  C   UNL     1       1.140  10.229  19.333  0.00  0.00    +0.000 A 
ATOM     24  C   UNL     1       0.669  10.777  20.549  0.00  0.00    +0.000 A 
ATOM     25  C   UNL     1       0.631   9.973  21.708  0.00  0.00    +0.000 A 
ATOM     26  C   UNL     1       1.040   8.633  21.622  0.00  0.00    +0.000 A 
BRANCH  23  27
ATOM     27  O   UNL     1       1.148  11.050  18.228  0.00  0.00    +0.000 OA
ATOM     28  C   UNL     1       2.419  11.581  17.860  0.00  0.00    +0.000 C 
ENDBRANCH  23  27
BRANCH  24  29
ATOM     29  O   UNL     1       0.340  12.114  20.495  0.00  0.00    +0.000 OA
ATOM     30  C   UNL     1       1.314  13.045  20.946  0.00  0.00    +0.000 C 
ENDBRANCH  24  29
BRANCH  25  31
ATOM     31  O   UNL     1       0.222  10.546  22.885  0.00  0.00    +0.000 OA
ATOM     32  C   UNL     1      -1.173  10.728  23.095  0.00  0.00    +0.000 C 
ENDBRANCH  25  31
ENDBRANCH   7  21
TORSDOF 7
ENDMDL
MODEL 3
REMARK VINA RESULT:      -7.7      1.023      2.547
REMARK  Name = 
REMARK  11 active torsions:
REMARK  status: ('A' for Active; 'I' for Inactive)
REMARK    1  A    between atoms: C_1  and  O_2
REMARK    2  A    between atoms: O_2  and  C_3
REMARK    3  A    between atoms: C_6  and  C_7
REMARK    4  A    between atoms: C_13  and  C_14
REMARK    5  A    between atoms: C_16  and  O_17
REMARK    6  A    between atoms: O_17  and  C_18
REMARK    7  A    between atoms: C_19  and  O_20
REMARK    8  A    between atoms: O_20  and  C_21
REMARK    9  A    between atoms: C_22  and  O_23
REMARK   10  A    between atoms: O_23  and  C_24
REMARK   11  A    between atoms: C_29  and  N_30
REMARK                            x       y       z     vdW  Elec       q    Type
REMARK                         _______ _______ _______ _____ _____    ______ ____
ROOT
ATOM      1  C   UNL     1       3.794   4.420  19.263  0.00  0.00    +0.000 A 
ATOM      2  C   UNL     1       3.722   3.141  19.670  0.00  0.00    +0.000 A 
ATOM      3  C   UNL     1       2.670   2.852  20.680  0.00  0.00    +0.000 A 
ATOM      4  N   UNL     1       1.841   3.705  21.199  0.00  0.00    +0.000 NA
ATOM      5  C   UNL     1       1.961   4.994  20.758  0.00  0.00    +0.000 A 
ATOM      6  N   UNL     1       1.287   6.062  21.116  0.00  0.00    +0.000 NA
ATOM      7  C   UNL     1       1.830   7.072  20.362  0.00  0.00    +0.000 A 
ATOM      8  N   UNL     1       2.809   6.684  19.539  0.00  0.00    +0.000 NA
ATOM      9  N   UNL     1       2.912   5.361  19.799  0.00  0.00    +0.000 N 
ENDROOT
BRANCH   1  13
ATOM     10  C   UNL     1       6.675   5.463  16.303  0.00  0.00    +0.000 A 
ATOM     11  C   UNL     1       7.045   4.668  17.392  0.00  0.00    +0.000 A 
ATOM     12  C   UNL     1       6.104   4.334  18.368  0.00  0.00    +0.000 A 
ATOM     13  C   UNL     1       4.799   4.821  18.275  0.00  0.00    +0.000 A 
ATOM     14  C   UNL     1       4.443   5.664  17.215  0.00  0.00    +0.000 A 
ATOM     15  C   UNL     1       5.360   5.959  16.202  0.00  0.00    +0.000 A 
BRANCH  15  16
ATOM     16  N   UNL     1       5.010   6.894  15.211  0.00  0.00    +0.000 N 
ATOM     17  H   UNL     1       4.829   6.490  14.300  0.00  0.00    +0.000 HD
ATOM     18  H   UNL     1       5.673   7.666  15.184  0.00  0.00    +0.000 HD
ENDBRANCH  15  16
BRANCH  10  20
ATOM     19  C   UNL     1       7.447   4.979  14.128  0.00  0.00    +0.000 C 
ATOM     20  O   UNL     1       7.536   5.804  15.286  0.00  0.00    +0.000 OA
ENDBRANCH  10  20
ENDBRANCH   1  13
BRANCH   7  21
ATOM     21  C   UNL     1       1.386   8.456  20.483  0.00  0.00    +0.000 A 
ATOM     22  C   UNL     1       1.485   9.311  19.386  0.00  0.00    +0.000 A 
ATOM     23  C   UNL     1       1.029  10.630  19.465  0.00  0.00    +0.000 A 
ATOM     24  C   UNL     1       0.506  11.126  20.681  0.00  0.00    +0.000 A 
ATOM     25  C   UNL     1       0.429  10.276  21.805  0.00  0.00    +0.000 A 
ATOM     26  C   UNL     1       0.851   8.943  21.682  0.00  0.00    +0.000 A 
BRANCH  23  27
ATOM     27  O   UNL     1       1.074  11.495  18.394  0.00  0.00    +0.000 OA
ATOM     28  C   UNL     1       2.378  11.861  17.948  0.00  0.00    +0.000 C 
ENDBRANCH  23  27
BRANCH  24  29
ATOM     29  O   UNL     1       0.168  12.461  20.667  0.00  0.00    +0.000 OA
ATOM     30  C   UNL     1       1.138  13.385  21.142  0.00  0.00    +0.000 C 
ENDBRANCH  24  29
BRANCH  25  31
ATOM     31  O   UNL     1      -0.032  10.798  22.986  0.00  0.00    +0.000 OA
ATOM     32  C   UNL     1      -1.434  10.976  23.143  0.00  0.00    +0.000 C 
ENDBRANCH  25  31
ENDBRANCH   7  21
TORSDOF 7
ENDMDL
MODEL 4
REMARK VINA RESULT:      -7.7      0.932      1.089
REMARK  Name = 
REMARK  11 active torsions:
REMARK  status: ('A' for Active; 'I' for Inactive)
REMARK    1  A    between atoms: C_1  and  O_2
REMARK    2  A    between atoms: O_2  and  C_3
REMARK    3  A    between atoms: C_6  and  C_7
REMARK    4  A    between atoms: C_13  and  C_14
REMARK    5  A    between atoms: C_16  and  O_17
REMARK    6  A    between atoms: O_17  and  C_18
REMARK    7  A    between atoms: C_19  and  O_20
REMARK    8  A    between atoms: O_20  and  C_21
REMARK    9  A    between atoms: C_22  and  O_23
REMARK   10  A    between atoms: O_23  and  C_24
REMARK   11  A    between atoms: C_29  and  N_30
REMARK                            x       y       z     vdW  Elec       q    Type
REMARK                         _______ _______ _______ _____ _____    ______ ____
ROOT
ATOM      1  C   UNL     1       3.888   4.354  19.026  0.00  0.00    +0.000 A 
ATOM      2  C   UNL     1       3.813   3.076  19.435  0.00  0.00    +0.000 A 
ATOM      3  C   UNL     1       2.777   2.796  20.464  0.00  0.00    +0.000 A 
ATOM      4  N   UNL     1       1.964   3.655  20.996  0.00  0.00    +0.000 NA
ATOM      5  C   UNL     1       2.087   4.943  20.552  0.00  0.00    +0.000 A 
ATOM      6  N   UNL     1       1.427   6.017  20.921  0.00  0.00    +0.000 NA
ATOM      7  C   UNL     1       1.965   7.022  20.157  0.00  0.00    +0.000 A 
ATOM      8  N   UNL     1       2.926   6.626  19.317  0.00  0.00    +0.000 NA
ATOM      9  N   UNL     1       3.023   5.302  19.576  0.00  0.00    +0.000 N 
ENDROOT
BRANCH   1  13
ATOM     10  C   UNL     1       6.720   5.377  16.011  0.00  0.00    +0.000 A 
ATOM     11  C   UNL     1       7.091   4.536  17.065  0.00  0.00    +0.000 A 
ATOM     12  C   UNL     1       6.167   4.209  18.060  0.00  0.00    +0.000 A 
ATOM     13  C   UNL     1       4.879   4.747  18.019  0.00  0.00    +0.000 A 
ATOM     14  C   UNL     1       4.524   5.632  16.995  0.00  0.00    +0.000 A 
ATOM     15  C   UNL     1       5.422   5.923  15.964  0.00  0.00    +0.000 A 
BRANCH  15  16
ATOM     16  N   UNL     1       5.079   6.900  15.011  0.00  0.00    +0.000 N 
ATOM     17  H   UNL     1       5.323   7.847  15.278  0.00  0.00    +0.000 HD
ATOM     18  H   UNL     1       4.110   6.801  14.716  0.00  0.00    +0.000 HD
ENDBRANCH  15  16
BRANCH  10  20
ATOM     19  C   UNL     1       7.453   4.889  13.823  0.00  0.00    +0.000 C 
ATOM     20  O   UNL     1       7.564   5.714  14.979  0.00  0.00    +0.000 OA
ENDBRANCH  10  20
ENDBRANCH   1  13
BRANCH   7  21
ATOM     21  C   UNL     1       1.534   8.409  20.284  0.00  0.00    +0.000 A 
ATOM     22  C   UNL     1       1.030   8.868  21.500  0.00  0.00    +0.000 A 
ATOM     23  C   UNL     1       0.649  10.203  21.658  0.00  0.00    +0.000 A 
ATOM     24  C   UNL     1       0.724  11.094  20.563  0.00  0.00    +0.000 A 
ATOM     25  C   UNL     1       1.205  10.631  19.320  0.00  0.00    +0.000 A 
ATOM     26  C   UNL     1       1.625   9.297  19.204  0.00  0.00    +0.000 A 
BRANCH  23  27
ATOM     27  O   UNL     1       0.182  10.704  22.853  0.00  0.00    +0.000 OA
ATOM     28  C   UNL     1      -1.091  10.220  23.272  0.00  0.00    +0.000 C 
ENDBRANCH  23  27
BRANCH  24  29
ATOM     29  O   UNL     1       0.241  12.361  20.810  0.00  0.00    +0.000 OA
ATOM     30  C   UNL     1      -1.092  12.642  20.403  0.00  0.00    +0.000 C 
ENDBRANCH  24  29
BRANCH  25  31
ATOM     31  O   UNL     1       1.215  11.502  18.260  0.00  0.00    +0.000 OA
ATOM     32  C   UNL     1       2.401  12.247  18.012  0.00  0.00    +0.000 C 
ENDBRANCH  25  31
ENDBRANCH   7  21
TORSDOF 7
ENDMDL
MODEL 5
REMARK VINA RESULT:      -7.5      3.912      8.350
REMARK  Name = 
REMARK  11 active torsions:
REMARK  status: ('A' for Active; 'I' for Inactive)
REMARK    1  A    between atoms: C_1  and  O_2
REMARK    2  A    between atoms: O_2  and  C_3
REMARK    3  A    between atoms: C_6  and  C_7
REMARK    4  A    between atoms: C_13  and  C_14
REMARK    5  A    between atoms: C_16  and  O_17
REMARK    6  A    between atoms: O_17  and  C_18
REMARK    7  A    between atoms: C_19  and  O_20
REMARK    8  A    between atoms: O_20  and  C_21
REMARK    9  A    between atoms: C_22  and  O_23
REMARK   10  A    between atoms: O_23  and  C_24
REMARK   11  A    between atoms: C_29  and  N_30
REMARK                            x       y       z     vdW  Elec       q    Type
REMARK                         _______ _______ _______ _____ _____    ______ ____
ROOT
ATOM      1  C   UNL     1      -1.051  10.899  20.036  0.00  0.00    +0.000 A 
ATOM      2  C   UNL     1      -1.346  11.832  20.957  0.00  0.00    +0.000 A 
ATOM      3  C   UNL     1      -0.558  11.756  22.216  0.00  0.00    +0.000 A 
ATOM      4  N   UNL     1       0.359  10.885  22.502  0.00  0.00    +0.000 NA
ATOM      5  C   UNL     1       0.616   9.952  21.535  0.00  0.00    +0.000 A 
ATOM      6  N   UNL     1       1.461   8.948  21.551  0.00  0.00    +0.000 NA
ATOM      7  C   UNL     1       1.293   8.347  20.329  0.00  0.00    +0.000 A 
ATOM      8  N   UNL     1       0.388   8.935  19.542  0.00  0.00    +0.000 NA
ATOM      9  N   UNL     1      -0.064   9.951  20.312  0.00  0.00    +0.000 N 
ENDROOT
BRANCH   1  13
ATOM     10  C   UNL     1      -3.227  10.705  16.378  0.00  0.00    +0.000 A 
ATOM     11  C   UNL     1      -2.024  10.005  16.516  0.00  0.00    +0.000 A 
ATOM     12  C   UNL     1      -1.304  10.077  17.711  0.00  0.00    +0.000 A 
ATOM     13  C   UNL     1      -1.770  10.874  18.759  0.00  0.00    +0.000 A 
ATOM     14  C   UNL     1      -2.944  11.618  18.601  0.00  0.00    +0.000 A 
ATOM     15  C   UNL     1      -3.703  11.510  17.431  0.00  0.00    +0.000 A 
BRANCH  15  16
ATOM     16  N   UNL     1      -4.816  12.352  17.256  0.00  0.00    +0.000 N 
ATOM     17  H   UNL     1      -4.981  12.993  18.024  0.00  0.00    +0.000 HD
ATOM     18  H   UNL     1      -5.643  11.818  16.993  0.00  0.00    +0.000 HD
ENDBRANCH  15  16
BRANCH  10  20
ATOM     19  C   UNL     1      -3.373  10.071  14.110  0.00  0.00    +0.000 C 
ATOM     20  O   UNL     1      -4.007  10.654  15.246  0.00  0.00    +0.000 OA
ENDBRANCH  10  20
ENDBRANCH   1  13
BRANCH   7  21
ATOM     21  C   UNL     1       2.029   7.146  19.947  0.00  0.00    +0.000 A 
ATOM     22  C   UNL     1       1.956   6.007  20.747  0.00  0.00    +0.000 A 
ATOM     23  C   UNL     1       2.619   4.832  20.381  0.00  0.00    +0.000 A 
ATOM     24  C   UNL     1       3.415   4.805  19.212  0.00  0.00    +0.000 A 
ATOM     25  C   UNL     1       3.517   5.962  18.411  0.00  0.00    +0.000 A 
ATOM     26  C   UNL     1       2.803   7.112  18.780  0.00  0.00    +0.000 A 
BRANCH  23  27
ATOM     27  O   UNL     1       2.542   3.676  21.124  0.00  0.00    +0.000 OA
ATOM     28  C   UNL     1       1.290   2.996  21.085  0.00  0.00    +0.000 C 
ENDBRANCH  23  27
BRANCH  24  29
ATOM     29  O   UNL     1       4.089   3.623  18.996  0.00  0.00    +0.000 OA
ATOM     30  C   UNL     1       3.557   2.737  18.021  0.00  0.00    +0.000 C 
ENDBRANCH  24  29
BRANCH  25  31
ATOM     31  O   UNL     1       4.339   5.924  17.314  0.00  0.00    +0.000 OA
ATOM     32  C   UNL     1       5.709   6.268  17.487  0.00  0.00    +0.000 C 
ENDBRANCH  25  31
ENDBRANCH   7  21
TORSDOF 7
ENDMDL
MODEL 6
REMARK VINA RESULT:      -7.5      3.899      8.586
REMARK  Name = 
REMARK  11 active torsions:
REMARK  status: ('A' for Active; 'I' for Inactive)
REMARK    1  A    between atoms: C_1  and  O_2
REMARK    2  A    between atoms: O_2  and  C_3
REMARK    3  A    between atoms: C_6  and  C_7
REMARK    4  A    between atoms: C_13  and  C_14
REMARK    5  A    between atoms: C_16  and  O_17
REMARK    6  A    between atoms: O_17  and  C_18
REMARK    7  A    between atoms: C_19  and  O_20
REMARK    8  A    between atoms: O_20  and  C_21
REMARK    9  A    between atoms: C_22  and  O_23
REMARK   10  A    between atoms: O_23  and  C_24
REMARK   11  A    between atoms: C_29  and  N_30
REMARK                            x       y       z     vdW  Elec       q    Type
REMARK                         _______ _______ _______ _____ _____    ______ ____
ROOT
ATOM      1  C   UNL     1      -1.001  10.831  20.070  0.00  0.00    +0.000 A 
ATOM      2  C   UNL     1      -1.278  11.774  20.987  0.00  0.00    +0.000 A 
ATOM      3  C   UNL     1      -0.503  11.680  22.252  0.00  0.00    +0.000 A 
ATOM      4  N   UNL     1       0.388  10.785  22.548  0.00  0.00    +0.000 NA
ATOM      5  C   UNL     1       0.626   9.843  21.586  0.00  0.00    +0.000 A 
ATOM      6  N   UNL     1       1.443   8.815  21.612  0.00  0.00    +0.000 NA
ATOM      7  C   UNL     1       1.268   8.215  20.391  0.00  0.00    +0.000 A 
ATOM      8  N   UNL     1       0.386   8.826  19.594  0.00  0.00    +0.000 NA
ATOM      9  N   UNL     1      -0.043   9.856  20.357  0.00  0.00    +0.000 N 
ENDROOT
BRANCH   1  13
ATOM     10  C   UNL     1      -3.149  10.684  16.394  0.00  0.00    +0.000 A 
ATOM     11  C   UNL     1      -1.955   9.972  16.537  0.00  0.00    +0.000 A 
ATOM     12  C   UNL     1      -1.244  10.029  17.737  0.00  0.00    +0.000 A 
ATOM     13  C   UNL     1      -1.710  10.821  18.788  0.00  0.00    +0.000 A 
ATOM     14  C   UNL     1      -2.877  11.578  18.626  0.00  0.00    +0.000 A 
ATOM     15  C   UNL     1      -3.627  11.486  17.450  0.00  0.00    +0.000 A 
BRANCH  15  16
ATOM     16  N   UNL     1      -4.731  12.339  17.272  0.00  0.00    +0.000 N 
ATOM     17  H   UNL     1      -5.407  12.310  18.027  0.00  0.00    +0.000 HD
ATOM     18  H   UNL     1      -5.150  12.212  16.352  0.00  0.00    +0.000 HD
ENDBRANCH  15  16
BRANCH  10  20
ATOM     19  C   UNL     1      -3.287  10.061  14.123  0.00  0.00    +0.000 C 
ATOM     20  O   UNL     1      -3.921  10.649  15.256  0.00  0.00    +0.000 OA
ENDBRANCH  10  20
ENDBRANCH   1  13
BRANCH   7  21
ATOM     21  C   UNL     1       1.973   6.993  20.017  0.00  0.00    +0.000 A 
ATOM     22  C   UNL     1       2.697   6.950  18.827  0.00  0.00    +0.000 A 
ATOM     23  C   UNL     1       3.414   5.805  18.468  0.00  0.00    +0.000 A 
ATOM     24  C   UNL     1       3.369   4.656  19.290  0.00  0.00    +0.000 A 
ATOM     25  C   UNL     1       2.615   4.681  20.483  0.00  0.00    +0.000 A 
ATOM     26  C   UNL     1       1.944   5.861  20.841  0.00  0.00    +0.000 A 
BRANCH  23  27
ATOM     27  O   UNL     1       4.171   5.734  17.320  0.00  0.00    +0.000 OA
ATOM     28  C   UNL     1       4.816   6.944  16.928  0.00  0.00    +0.000 C 
ENDBRANCH  23  27
BRANCH  24  29
ATOM     29  O   UNL     1       4.041   3.560  18.795  0.00  0.00    +0.000 OA
ATOM     30  C   UNL     1       3.285   2.609  18.058  0.00  0.00    +0.000 C 
ENDBRANCH  24  29
BRANCH  25  31
ATOM     31  O   UNL     1       2.544   3.535  21.234  0.00  0.00    +0.000 OA
ATOM     32  C   UNL     1       1.298   2.853  21.305  0.00  0.00    +0.000 C 
ENDBRANCH  25  31
ENDBRANCH   7  21
TORSDOF 7
ENDMDL
MODEL 7
REMARK VINA RESULT:      -6.9      1.023      2.620
REMARK  Name = 
REMARK  11 active torsions:
REMARK  status: ('A' for Active; 'I' for Inactive)
REMARK    1  A    between atoms: C_1  and  O_2
REMARK    2  A    between atoms: O_2  and  C_3
REMARK    3  A    between atoms: C_6  and  C_7
REMARK    4  A    between atoms: C_13  and  C_14
REMARK    5  A    between atoms: C_16  and  O_17
REMARK    6  A    between atoms: O_17  and  C_18
REMARK    7  A    between atoms: C_19  and  O_20
REMARK    8  A    between atoms: O_20  and  C_21
REMARK    9  A    between atoms: C_22  and  O_23
REMARK   10  A    between atoms: O_23  and  C_24
REMARK   11  A    between atoms: C_29  and  N_30
REMARK                            x       y       z     vdW  Elec       q    Type
REMARK                         _______ _______ _______ _____ _____    ______ ____
ROOT
ATOM      1  C   UNL     1       3.890   4.112  18.871  0.00  0.00    +0.000 A 
ATOM      2  C   UNL     1       3.824   2.825  19.253  0.00  0.00    +0.000 A 
ATOM      3  C   UNL     1       2.814   2.522  20.301  0.00  0.00    +0.000 A 
ATOM      4  N   UNL     1       2.016   3.370  20.873  0.00  0.00    +0.000 NA
ATOM      5  C   UNL     1       2.129   4.668  20.457  0.00  0.00    +0.000 A 
ATOM      6  N   UNL     1       1.482   5.733  20.867  0.00  0.00    +0.000 NA
ATOM      7  C   UNL     1       2.001   6.755  20.114  0.00  0.00    +0.000 A 
ATOM      8  N   UNL     1       2.940   6.378  19.240  0.00  0.00    +0.000 NA
ATOM      9  N   UNL     1       3.042   5.048  19.466  0.00  0.00    +0.000 N 
ENDROOT
BRANCH   1  13
ATOM     10  C   UNL     1       6.805   5.233  15.973  0.00  0.00    +0.000 A 
ATOM     11  C   UNL     1       6.595   6.031  17.101  0.00  0.00    +0.000 A 
ATOM     12  C   UNL     1       5.632   5.671  18.046  0.00  0.00    +0.000 A 
ATOM     13  C   UNL     1       4.856   4.528  17.849  0.00  0.00    +0.000 A 
ATOM     14  C   UNL     1       5.027   3.758  16.693  0.00  0.00    +0.000 A 
ATOM     15  C   UNL     1       6.025   4.077  15.768  0.00  0.00    +0.000 A 
BRANCH  15  16
ATOM     16  N   UNL     1       6.101   3.354  14.563  0.00  0.00    +0.000 N 
ATOM     17  H   UNL     1       5.228   2.922  14.280  0.00  0.00    +0.000 HD
ATOM     18  H   UNL     1       6.886   2.706  14.572  0.00  0.00    +0.000 HD
ENDBRANCH  15  16
BRANCH  10  20
ATOM     19  C   UNL     1       7.346   5.259  13.677  0.00  0.00    +0.000 C 
ATOM     20  O   UNL     1       7.758   5.504  15.019  0.00  0.00    +0.000 OA
ENDBRANCH  10  20
ENDBRANCH   1  13
BRANCH   7  21
ATOM     21  C   UNL     1       1.576   8.140  20.284  0.00  0.00    +0.000 A 
ATOM     22  C   UNL     1       1.622   9.015  19.200  0.00  0.00    +0.000 A 
ATOM     23  C   UNL     1       1.181  10.335  19.327  0.00  0.00    +0.000 A 
ATOM     24  C   UNL     1       0.729  10.812  20.580  0.00  0.00    +0.000 A 
ATOM     25  C   UNL     1       0.707   9.941  21.690  0.00  0.00    +0.000 A 
ATOM     26  C   UNL     1       1.111   8.608  21.520  0.00  0.00    +0.000 A 
BRANCH  23  27
ATOM     27  O   UNL     1       1.175  11.220  18.273  0.00  0.00    +0.000 OA
ATOM     28  C   UNL     1       2.453  11.696  17.856  0.00  0.00    +0.000 C 
ENDBRANCH  23  27
BRANCH  24  29
ATOM     29  O   UNL     1       0.402  12.150  20.609  0.00  0.00    +0.000 OA
ATOM     30  C   UNL     1       1.416  13.061  21.011  0.00  0.00    +0.000 C 
ENDBRANCH  24  29
BRANCH  25  31
ATOM     31  O   UNL     1       0.316  10.444  22.905  0.00  0.00    +0.000 OA
ATOM     32  C   UNL     1      -1.077  10.533  23.180  0.00  0.00    +0.000 C 
ENDBRANCH  25  31
ENDBRANCH   7  21
TORSDOF 7
ENDMDL
MODEL 8
REMARK VINA RESULT:      -6.8      3.315      7.971
REMARK  Name = 
REMARK  11 active torsions:
REMARK  status: ('A' for Active; 'I' for Inactive)
REMARK    1  A    between atoms: C_1  and  O_2
REMARK    2  A    between atoms: O_2  and  C_3
REMARK    3  A    between atoms: C_6  and  C_7
REMARK    4  A    between atoms: C_13  and  C_14
REMARK    5  A    between atoms: C_16  and  O_17
REMARK    6  A    between atoms: O_17  and  C_18
REMARK    7  A    between atoms: C_19  and  O_20
REMARK    8  A    between atoms: O_20  and  C_21
REMARK    9  A    between atoms: C_22  and  O_23
REMARK   10  A    between atoms: O_23  and  C_24
REMARK   11  A    between atoms: C_29  and  N_30
REMARK                            x       y       z     vdW  Elec       q    Type
REMARK                         _______ _______ _______ _____ _____    ______ ____
ROOT
ATOM      1  C   UNL     1       0.382  11.530  21.248  0.00  0.00    +0.000 A 
ATOM      2  C   UNL     1      -0.497  11.961  22.169  0.00  0.00    +0.000 A 
ATOM      3  C   UNL     1      -1.091  10.902  23.027  0.00  0.00    +0.000 A 
ATOM      4  N   UNL     1      -0.851   9.630  22.963  0.00  0.00    +0.000 NA
ATOM      5  C   UNL     1       0.043   9.241  22.003  0.00  0.00    +0.000 A 
ATOM      6  N   UNL     1       0.457   8.035  21.691  0.00  0.00    +0.000 NA
ATOM      7  C   UNL     1       1.338   8.238  20.659  0.00  0.00    +0.000 A 
ATOM      8  N   UNL     1       1.503   9.519  20.315  0.00  0.00    +0.000 NA
ATOM      9  N   UNL     1       0.665  10.165  21.157  0.00  0.00    +0.000 N 
ENDROOT
BRANCH   1  13
ATOM     10  C   UNL     1       2.172  14.421  18.682  0.00  0.00    +0.000 A 
ATOM     11  C   UNL     1       1.006  13.760  18.287  0.00  0.00    +0.000 A 
ATOM     12  C   UNL     1       0.425  12.804  19.122  0.00  0.00    +0.000 A 
ATOM     13  C   UNL     1       1.025  12.485  20.341  0.00  0.00    +0.000 A 
ATOM     14  C   UNL     1       2.223  13.106  20.713  0.00  0.00    +0.000 A 
ATOM     15  C   UNL     1       2.784  14.105  19.912  0.00  0.00    +0.000 A 
BRANCH  15  16
ATOM     16  N   UNL     1       4.043  14.632  20.253  0.00  0.00    +0.000 N 
ATOM     17  H   UNL     1       4.417  14.285  21.129  0.00  0.00    +0.000 HD
ATOM     18  H   UNL     1       4.046  15.649  20.189  0.00  0.00    +0.000 HD
ENDBRANCH  15  16
BRANCH  10  20
ATOM     19  C   UNL     1       2.238  16.705  18.094  0.00  0.00    +0.000 C 
ATOM     20  O   UNL     1       2.781  15.398  17.930  0.00  0.00    +0.000 OA
ENDBRANCH  10  20
ENDBRANCH   1  13
BRANCH   7  21
ATOM     21  C   UNL     1       2.008   7.133  19.981  0.00  0.00    +0.000 A 
ATOM     22  C   UNL     1       1.947   5.851  20.524  0.00  0.00    +0.000 A 
ATOM     23  C   UNL     1       2.546   4.769  19.872  0.00  0.00    +0.000 A 
ATOM     24  C   UNL     1       3.268   4.978  18.674  0.00  0.00    +0.000 A 
ATOM     25  C   UNL     1       3.359   6.278  18.133  0.00  0.00    +0.000 A 
ATOM     26  C   UNL     1       2.708   7.336  18.785  0.00  0.00    +0.000 A 
BRANCH  23  27
ATOM     27  O   UNL     1       2.477   3.482  20.356  0.00  0.00    +0.000 OA
ATOM     28  C   UNL     1       2.053   3.351  21.711  0.00  0.00    +0.000 C 
ENDBRANCH  23  27
BRANCH  24  29
ATOM     29  O   UNL     1       3.888   3.857  18.167  0.00  0.00    +0.000 OA
ATOM     30  C   UNL     1       3.191   3.118  17.174  0.00  0.00    +0.000 C 
ENDBRANCH  24  29
BRANCH  25  31
ATOM     31  O   UNL     1       4.111   6.460  17.000  0.00  0.00    +0.000 OA
ATOM     32  C   UNL     1       5.489   6.782  17.151  0.00  0.00    +0.000 C 
ENDBRANCH  25  31
ENDBRANCH   7  21
TORSDOF 7
ENDMDL
MODEL 9
REMARK VINA RESULT:      -6.8      1.729      2.086
REMARK  Name = 
REMARK  11 active torsions:
REMARK  status: ('A' for Active; 'I' for Inactive)
REMARK    1  A    between atoms: C_1  and  O_2
REMARK    2  A    between atoms: O_2  and  C_3
REMARK    3  A    between atoms: C_6  and  C_7
REMARK    4  A    between atoms: C_13  and  C_14
REMARK    5  A    between atoms: C_16  and  O_17
REMARK    6  A    between atoms: O_17  and  C_18
REMARK    7  A    between atoms: C_19  and  O_20
REMARK    8  A    between atoms: O_20  and  C_21
REMARK    9  A    between atoms: C_22  and  O_23
REMARK   10  A    between atoms: O_23  and  C_24
REMARK   11  A    between atoms: C_29  and  N_30
REMARK                            x       y       z     vdW  Elec       q    Type
REMARK                         _______ _______ _______ _____ _____    ______ ____
ROOT
ATOM      1  C   UNL     1       3.632   5.178  18.982  0.00  0.00    +0.000 A 
ATOM      2  C   UNL     1       3.606   4.098  19.782  0.00  0.00    +0.000 A 
ATOM      3  C   UNL     1       2.647   4.169  20.916  0.00  0.00    +0.000 A 
ATOM      4  N   UNL     1       1.859   5.159  21.202  0.00  0.00    +0.000 NA
ATOM      5  C   UNL     1       1.931   6.237  20.363  0.00  0.00    +0.000 A 
ATOM      6  N   UNL     1       1.282   7.377  20.415  0.00  0.00    +0.000 NA
ATOM      7  C   UNL     1       1.750   8.081  19.335  0.00  0.00    +0.000 A 
ATOM      8  N   UNL     1       2.657   7.431  18.600  0.00  0.00    +0.000 NA
ATOM      9  N   UNL     1       2.793   6.258  19.260  0.00  0.00    +0.000 N 
ENDROOT
BRANCH   1  13
ATOM     10  C   UNL     1       6.198   5.419  15.590  0.00  0.00    +0.000 A 
ATOM     11  C   UNL     1       5.142   4.504  15.606  0.00  0.00    +0.000 A 
ATOM     12  C   UNL     1       4.307   4.416  16.722  0.00  0.00    +0.000 A 
ATOM     13  C   UNL     1       4.546   5.222  17.837  0.00  0.00    +0.000 A 
ATOM     14  C   UNL     1       5.636   6.098  17.843  0.00  0.00    +0.000 A 
ATOM     15  C   UNL     1       6.445   6.236  16.712  0.00  0.00    +0.000 A 
BRANCH  15  16
ATOM     16  N   UNL     1       7.598   7.040  16.785  0.00  0.00    +0.000 N 
ATOM     17  H   UNL     1       7.412   8.021  16.960  0.00  0.00    +0.000 HD
ATOM     18  H   UNL     1       8.207   6.883  15.985  0.00  0.00    +0.000 HD
ENDBRANCH  15  16
BRANCH  10  20
ATOM     19  C   UNL     1       6.929   4.584  13.509  0.00  0.00    +0.000 C 
ATOM     20  O   UNL     1       7.040   5.587  14.515  0.00  0.00    +0.000 OA
ENDBRANCH  10  20
ENDBRANCH   1  13
BRANCH   7  21
ATOM     21  C   UNL     1       1.307   9.440  19.042  0.00  0.00    +0.000 A 
ATOM     22  C   UNL     1      -0.033   9.782  19.217  0.00  0.00    +0.000 A 
ATOM     23  C   UNL     1      -0.474  11.088  18.982  0.00  0.00    +0.000 A 
ATOM     24  C   UNL     1       0.433  12.066  18.513  0.00  0.00    +0.000 A 
ATOM     25  C   UNL     1       1.785  11.721  18.305  0.00  0.00    +0.000 A 
ATOM     26  C   UNL     1       2.208  10.415  18.595  0.00  0.00    +0.000 A 
BRANCH  23  27
ATOM     27  O   UNL     1      -1.780  11.475  19.179  0.00  0.00    +0.000 OA
ATOM     28  C   UNL     1      -2.715  11.021  18.203  0.00  0.00    +0.000 C 
ENDBRANCH  23  27
BRANCH  24  29
ATOM     29  O   UNL     1      -0.129  13.293  18.234  0.00  0.00    +0.000 OA
ATOM     30  C   UNL     1      -0.124  14.264  19.271  0.00  0.00    +0.000 C 
ENDBRANCH  24  29
BRANCH  25  31
ATOM     31  O   UNL     1       2.630  12.675  17.798  0.00  0.00    +0.000 OA
ATOM     32  C   UNL     1       3.266  13.563  18.708  0.00  0.00    +0.000 C 
ENDBRANCH  25  31
ENDBRANCH   7  21
TORSDOF 7
ENDMDL
