MODEL 1
REMARK VINA RESULT:      -7.9      0.000      0.000
REMARK  Name = 
REMARK  5 active torsions:
REMARK  status: ('A' for Active; 'I' for Inactive)
REMARK    1  A    between atoms: C_1  and  C_2
REMARK    2  A    between atoms: C_2  and  C_3
REMARK    3  A    between atoms: C_5  and  C_6
REMARK    4  A    between atoms: C_8  and  C_9
REMARK    5  A    between atoms: C_12  and  C_13
REMARK                            x       y       z     vdW  Elec       q    Type
REMARK                         _______ _______ _______ _____ _____    ______ ____
ROOT
ATOM      1  C   UNL     1       6.252   4.981  16.028  0.00  0.00    +0.000 A 
ATOM      2  N   UNL     1       5.281   4.366  16.675  0.00  0.00    +0.000 NA
ATOM      3  C   UNL     1       5.205   4.815  17.983  0.00  0.00    +0.000 A 
ATOM      4  C   UNL     1       6.134   5.780  18.317  0.00  0.00    +0.000 A 
ATOM      5  S   UNL     1       7.117   6.142  16.963  0.00  0.00    +0.000 S 
ENDROOT
BRANCH   3   6
ATOM      6  C   UNL     1       4.220   4.271  18.910  0.00  0.00    +0.000 A 
ATOM      7  C   UNL     1       3.463   5.142  19.704  0.00  0.00    +0.000 A 
ATOM      8  C   UNL     1       2.511   4.646  20.602  0.00  0.00    +0.000 A 
ATOM      9  C   UNL     1       2.308   3.268  20.727  0.00  0.00    +0.000 A 
ATOM     10  C   UNL     1       1.305   2.718  21.696  0.00  0.00    +0.000 C 
ATOM     11  C   UNL     1       3.067   2.395  19.940  0.00  0.00    +0.000 A 
ATOM     12  C   UNL     1       4.015   2.892  19.040  0.00  0.00    +0.000 A 
ENDBRANCH   3   6
BRANCH   1  15
ATOM     13  C   UNL     1       6.102   3.581  12.554  0.00  0.00    +0.000 A 
ATOM     14  C   UNL     1       5.803   3.822  13.892  0.00  0.00    +0.000 A 
ATOM     15  C   UNL     1       6.564   4.752  14.610  0.00  0.00    +0.000 A 
ATOM     16  C   UNL     1       7.614   5.396  13.952  0.00  0.00    +0.000 A 
ATOM     17  C   UNL     1       7.844   5.094  12.621  0.00  0.00    +0.000 A 
ATOM     18  N   UNL     1       7.114   4.208  11.912  0.00  0.00    +0.000 NA
BRANCH  13  20
ATOM     19  C   UNL     1       4.062   3.147  11.184  0.00  0.00    +0.000 C 
ATOM     20  C   UNL     1       5.330   2.549  11.774  0.00  0.00    +0.000 C 
ENDBRANCH  13  20
ENDBRANCH   1  15
TORSDOF 3
ENDMDL
MODEL 2
REMARK VINA RESULT:      -7.8      0.043      1.078
REMARK  Name = 
REMARK  5 active torsions:
REMARK  status: ('A' for Active; 'I' for Inactive)
REMARK    1  A    between atoms: C_1  and  C_2
REMARK    2  A    between atoms: C_2  and  C_3
REMARK    3  A    between atoms: C_5  and  C_6
REMARK    4  A    between atoms: C_8  and  C_9
REMARK    5  A    between atoms: C_12  and  C_13
REMARK                            x       y       z     vdW  Elec       q    Type
REMARK                         _______ _______ _______ _____ _____    ______ ____
ROOT
ATOM      1  C   UNL     1       6.256   5.012  16.020  0.00  0.00    +0.000 A 
ATOM      2  N   UNL     1       5.286   4.404  16.674  0.00  0.00    +0.000 NA
ATOM      3  C   UNL     1       5.211   4.866  17.978  0.00  0.00    +0.000 A 
ATOM      4  C   UNL     1       6.140   5.834  18.301  0.00  0.00    +0.000 A 
ATOM      5  S   UNL     1       7.121   6.183  16.942  0.00  0.00    +0.000 S 
ENDROOT
BRANCH   3   6
ATOM      6  C   UNL     1       4.227   4.331  18.910  0.00  0.00    +0.000 A 
ATOM      7  C   UNL     1       4.026   2.947  18.985  0.00  0.00    +0.000 A 
ATOM      8  C   UNL     1       3.087   2.407  19.871  0.00  0.00    +0.000 A 
ATOM      9  C   UNL     1       2.326   3.245  20.692  0.00  0.00    +0.000 A 
ATOM     10  C   UNL     1       1.304   2.686  21.635  0.00  0.00    +0.000 C 
ATOM     11  C   UNL     1       2.520   4.629  20.615  0.00  0.00    +0.000 A 
ATOM     12  C   UNL     1       3.461   5.167  19.732  0.00  0.00    +0.000 A 
ENDBRANCH   3   6
BRANCH   1  15
ATOM     13  C   UNL     1       6.096   3.586  12.557  0.00  0.00    +0.000 A 
ATOM     14  C   UNL     1       5.799   3.840  13.893  0.00  0.00    +0.000 A 
ATOM     15  C   UNL     1       6.567   4.769  14.604  0.00  0.00    +0.000 A 
ATOM     16  C   UNL     1       7.623   5.398  13.941  0.00  0.00    +0.000 A 
ATOM     17  C   UNL     1       7.851   5.083  12.613  0.00  0.00    +0.000 A 
ATOM     18  N   UNL     1       7.114   4.198  11.911  0.00  0.00    +0.000 NA
BRANCH  13  20
ATOM     19  C   UNL     1       4.050   3.157  11.194  0.00  0.00    +0.000 C 
ATOM     20  C   UNL     1       5.315   2.555  11.785  0.00  0.00    +0.000 C 
ENDBRANCH  13  20
ENDBRANCH   1  15
TORSDOF 3
ENDMDL
MODEL 3
REMARK VINA RESULT:      -7.2      4.876      7.590
REMARK  Name = 
REMARK  5 active torsions:
REMARK  status: ('A' for Active; 'I' for Inactive)
REMARK    1  A    between atoms: C_1  and  C_2
REMARK    2  A    between atoms: C_2  and  C_3
REMARK    3  A    between atoms: C_5  and  C_6
REMARK    4  A    between atoms: C_8  and  C_9
REMARK    5  A    between atoms: C_12  and  C_13
REMARK                            x       y       z     vdW  Elec       q    Type
REMARK                         _______ _______ _______ _____ _____    ______ ____
ROOT
ATOM      1  C   UNL     1       2.523   7.197  19.234  0.00  0.00    +0.000 A 
ATOM      2  N   UNL     1       1.788   7.708  20.202  0.00  0.00    +0.000 NA
ATOM      3  C   UNL     1       1.251   8.926  19.818  0.00  0.00    +0.000 A 
ATOM      4  C   UNL     1       1.591   9.329  18.543  0.00  0.00    +0.000 A 
ATOM      5  S   UNL     1       2.595   8.156  17.804  0.00  0.00    +0.000 S 
ENDROOT
BRANCH   3   6
ATOM      6  C   UNL     1       0.414   9.699  20.726  0.00  0.00    +0.000 A 
ATOM      7  C   UNL     1       0.272   9.287  22.057  0.00  0.00    +0.000 A 
ATOM      8  C   UNL     1      -0.526  10.011  22.949  0.00  0.00    +0.000 A 
ATOM      9  C   UNL     1      -1.204  11.157  22.522  0.00  0.00    +0.000 A 
ATOM     10  C   UNL     1      -2.078  11.935  23.459  0.00  0.00    +0.000 C 
ATOM     11  C   UNL     1      -1.070  11.568  21.191  0.00  0.00    +0.000 A 
ATOM     12  C   UNL     1      -0.269  10.846  20.301  0.00  0.00    +0.000 A 
ENDBRANCH   3   6
BRANCH   1  15
ATOM     13  C   UNL     1       3.290   3.669  20.241  0.00  0.00    +0.000 A 
ATOM     14  C   UNL     1       2.649   4.900  20.135  0.00  0.00    +0.000 A 
ATOM     15  C   UNL     1       3.198   5.894  19.319  0.00  0.00    +0.000 A 
ATOM     16  C   UNL     1       4.390   5.614  18.647  0.00  0.00    +0.000 A 
ATOM     17  C   UNL     1       4.963   4.365  18.811  0.00  0.00    +0.000 A 
ATOM     18  N   UNL     1       4.441   3.393  19.587  0.00  0.00    +0.000 NA
BRANCH  13  20
ATOM     19  C   UNL     1       1.268   2.825  21.434  0.00  0.00    +0.000 C 
ATOM     20  C   UNL     1       2.745   2.601  21.152  0.00  0.00    +0.000 C 
ENDBRANCH  13  20
ENDBRANCH   1  15
TORSDOF 3
ENDMDL
MODEL 4
REMARK VINA RESULT:      -7.2      3.651      5.111
REMARK  Name = 
REMARK  5 active torsions:
REMARK  status: ('A' for Active; 'I' for Inactive)
REMARK    1  A    between atoms: C_1  and  C_2
REMARK    2  A    between atoms: C_2  and  C_3
REMARK    3  A    between atoms: C_5  and  C_6
REMARK    4  A    between atoms: C_8  and  C_9
REMARK    5  A    between atoms: C_12  and  C_13
REMARK                            x       y       z     vdW  Elec       q    Type
REMARK                         _______ _______ _______ _____ _____    ______ ____
ROOT
ATOM      1  C   UNL     1       4.220   5.635  18.459  0.00  0.00    +0.000 A 
ATOM      2  N   UNL     1       3.704   6.848  18.442  0.00  0.00    +0.000 NA
ATOM      3  C   UNL     1       2.548   6.899  19.204  0.00  0.00    +0.000 A 
ATOM      4  C   UNL     1       2.196   5.704  19.798  0.00  0.00    +0.000 A 
ATOM      5  S   UNL     1       3.341   4.493  19.406  0.00  0.00    +0.000 S 
ENDROOT
BRANCH   3   6
ATOM      6  C   UNL     1       1.781   8.132  19.326  0.00  0.00    +0.000 A 
ATOM      7  C   UNL     1       1.213   8.474  20.560  0.00  0.00    +0.000 A 
ATOM      8  C   UNL     1       0.471   9.651  20.705  0.00  0.00    +0.000 A 
ATOM      9  C   UNL     1       0.278  10.503  19.614  0.00  0.00    +0.000 A 
ATOM     10  C   UNL     1      -0.529  11.760  19.745  0.00  0.00    +0.000 C 
ATOM     11  C   UNL     1       0.838  10.162  18.377  0.00  0.00    +0.000 A 
ATOM     12  C   UNL     1       1.583   8.987  18.235  0.00  0.00    +0.000 A 
ENDBRANCH   3   6
BRANCH   1  15
ATOM     13  C   UNL     1       6.649   4.825  15.722  0.00  0.00    +0.000 A 
ATOM     14  C   UNL     1       5.479   5.193  16.379  0.00  0.00    +0.000 A 
ATOM     15  C   UNL     1       5.468   5.266  17.776  0.00  0.00    +0.000 A 
ATOM     16  C   UNL     1       6.641   4.947  18.464  0.00  0.00    +0.000 A 
ATOM     17  C   UNL     1       7.759   4.587  17.731  0.00  0.00    +0.000 A 
ATOM     18  N   UNL     1       7.788   4.522  16.384  0.00  0.00    +0.000 NA
BRANCH  13  20
ATOM     19  C   UNL     1       5.434   3.965  13.719  0.00  0.00    +0.000 C 
ATOM     20  C   UNL     1       6.672   4.692  14.222  0.00  0.00    +0.000 C 
ENDBRANCH  13  20
ENDBRANCH   1  15
TORSDOF 3
ENDMDL
MODEL 5
REMARK VINA RESULT:      -7.2      4.604      8.792
REMARK  Name = 
REMARK  5 active torsions:
REMARK  status: ('A' for Active; 'I' for Inactive)
REMARK    1  A    between atoms: C_1  and  C_2
REMARK    2  A    between atoms: C_2  and  C_3
REMARK    3  A    between atoms: C_5  and  C_6
REMARK    4  A    between atoms: C_8  and  C_9
REMARK    5  A    between atoms: C_12  and  C_13
REMARK                            x       y       z     vdW  Elec       q    Type
REMARK                         _______ _______ _______ _____ _____    ______ ____
ROOT
ATOM      1  C   UNL     1       2.047   7.411  19.738  0.00  0.00    +0.000 A 
ATOM      2  N   UNL     1       2.742   7.270  18.626  0.00  0.00    +0.000 NA
ATOM      3  C   UNL     1       3.263   5.990  18.534  0.00  0.00    +0.000 A 
ATOM      4  C   UNL     1       2.952   5.164  19.595  0.00  0.00    +0.000 A 
ATOM      5  S   UNL     1       1.977   6.001  20.726  0.00  0.00    +0.000 S 
ENDROOT
BRANCH   3   6
ATOM      6  C   UNL     1       4.088   5.593  17.400  0.00  0.00    +0.000 A 
ATOM      7  C   UNL     1       4.332   4.234  17.165  0.00  0.00    +0.000 A 
ATOM      8  C   UNL     1       5.121   3.826  16.084  0.00  0.00    +0.000 A 
ATOM      9  C   UNL     1       5.687   4.772  15.225  0.00  0.00    +0.000 A 
ATOM     10  C   UNL     1       6.549   4.354  14.072  0.00  0.00    +0.000 C 
ATOM     11  C   UNL     1       5.451   6.131  15.461  0.00  0.00    +0.000 A 
ATOM     12  C   UNL     1       4.659   6.538  16.539  0.00  0.00    +0.000 A 
ENDBRANCH   3   6
BRANCH   1  15
ATOM     13  C   UNL     1       0.098   9.902  21.750  0.00  0.00    +0.000 A 
ATOM     14  C   UNL     1       0.790   8.749  21.393  0.00  0.00    +0.000 A 
ATOM     15  C   UNL     1       1.337   8.643  20.109  0.00  0.00    +0.000 A 
ATOM     16  C   UNL     1       1.151   9.706  19.222  0.00  0.00    +0.000 A 
ATOM     17  C   UNL     1       0.445  10.815  19.658  0.00  0.00    +0.000 A 
ATOM     18  N   UNL     1      -0.080  10.935  20.895  0.00  0.00    +0.000 NA
BRANCH  13  20
ATOM     19  C   UNL     1      -1.494  11.203  23.165  0.00  0.00    +0.000 C 
ATOM     20  C   UNL     1      -0.542  10.018  23.108  0.00  0.00    +0.000 C 
ENDBRANCH  13  20
ENDBRANCH   1  15
TORSDOF 3
ENDMDL
MODEL 6
REMARK VINA RESULT:      -7.2      4.875      7.548
REMARK  Name = 
REMARK  5 active torsions:
REMARK  status: ('A' for Active; 'I' for Inactive)
REMARK    1  A    between atoms: C_1  and  C_2
REMARK    2  A    between atoms: C_2  and  C_3
REMARK    3  A    between atoms: C_5  and  C_6
REMARK    4  A    between atoms: C_8  and  C_9
REMARK    5  A    between atoms: C_12  and  C_13
REMARK                            x       y       z     vdW  Elec       q    Type
REMARK                         _______ _______ _______ _____ _____    ______ ____
ROOT
ATOM      1  C   UNL     1       2.512   7.177  19.251  0.00  0.00    +0.000 A 
ATOM      2  N   UNL     1       1.784   7.675  20.231  0.00  0.00    +0.000 NA
ATOM      3  C   UNL     1       1.228   8.888  19.859  0.00  0.00    +0.000 A 
ATOM      4  C   UNL     1       1.547   9.301  18.581  0.00  0.00    +0.000 A 
ATOM      5  S   UNL     1       2.554   8.142  17.823  0.00  0.00    +0.000 S 
ENDROOT
BRANCH   3   6
ATOM      6  C   UNL     1       0.395   9.648  20.781  0.00  0.00    +0.000 A 
ATOM      7  C   UNL     1      -0.246  10.812  20.337  0.00  0.00    +0.000 A 
ATOM      8  C   UNL     1      -1.051  11.561  21.202  0.00  0.00    +0.000 A 
ATOM      9  C   UNL     1      -1.222  11.163  22.531  0.00  0.00    +0.000 A 
ATOM     10  C   UNL     1      -2.067  11.962  23.477  0.00  0.00    +0.000 C 
ATOM     11  C   UNL     1      -0.579  10.004  22.981  0.00  0.00    +0.000 A 
ATOM     12  C   UNL     1       0.223   9.254  22.114  0.00  0.00    +0.000 A 
ENDBRANCH   3   6
BRANCH   1  15
ATOM     13  C   UNL     1       3.278   3.620  20.153  0.00  0.00    +0.000 A 
ATOM     14  C   UNL     1       2.624   4.845  20.061  0.00  0.00    +0.000 A 
ATOM     15  C   UNL     1       3.203   5.881  19.321  0.00  0.00    +0.000 A 
ATOM     16  C   UNL     1       4.437   5.647  18.710  0.00  0.00    +0.000 A 
ATOM     17  C   UNL     1       5.020   4.401  18.856  0.00  0.00    +0.000 A 
ATOM     18  N   UNL     1       4.470   3.389  19.558  0.00  0.00    +0.000 NA
BRANCH  13  20
ATOM     19  C   UNL     1       1.335   2.889  21.537  0.00  0.00    +0.000 C 
ATOM     20  C   UNL     1       2.699   2.506  20.984  0.00  0.00    +0.000 C 
ENDBRANCH  13  20
ENDBRANCH   1  15
TORSDOF 3
ENDMDL
MODEL 7
REMARK VINA RESULT:      -7.2      2.663      3.501
REMARK  Name = 
REMARK  5 active torsions:
REMARK  status: ('A' for Active; 'I' for Inactive)
REMARK    1  A    between atoms: C_1  and  C_2
REMARK    2  A    between atoms: C_2  and  C_3
REMARK    3  A    between atoms: C_5  and  C_6
REMARK    4  A    between atoms: C_8  and  C_9
REMARK    5  A    between atoms: C_12  and  C_13
REMARK                            x       y       z     vdW  Elec       q    Type
REMARK                         _______ _______ _______ _____ _____    ______ ____
ROOT
ATOM      1  C   UNL     1       4.727   4.894  16.496  0.00  0.00    +0.000 A 
ATOM      2  N   UNL     1       4.156   6.029  16.848  0.00  0.00    +0.000 NA
ATOM      3  C   UNL     1       3.428   5.869  18.015  0.00  0.00    +0.000 A 
ATOM      4  C   UNL     1       3.457   4.595  18.543  0.00  0.00    +0.000 A 
ATOM      5  S   UNL     1       4.425   3.576  17.565  0.00  0.00    +0.000 S 
ENDROOT
BRANCH   3   6
ATOM      6  C   UNL     1       2.687   6.980  18.598  0.00  0.00    +0.000 A 
ATOM      7  C   UNL     1       2.275   6.912  19.935  0.00  0.00    +0.000 A 
ATOM      8  C   UNL     1       1.561   7.964  20.519  0.00  0.00    +0.000 A 
ATOM      9  C   UNL     1       1.239   9.101  19.771  0.00  0.00    +0.000 A 
ATOM     10  C   UNL     1       0.459  10.230  20.374  0.00  0.00    +0.000 C 
ATOM     11  C   UNL     1       1.643   9.170  18.433  0.00  0.00    +0.000 A 
ATOM     12  C   UNL     1       2.359   8.119  17.851  0.00  0.00    +0.000 A 
ENDBRANCH   3   6
BRANCH   1  15
ATOM     13  C   UNL     1       5.989   3.779  13.148  0.00  0.00    +0.000 A 
ATOM     14  C   UNL     1       5.166   3.945  14.257  0.00  0.00    +0.000 A 
ATOM     15  C   UNL     1       5.597   4.744  15.321  0.00  0.00    +0.000 A 
ATOM     16  C   UNL     1       6.859   5.338  15.233  0.00  0.00    +0.000 A 
ATOM     17  C   UNL     1       7.614   5.117  14.095  0.00  0.00    +0.000 A 
ATOM     18  N   UNL     1       7.209   4.357  13.057  0.00  0.00    +0.000 NA
BRANCH  13  20
ATOM     19  C   UNL     1       4.232   3.326  11.435  0.00  0.00    +0.000 C 
ATOM     20  C   UNL     1       5.568   2.884  12.012  0.00  0.00    +0.000 C 
ENDBRANCH  13  20
ENDBRANCH   1  15
TORSDOF 3
ENDMDL
MODEL 8
REMARK VINA RESULT:      -7.2      3.566      5.139
REMARK  Name = 
REMARK  5 active torsions:
REMARK  status: ('A' for Active; 'I' for Inactive)
REMARK    1  A    between atoms: C_1  and  C_2
REMARK    2  A    between atoms: C_2  and  C_3
REMARK    3  A    between atoms: C_5  and  C_6
REMARK    4  A    between atoms: C_8  and  C_9
REMARK    5  A    between atoms: C_12  and  C_13
REMARK                            x       y       z     vdW  Elec       q    Type
REMARK                         _______ _______ _______ _____ _____    ______ ____
ROOT
ATOM      1  C   UNL     1       4.045   5.453  18.801  0.00  0.00    +0.000 A 
ATOM      2  N   UNL     1       3.542   6.669  18.890  0.00  0.00    +0.000 NA
ATOM      3  C   UNL     1       2.432   6.679  19.717  0.00  0.00    +0.000 A 
ATOM      4  C   UNL     1       2.101   5.451  20.255  0.00  0.00    +0.000 A 
ATOM      5  S   UNL     1       3.210   4.260  19.723  0.00  0.00    +0.000 S 
ENDROOT
BRANCH   3   6
ATOM      6  C   UNL     1       1.685   7.907  19.960  0.00  0.00    +0.000 A 
ATOM      7  C   UNL     1       1.549   8.848  18.932  0.00  0.00    +0.000 A 
ATOM      8  C   UNL     1       0.838  10.035  19.139  0.00  0.00    +0.000 A 
ATOM      9  C   UNL     1       0.259  10.306  20.383  0.00  0.00    +0.000 A 
ATOM     10  C   UNL     1      -0.491  11.580  20.628  0.00  0.00    +0.000 C 
ATOM     11  C   UNL     1       0.399   9.370  21.414  0.00  0.00    +0.000 A 
ATOM     12  C   UNL     1       1.106   8.182  21.206  0.00  0.00    +0.000 A 
ENDBRANCH   3   6
BRANCH   1  15
ATOM     13  C   UNL     1       6.240   4.405  15.949  0.00  0.00    +0.000 A 
ATOM     14  C   UNL     1       5.110   4.743  16.687  0.00  0.00    +0.000 A 
ATOM     15  C   UNL     1       5.250   5.120  18.027  0.00  0.00    +0.000 A 
ATOM     16  C   UNL     1       6.532   5.127  18.581  0.00  0.00    +0.000 A 
ATOM     17  C   UNL     1       7.601   4.773  17.776  0.00  0.00    +0.000 A 
ATOM     18  N   UNL     1       7.483   4.416  16.481  0.00  0.00    +0.000 NA
BRANCH  13  20
ATOM     19  C   UNL     1       7.053   4.720  13.611  0.00  0.00    +0.000 C 
ATOM     20  C   UNL     1       6.109   3.948  14.520  0.00  0.00    +0.000 C 
ENDBRANCH  13  20
ENDBRANCH   1  15
TORSDOF 3
ENDMDL
MODEL 9
REMARK VINA RESULT:      -7.2      2.654      3.460
REMARK  Name = 
REMARK  5 active torsions:
REMARK  status: ('A' for Active; 'I' for Inactive)
REMARK    1  A    between atoms: C_1  and  C_2
REMARK    2  A    between atoms: C_2  and  C_3
REMARK    3  A    between atoms: C_5  and  C_6
REMARK    4  A    between atoms: C_8  and  C_9
REMARK    5  A    between atoms: C_12  and  C_13
REMARK                            x       y       z     vdW  Elec       q    Type
REMARK                         _______ _______ _______ _____ _____    ______ ____
ROOT
ATOM      1  C   UNL     1       4.801   4.905  16.448  0.00  0.00    +0.000 A 
ATOM      2  N   UNL     1       4.201   6.030  16.785  0.00  0.00    +0.000 NA
ATOM      3  C   UNL     1       3.509   5.877  17.975  0.00  0.00    +0.000 A 
ATOM      4  C   UNL     1       3.593   4.618  18.533  0.00  0.00    +0.000 A 
ATOM      5  S   UNL     1       4.569   3.605  17.556  0.00  0.00    +0.000 S 
ENDROOT
BRANCH   3   6
ATOM      6  C   UNL     1       2.746   6.978  18.549  0.00  0.00    +0.000 A 
ATOM      7  C   UNL     1       2.482   8.115  17.774  0.00  0.00    +0.000 A 
ATOM      8  C   UNL     1       1.753   9.186  18.301  0.00  0.00    +0.000 A 
ATOM      9  C   UNL     1       1.282   9.142  19.616  0.00  0.00    +0.000 A 
ATOM     10  C   UNL     1       0.514  10.288  20.204  0.00  0.00    +0.000 C 
ATOM     11  C   UNL     1       1.549   8.011  20.396  0.00  0.00    +0.000 A 
ATOM     12  C   UNL     1       2.275   6.939  19.867  0.00  0.00    +0.000 A 
ENDBRANCH   3   6
BRANCH   1  15
ATOM     13  C   UNL     1       5.994   3.780  13.077  0.00  0.00    +0.000 A 
ATOM     14  C   UNL     1       5.194   3.948  14.203  0.00  0.00    +0.000 A 
ATOM     15  C   UNL     1       5.646   4.753  15.255  0.00  0.00    +0.000 A 
ATOM     16  C   UNL     1       6.903   5.351  15.137  0.00  0.00    +0.000 A 
ATOM     17  C   UNL     1       7.635   5.127  13.983  0.00  0.00    +0.000 A 
ATOM     18  N   UNL     1       7.209   4.362  12.957  0.00  0.00    +0.000 NA
BRANCH  13  20
ATOM     19  C   UNL     1       4.193   3.302  11.418  0.00  0.00    +0.000 C 
ATOM     20  C   UNL     1       5.551   2.879  11.955  0.00  0.00    +0.000 C 
ENDBRANCH  13  20
ENDBRANCH   1  15
TORSDOF 3
ENDMDL
