MODEL 1
REMARK VINA RESULT:      -5.9      0.000      0.000
REMARK  Name = 
REMARK  10 active torsions:
REMARK  status: ('A' for Active; 'I' for Inactive)
REMARK    1  A    between atoms: C_1  and  O_2
REMARK    2  A    between atoms: O_2  and  C_3
REMARK    3  A    between atoms: C_3  and  C_5
REMARK    4  A    between atoms: C_5  and  S_6
REMARK    5  A    between atoms: S_6  and  C_7
REMARK    6  A    between atoms: C_10  and  S_11
REMARK    7  A    between atoms: S_11  and  C_12
REMARK    8  A    between atoms: C_12  and  C_13
REMARK    9  A    between atoms: C_16  and  O_17
REMARK   10  A    between atoms: O_17  and  C_18
REMARK                            x       y       z     vdW  Elec       q    Type
REMARK                         _______ _______ _______ _____ _____    ______ ____
ROOT
ATOM      1  C   UNL     1       5.771   4.552  17.719  0.00  0.00    +0.000 A 
ATOM      2  N   UNL     1       5.055   3.923  16.812  0.00  0.00    +0.000 NA
ATOM      3  N   UNL     1       3.711   3.877  17.155  0.00  0.00    +0.000 NA
ATOM      4  C   UNL     1       3.471   4.483  18.299  0.00  0.00    +0.000 A 
ATOM      5  S   UNL     1       4.862   5.156  19.043  0.00  0.00    +0.000 S 
ENDROOT
BRANCH   1   6
ATOM      6  S   UNL     1       7.505   4.727  17.631  0.00  0.00    +0.000 S 
BRANCH   6   7
ATOM      7  C   UNL     1       7.805   6.115  18.768  0.00  0.00    +0.000 C 
BRANCH   7   8
ATOM      8  C   UNL     1       7.863   7.433  18.012  0.00  0.00    +0.000 C 
ATOM      9  O   UNL     1       7.315   7.686  16.948  0.00  0.00    +0.000 OA
BRANCH   8  11
ATOM     10  C   UNL     1       8.542   9.665  18.216  0.00  0.00    +0.000 C 
ATOM     11  O   UNL     1       8.628   8.326  18.708  0.00  0.00    +0.000 OA
ENDBRANCH   8  11
ENDBRANCH   7   8
ENDBRANCH   6   7
ENDBRANCH   1   6
BRANCH   4  12
ATOM     12  S   UNL     1       1.876   4.624  19.001  0.00  0.00    +0.000 S 
BRANCH  12  13
ATOM     13  C   UNL     1       2.217   5.697  20.424  0.00  0.00    +0.000 C 
BRANCH  13  14
ATOM     14  C   UNL     1       1.795   7.127  20.162  0.00  0.00    +0.000 A 
ATOM     15  C   UNL     1       1.125   7.863  21.149  0.00  0.00    +0.000 A 
ATOM     16  C   UNL     1       0.731   9.184  20.906  0.00  0.00    +0.000 A 
ATOM     17  C   UNL     1       1.008   9.795  19.683  0.00  0.00    +0.000 A 
ATOM     18  C   UNL     1       1.653   9.066  18.686  0.00  0.00    +0.000 A 
ATOM     19  C   UNL     1       2.043   7.739  18.924  0.00  0.00    +0.000 A 
BRANCH  17  20
ATOM     20  O   UNL     1       0.559  11.082  19.561  0.00  0.00    +0.000 OA
ATOM     21  C   UNL     1       1.271  11.900  18.639  0.00  0.00    +0.000 C 
ENDBRANCH  17  20
ENDBRANCH  13  14
ENDBRANCH  12  13
ENDBRANCH   4  12
TORSDOF 8
ENDMDL
MODEL 2
REMARK VINA RESULT:      -5.8      4.388      8.101
REMARK  Name = 
REMARK  10 active torsions:
REMARK  status: ('A' for Active; 'I' for Inactive)
REMARK    1  A    between atoms: C_1  and  O_2
REMARK    2  A    between atoms: O_2  and  C_3
REMARK    3  A    between atoms: C_3  and  C_5
REMARK    4  A    between atoms: C_5  and  S_6
REMARK    5  A    between atoms: S_6  and  C_7
REMARK    6  A    between atoms: C_10  and  S_11
REMARK    7  A    between atoms: S_11  and  C_12
REMARK    8  A    between atoms: C_12  and  C_13
REMARK    9  A    between atoms: C_16  and  O_17
REMARK   10  A    between atoms: O_17  and  C_18
REMARK                            x       y       z     vdW  Elec       q    Type
REMARK                         _______ _______ _______ _____ _____    ______ ____
ROOT
ATOM      1  C   UNL     1       3.980   5.388  19.151  0.00  0.00    +0.000 A 
ATOM      2  N   UNL     1       4.653   4.504  19.857  0.00  0.00    +0.000 NA
ATOM      3  N   UNL     1       5.858   4.170  19.253  0.00  0.00    +0.000 NA
ATOM      4  C   UNL     1       6.045   4.824  18.126  0.00  0.00    +0.000 A 
ATOM      5  S   UNL     1       4.771   5.897  17.716  0.00  0.00    +0.000 S 
ENDROOT
BRANCH   1   6
ATOM      6  S   UNL     1       2.396   5.971  19.591  0.00  0.00    +0.000 S 
BRANCH   6   7
ATOM      7  C   UNL     1       1.458   4.423  19.775  0.00  0.00    +0.000 C 
BRANCH   7   8
ATOM      8  C   UNL     1       1.362   3.686  18.448  0.00  0.00    +0.000 C 
ATOM      9  O   UNL     1       1.117   4.181  17.357  0.00  0.00    +0.000 OA
BRANCH   8  11
ATOM     10  C   UNL     1       2.922   1.947  18.288  0.00  0.00    +0.000 C 
ATOM     11  O   UNL     1       1.601   2.355  18.646  0.00  0.00    +0.000 OA
ENDBRANCH   8  11
ENDBRANCH   7   8
ENDBRANCH   6   7
ENDBRANCH   1   6
BRANCH   4  12
ATOM     12  S   UNL     1       7.474   4.649  17.133  0.00  0.00    +0.000 S 
BRANCH  12  13
ATOM     13  C   UNL     1       7.050   5.711  15.724  0.00  0.00    +0.000 C 
BRANCH  13  14
ATOM     14  C   UNL     1       6.728   4.900  14.488  0.00  0.00    +0.000 A 
ATOM     15  C   UNL     1       5.658   3.994  14.491  0.00  0.00    +0.000 A 
ATOM     16  C   UNL     1       5.362   3.240  13.350  0.00  0.00    +0.000 A 
ATOM     17  C   UNL     1       6.118   3.385  12.185  0.00  0.00    +0.000 A 
ATOM     18  C   UNL     1       7.197   4.267  12.177  0.00  0.00    +0.000 A 
ATOM     19  C   UNL     1       7.501   5.018  13.322  0.00  0.00    +0.000 A 
BRANCH  17  20
ATOM     20  O   UNL     1       5.740   2.584  11.142  0.00  0.00    +0.000 OA
ATOM     21  C   UNL     1       6.063   1.204  11.274  0.00  0.00    +0.000 C 
ENDBRANCH  17  20
ENDBRANCH  13  14
ENDBRANCH  12  13
ENDBRANCH   4  12
TORSDOF 8
ENDMDL
MODEL 3
REMARK VINA RESULT:      -5.8      2.287      3.091
REMARK  Name = 
REMARK  10 active torsions:
REMARK  status: ('A' for Active; 'I' for Inactive)
REMARK    1  A    between atoms: C_1  and  O_2
REMARK    2  A    between atoms: O_2  and  C_3
REMARK    3  A    between atoms: C_3  and  C_5
REMARK    4  A    between atoms: C_5  and  S_6
REMARK    5  A    between atoms: S_6  and  C_7
REMARK    6  A    between atoms: C_10  and  S_11
REMARK    7  A    between atoms: S_11  and  C_12
REMARK    8  A    between atoms: C_12  and  C_13
REMARK    9  A    between atoms: C_16  and  O_17
REMARK   10  A    between atoms: O_17  and  C_18
REMARK                            x       y       z     vdW  Elec       q    Type
REMARK                         _______ _______ _______ _____ _____    ______ ____
ROOT
ATOM      1  C   UNL     1       3.607   4.574  17.620  0.00  0.00    +0.000 A 
ATOM      2  N   UNL     1       2.380   4.099  17.649  0.00  0.00    +0.000 NA
ATOM      3  N   UNL     1       1.638   4.647  18.686  0.00  0.00    +0.000 NA
ATOM      4  C   UNL     1       2.334   5.519  19.385  0.00  0.00    +0.000 A 
ATOM      5  S   UNL     1       3.943   5.740  18.833  0.00  0.00    +0.000 S 
ENDROOT
BRANCH   1   6
ATOM      6  S   UNL     1       4.823   4.044  16.486  0.00  0.00    +0.000 S 
BRANCH   6   7
ATOM      7  C   UNL     1       5.666   5.602  16.076  0.00  0.00    +0.000 C 
BRANCH   7   8
ATOM      8  C   UNL     1       7.156   5.506  16.364  0.00  0.00    +0.000 C 
ATOM      9  O   UNL     1       7.794   4.480  16.555  0.00  0.00    +0.000 OA
BRANCH   8  11
ATOM     10  C   UNL     1       7.565   7.436  17.625  0.00  0.00    +0.000 C 
ATOM     11  O   UNL     1       7.702   6.758  16.374  0.00  0.00    +0.000 OA
ENDBRANCH   8  11
ENDBRANCH   7   8
ENDBRANCH   6   7
ENDBRANCH   1   6
BRANCH   4  12
ATOM     12  S   UNL     1       1.683   6.407  20.744  0.00  0.00    +0.000 S 
BRANCH  12  13
ATOM     13  C   UNL     1       1.652   8.093  20.075  0.00  0.00    +0.000 C 
BRANCH  13  14
ATOM     14  C   UNL     1       0.817   9.021  20.931  0.00  0.00    +0.000 A 
ATOM     15  C   UNL     1       0.163  10.120  20.358  0.00  0.00    +0.000 A 
ATOM     16  C   UNL     1      -0.605  10.981  21.150  0.00  0.00    +0.000 A 
ATOM     17  C   UNL     1      -0.745  10.754  22.519  0.00  0.00    +0.000 A 
ATOM     18  C   UNL     1      -0.081   9.677  23.104  0.00  0.00    +0.000 A 
ATOM     19  C   UNL     1       0.697   8.817  22.315  0.00  0.00    +0.000 A 
BRANCH  17  20
ATOM     20  O   UNL     1      -1.509  11.673  23.187  0.00  0.00    +0.000 OA
ATOM     21  C   UNL     1      -1.187  13.038  22.945  0.00  0.00    +0.000 C 
ENDBRANCH  17  20
ENDBRANCH  13  14
ENDBRANCH  12  13
ENDBRANCH   4  12
TORSDOF 8
ENDMDL
MODEL 4
REMARK VINA RESULT:      -5.7      2.113      2.735
REMARK  Name = 
REMARK  10 active torsions:
REMARK  status: ('A' for Active; 'I' for Inactive)
REMARK    1  A    between atoms: C_1  and  O_2
REMARK    2  A    between atoms: O_2  and  C_3
REMARK    3  A    between atoms: C_3  and  C_5
REMARK    4  A    between atoms: C_5  and  S_6
REMARK    5  A    between atoms: S_6  and  C_7
REMARK    6  A    between atoms: C_10  and  S_11
REMARK    7  A    between atoms: S_11  and  C_12
REMARK    8  A    between atoms: C_12  and  C_13
REMARK    9  A    between atoms: C_16  and  O_17
REMARK   10  A    between atoms: O_17  and  C_18
REMARK                            x       y       z     vdW  Elec       q    Type
REMARK                         _______ _______ _______ _____ _____    ______ ____
ROOT
ATOM      1  C   UNL     1       3.712   4.331  17.434  0.00  0.00    +0.000 A 
ATOM      2  N   UNL     1       2.542   3.733  17.505  0.00  0.00    +0.000 NA
ATOM      3  N   UNL     1       1.759   4.249  18.529  0.00  0.00    +0.000 NA
ATOM      4  C   UNL     1       2.369   5.219  19.177  0.00  0.00    +0.000 A 
ATOM      5  S   UNL     1       3.939   5.579  18.589  0.00  0.00    +0.000 S 
ENDROOT
BRANCH   1   6
ATOM      6  S   UNL     1       4.962   3.879  16.304  0.00  0.00    +0.000 S 
BRANCH   6   7
ATOM      7  C   UNL     1       5.754   5.478  15.952  0.00  0.00    +0.000 C 
BRANCH   7   8
ATOM      8  C   UNL     1       7.189   5.496  16.455  0.00  0.00    +0.000 C 
ATOM      9  O   UNL     1       7.892   4.521  16.683  0.00  0.00    +0.000 OA
BRANCH   8  11
ATOM     10  C   UNL     1       7.737   7.185  17.982  0.00  0.00    +0.000 C 
ATOM     11  O   UNL     1       7.601   6.788  16.616  0.00  0.00    +0.000 OA
ENDBRANCH   8  11
ENDBRANCH   7   8
ENDBRANCH   6   7
ENDBRANCH   1   6
BRANCH   4  12
ATOM     12  S   UNL     1       1.646   6.095  20.507  0.00  0.00    +0.000 S 
BRANCH  12  13
ATOM     13  C   UNL     1       2.036   7.807  20.048  0.00  0.00    +0.000 C 
BRANCH  13  14
ATOM     14  C   UNL     1       1.081   8.791  20.688  0.00  0.00    +0.000 A 
ATOM     15  C   UNL     1       0.983   8.882  22.084  0.00  0.00    +0.000 A 
ATOM     16  C   UNL     1       0.097   9.788  22.676  0.00  0.00    +0.000 A 
ATOM     17  C   UNL     1      -0.696  10.625  21.890  0.00  0.00    +0.000 A 
ATOM     18  C   UNL     1      -0.624  10.528  20.502  0.00  0.00    +0.000 A 
ATOM     19  C   UNL     1       0.258   9.615  19.905  0.00  0.00    +0.000 A 
BRANCH  17  20
ATOM     20  O   UNL     1      -1.532  11.456  22.585  0.00  0.00    +0.000 OA
ATOM     21  C   UNL     1      -0.995  12.728  22.929  0.00  0.00    +0.000 C 
ENDBRANCH  17  20
ENDBRANCH  13  14
ENDBRANCH  12  13
ENDBRANCH   4  12
TORSDOF 8
ENDMDL
MODEL 5
REMARK VINA RESULT:      -5.6      3.587      4.717
REMARK  Name = 
REMARK  10 active torsions:
REMARK  status: ('A' for Active; 'I' for Inactive)
REMARK    1  A    between atoms: C_1  and  O_2
REMARK    2  A    between atoms: O_2  and  C_3
REMARK    3  A    between atoms: C_3  and  C_5
REMARK    4  A    between atoms: C_5  and  S_6
REMARK    5  A    between atoms: S_6  and  C_7
REMARK    6  A    between atoms: C_10  and  S_11
REMARK    7  A    between atoms: S_11  and  C_12
REMARK    8  A    between atoms: C_12  and  C_13
REMARK    9  A    between atoms: C_16  and  O_17
REMARK   10  A    between atoms: O_17  and  C_18
REMARK                            x       y       z     vdW  Elec       q    Type
REMARK                         _______ _______ _______ _____ _____    ______ ____
ROOT
ATOM      1  C   UNL     1       6.674   5.190  15.584  0.00  0.00    +0.000 A 
ATOM      2  N   UNL     1       7.399   5.986  16.341  0.00  0.00    +0.000 NA
ATOM      3  N   UNL     1       6.837   6.157  17.598  0.00  0.00    +0.000 NA
ATOM      4  C   UNL     1       5.719   5.475  17.738  0.00  0.00    +0.000 A 
ATOM      5  S   UNL     1       5.269   4.572  16.352  0.00  0.00    +0.000 S 
ENDROOT
BRANCH   1   6
ATOM      6  S   UNL     1       7.059   4.819  13.924  0.00  0.00    +0.000 S 
BRANCH   6   7
ATOM      7  C   UNL     1       6.043   3.342  13.618  0.00  0.00    +0.000 C 
BRANCH   7   8
ATOM      8  C   UNL     1       5.766   3.171  12.133  0.00  0.00    +0.000 C 
ATOM      9  O   UNL     1       4.733   3.464  11.547  0.00  0.00    +0.000 OA
BRANCH   8  11
ATOM     10  C   UNL     1       6.696   1.277  11.118  0.00  0.00    +0.000 C 
ATOM     11  O   UNL     1       6.865   2.637  11.521  0.00  0.00    +0.000 OA
ENDBRANCH   8  11
ENDBRANCH   7   8
ENDBRANCH   6   7
ENDBRANCH   1   6
BRANCH   4  12
ATOM     12  S   UNL     1       4.776   5.457  19.211  0.00  0.00    +0.000 S 
BRANCH  12  13
ATOM     13  C   UNL     1       3.092   5.580  18.547  0.00  0.00    +0.000 C 
BRANCH  13  14
ATOM     14  C   UNL     1       2.452   6.910  18.883  0.00  0.00    +0.000 A 
ATOM     15  C   UNL     1       2.342   7.913  17.909  0.00  0.00    +0.000 A 
ATOM     16  C   UNL     1       1.756   9.144  18.220  0.00  0.00    +0.000 A 
ATOM     17  C   UNL     1       1.258   9.392  19.499  0.00  0.00    +0.000 A 
ATOM     18  C   UNL     1       1.382   8.412  20.482  0.00  0.00    +0.000 A 
ATOM     19  C   UNL     1       1.977   7.179  20.176  0.00  0.00    +0.000 A 
BRANCH  17  20
ATOM     20  O   UNL     1       0.721  10.637  19.684  0.00  0.00    +0.000 OA
ATOM     21  C   UNL     1       0.583  11.057  21.037  0.00  0.00    +0.000 C 
ENDBRANCH  17  20
ENDBRANCH  13  14
ENDBRANCH  12  13
ENDBRANCH   4  12
TORSDOF 8
ENDMDL
MODEL 6
REMARK VINA RESULT:      -5.6      3.492      4.800
REMARK  Name = 
REMARK  10 active torsions:
REMARK  status: ('A' for Active; 'I' for Inactive)
REMARK    1  A    between atoms: C_1  and  O_2
REMARK    2  A    between atoms: O_2  and  C_3
REMARK    3  A    between atoms: C_3  and  C_5
REMARK    4  A    between atoms: C_5  and  S_6
REMARK    5  A    between atoms: S_6  and  C_7
REMARK    6  A    between atoms: C_10  and  S_11
REMARK    7  A    between atoms: S_11  and  C_12
REMARK    8  A    between atoms: C_12  and  C_13
REMARK    9  A    between atoms: C_16  and  O_17
REMARK   10  A    between atoms: O_17  and  C_18
REMARK                            x       y       z     vdW  Elec       q    Type
REMARK                         _______ _______ _______ _____ _____    ______ ____
ROOT
ATOM      1  C   UNL     1       4.163   3.298  18.733  0.00  0.00    +0.000 A 
ATOM      2  N   UNL     1       5.166   3.727  19.468  0.00  0.00    +0.000 NA
ATOM      3  N   UNL     1       5.546   5.016  19.121  0.00  0.00    +0.000 NA
ATOM      4  C   UNL     1       4.806   5.505  18.148  0.00  0.00    +0.000 A 
ATOM      5  S   UNL     1       3.591   4.436  17.584  0.00  0.00    +0.000 S 
ENDROOT
BRANCH   1   6
ATOM      6  S   UNL     1       3.486   1.695  18.863  0.00  0.00    +0.000 S 
BRANCH   6   7
ATOM      7  C   UNL     1       1.958   2.002  19.800  0.00  0.00    +0.000 C 
BRANCH   7   8
ATOM      8  C   UNL     1       2.268   2.601  21.163  0.00  0.00    +0.000 C 
ATOM      9  O   UNL     1       3.046   2.154  21.994  0.00  0.00    +0.000 OA
BRANCH   8  11
ATOM     10  C   UNL     1       0.816   4.148  20.172  0.00  0.00    +0.000 C 
ATOM     11  O   UNL     1       1.541   3.745  21.335  0.00  0.00    +0.000 OA
ENDBRANCH   8  11
ENDBRANCH   7   8
ENDBRANCH   6   7
ENDBRANCH   1   6
BRANCH   4  12
ATOM     12  S   UNL     1       5.011   7.115  17.495  0.00  0.00    +0.000 S 
BRANCH  12  13
ATOM     13  C   UNL     1       3.321   7.485  16.947  0.00  0.00    +0.000 C 
BRANCH  13  14
ATOM     14  C   UNL     1       2.511   8.149  18.039  0.00  0.00    +0.000 A 
ATOM     15  C   UNL     1       2.317   7.507  19.270  0.00  0.00    +0.000 A 
ATOM     16  C   UNL     1       1.564   8.118  20.279  0.00  0.00    +0.000 A 
ATOM     17  C   UNL     1       1.003   9.381  20.082  0.00  0.00    +0.000 A 
ATOM     18  C   UNL     1       1.170  10.018  18.854  0.00  0.00    +0.000 A 
ATOM     19  C   UNL     1       1.918   9.405  17.838  0.00  0.00    +0.000 A 
BRANCH  17  20
ATOM     20  O   UNL     1       0.277   9.866  21.136  0.00  0.00    +0.000 OA
ATOM     21  C   UNL     1      -0.258  11.173  20.969  0.00  0.00    +0.000 C 
ENDBRANCH  17  20
ENDBRANCH  13  14
ENDBRANCH  12  13
ENDBRANCH   4  12
TORSDOF 8
ENDMDL
MODEL 7
REMARK VINA RESULT:      -5.5      2.279      2.610
REMARK  Name = 
REMARK  10 active torsions:
REMARK  status: ('A' for Active; 'I' for Inactive)
REMARK    1  A    between atoms: C_1  and  O_2
REMARK    2  A    between atoms: O_2  and  C_3
REMARK    3  A    between atoms: C_3  and  C_5
REMARK    4  A    between atoms: C_5  and  S_6
REMARK    5  A    between atoms: S_6  and  C_7
REMARK    6  A    between atoms: C_10  and  S_11
REMARK    7  A    between atoms: S_11  and  C_12
REMARK    8  A    between atoms: C_12  and  C_13
REMARK    9  A    between atoms: C_16  and  O_17
REMARK   10  A    between atoms: O_17  and  C_18
REMARK                            x       y       z     vdW  Elec       q    Type
REMARK                         _______ _______ _______ _____ _____    ______ ____
ROOT
ATOM      1  C   UNL     1       3.563   3.660  17.213  0.00  0.00    +0.000 A 
ATOM      2  N   UNL     1       2.334   3.366  16.848  0.00  0.00    +0.000 NA
ATOM      3  N   UNL     1       1.416   3.648  17.851  0.00  0.00    +0.000 NA
ATOM      4  C   UNL     1       1.993   4.151  18.923  0.00  0.00    +0.000 A 
ATOM      5  S   UNL     1       3.694   4.322  18.791  0.00  0.00    +0.000 S 
ENDROOT
BRANCH   1   6
ATOM      6  S   UNL     1       4.964   3.366  16.216  0.00  0.00    +0.000 S 
BRANCH   6   7
ATOM      7  C   UNL     1       5.709   5.021  16.107  0.00  0.00    +0.000 C 
BRANCH   7   8
ATOM      8  C   UNL     1       7.224   4.930  16.008  0.00  0.00    +0.000 C 
ATOM      9  O   UNL     1       7.976   4.411  16.821  0.00  0.00    +0.000 OA
BRANCH   8  11
ATOM     10  C   UNL     1       7.227   4.825  13.668  0.00  0.00    +0.000 C 
ATOM     11  O   UNL     1       7.642   5.517  14.847  0.00  0.00    +0.000 OA
ENDBRANCH   8  11
ENDBRANCH   7   8
ENDBRANCH   6   7
ENDBRANCH   1   6
BRANCH   4  12
ATOM     12  S   UNL     1       1.114   4.634  20.356  0.00  0.00    +0.000 S 
BRANCH  12  13
ATOM     13  C   UNL     1       2.155   5.992  20.960  0.00  0.00    +0.000 C 
BRANCH  13  14
ATOM     14  C   UNL     1       1.747   7.321  20.362  0.00  0.00    +0.000 A 
ATOM     15  C   UNL     1       0.947   8.212  21.089  0.00  0.00    +0.000 A 
ATOM     16  C   UNL     1       0.565   9.439  20.535  0.00  0.00    +0.000 A 
ATOM     17  C   UNL     1       0.984   9.803  19.255  0.00  0.00    +0.000 A 
ATOM     18  C   UNL     1       1.762   8.915  18.513  0.00  0.00    +0.000 A 
ATOM     19  C   UNL     1       2.140   7.681  19.063  0.00  0.00    +0.000 A 
BRANCH  17  20
ATOM     20  O   UNL     1       0.534  11.019  18.818  0.00  0.00    +0.000 OA
ATOM     21  C   UNL     1       1.405  12.121  19.051  0.00  0.00    +0.000 C 
ENDBRANCH  17  20
ENDBRANCH  13  14
ENDBRANCH  12  13
ENDBRANCH   4  12
TORSDOF 8
ENDMDL
MODEL 8
REMARK VINA RESULT:      -5.5      4.243      5.535
REMARK  Name = 
REMARK  10 active torsions:
REMARK  status: ('A' for Active; 'I' for Inactive)
REMARK    1  A    between atoms: C_1  and  O_2
REMARK    2  A    between atoms: O_2  and  C_3
REMARK    3  A    between atoms: C_3  and  C_5
REMARK    4  A    between atoms: C_5  and  S_6
REMARK    5  A    between atoms: S_6  and  C_7
REMARK    6  A    between atoms: C_10  and  S_11
REMARK    7  A    between atoms: S_11  and  C_12
REMARK    8  A    between atoms: C_12  and  C_13
REMARK    9  A    between atoms: C_16  and  O_17
REMARK   10  A    between atoms: O_17  and  C_18
REMARK                            x       y       z     vdW  Elec       q    Type
REMARK                         _______ _______ _______ _____ _____    ______ ____
ROOT
ATOM      1  C   UNL     1       2.812   7.356  18.109  0.00  0.00    +0.000 A 
ATOM      2  N   UNL     1       2.644   8.410  17.338  0.00  0.00    +0.000 NA
ATOM      3  N   UNL     1       1.830   9.362  17.935  0.00  0.00    +0.000 NA
ATOM      4  C   UNL     1       1.431   8.991  19.134  0.00  0.00    +0.000 A 
ATOM      5  S   UNL     1       2.017   7.456  19.626  0.00  0.00    +0.000 S 
ENDROOT
BRANCH   1   6
ATOM      6  S   UNL     1       3.722   5.946  17.633  0.00  0.00    +0.000 S 
BRANCH   6   7
ATOM      7  C   UNL     1       4.409   5.383  19.220  0.00  0.00    +0.000 C 
BRANCH   7   8
ATOM      8  C   UNL     1       5.426   4.272  19.008  0.00  0.00    +0.000 C 
ATOM      9  O   UNL     1       6.471   4.353  18.376  0.00  0.00    +0.000 OA
BRANCH   8  11
ATOM     10  C   UNL     1       3.973   2.437  18.949  0.00  0.00    +0.000 C 
ATOM     11  O   UNL     1       5.005   3.139  19.645  0.00  0.00    +0.000 OA
ENDBRANCH   8  11
ENDBRANCH   7   8
ENDBRANCH   6   7
ENDBRANCH   1   6
BRANCH   4  12
ATOM     12  S   UNL     1       0.414   9.976  20.161  0.00  0.00    +0.000 S 
BRANCH  12  13
ATOM     13  C   UNL     1      -0.089  11.280  19.004  0.00  0.00    +0.000 C 
BRANCH  13  14
ATOM     14  C   UNL     1      -1.546  11.153  18.615  0.00  0.00    +0.000 A 
ATOM     15  C   UNL     1      -2.505  12.017  19.161  0.00  0.00    +0.000 A 
ATOM     16  C   UNL     1      -3.854  11.898  18.806  0.00  0.00    +0.000 A 
ATOM     17  C   UNL     1      -4.266  10.925  17.894  0.00  0.00    +0.000 A 
ATOM     18  C   UNL     1      -3.325  10.046  17.361  0.00  0.00    +0.000 A 
ATOM     19  C   UNL     1      -1.973  10.158  17.722  0.00  0.00    +0.000 A 
BRANCH  17  20
ATOM     20  O   UNL     1      -5.610  10.899  17.639  0.00  0.00    +0.000 OA
ATOM     21  C   UNL     1      -6.438  10.496  18.723  0.00  0.00    +0.000 C 
ENDBRANCH  17  20
ENDBRANCH  13  14
ENDBRANCH  12  13
ENDBRANCH   4  12
TORSDOF 8
ENDMDL
MODEL 9
REMARK VINA RESULT:      -5.5      3.968      5.028
REMARK  Name = 
REMARK  10 active torsions:
REMARK  status: ('A' for Active; 'I' for Inactive)
REMARK    1  A    between atoms: C_1  and  O_2
REMARK    2  A    between atoms: O_2  and  C_3
REMARK    3  A    between atoms: C_3  and  C_5
REMARK    4  A    between atoms: C_5  and  S_6
REMARK    5  A    between atoms: S_6  and  C_7
REMARK    6  A    between atoms: C_10  and  S_11
REMARK    7  A    between atoms: S_11  and  C_12
REMARK    8  A    between atoms: C_12  and  C_13
REMARK    9  A    between atoms: C_16  and  O_17
REMARK   10  A    between atoms: O_17  and  C_18
REMARK                            x       y       z     vdW  Elec       q    Type
REMARK                         _______ _______ _______ _____ _____    ______ ____
ROOT
ATOM      1  C   UNL     1       2.790   6.976  18.597  0.00  0.00    +0.000 A 
ATOM      2  N   UNL     1       2.504   6.597  19.824  0.00  0.00    +0.000 NA
ATOM      3  N   UNL     1       1.751   7.550  20.497  0.00  0.00    +0.000 NA
ATOM      4  C   UNL     1       1.495   8.600  19.744  0.00  0.00    +0.000 A 
ATOM      5  S   UNL     1       2.147   8.505  18.161  0.00  0.00    +0.000 S 
ENDROOT
BRANCH   1   6
ATOM      6  S   UNL     1       3.780   6.043  17.504  0.00  0.00    +0.000 S 
BRANCH   6   7
ATOM      7  C   UNL     1       4.361   4.693  18.575  0.00  0.00    +0.000 C 
BRANCH   7   8
ATOM      8  C   UNL     1       5.833   4.867  18.917  0.00  0.00    +0.000 C 
ATOM      9  O   UNL     1       6.302   5.644  19.736  0.00  0.00    +0.000 OA
BRANCH   8  11
ATOM     10  C   UNL     1       7.493   4.654  17.279  0.00  0.00    +0.000 C 
ATOM     11  O   UNL     1       6.581   4.004  18.167  0.00  0.00    +0.000 OA
ENDBRANCH   8  11
ENDBRANCH   7   8
ENDBRANCH   6   7
ENDBRANCH   1   6
BRANCH   4  12
ATOM     12  S   UNL     1       0.549   9.968  20.285  0.00  0.00    +0.000 S 
BRANCH  12  13
ATOM     13  C   UNL     1       0.288  10.849  18.720  0.00  0.00    +0.000 C 
BRANCH  13  14
ATOM     14  C   UNL     1      -1.170  10.857  18.317  0.00  0.00    +0.000 A 
ATOM     15  C   UNL     1      -2.062  11.773  18.893  0.00  0.00    +0.000 A 
ATOM     16  C   UNL     1      -3.412  11.778  18.525  0.00  0.00    +0.000 A 
ATOM     17  C   UNL     1      -3.892  10.881  17.569  0.00  0.00    +0.000 A 
ATOM     18  C   UNL     1      -3.020   9.952  17.006  0.00  0.00    +0.000 A 
ATOM     19  C   UNL     1      -1.668   9.939  17.379  0.00  0.00    +0.000 A 
BRANCH  17  20
ATOM     20  O   UNL     1      -5.232  10.975  17.304  0.00  0.00    +0.000 OA
ATOM     21  C   UNL     1      -5.770  12.292  17.296  0.00  0.00    +0.000 C 
ENDBRANCH  17  20
ENDBRANCH  13  14
ENDBRANCH  12  13
ENDBRANCH   4  12
TORSDOF 8
ENDMDL
