MODEL 1
REMARK VINA RESULT:      -9.1      0.000      0.000
REMARK  Name = 
REMARK  6 active torsions:
REMARK  status: ('A' for Active; 'I' for Inactive)
REMARK    1  A    between atoms: C_2  and  C_3
REMARK    2  A    between atoms: C_6  and  N_7
REMARK    3  A    between atoms: N_7  and  C_8
REMARK    4  A    between atoms: C_9  and  O_10
REMARK    5  A    between atoms: O_10  and  C_11
REMARK    6  A    between atoms: N_19  and  C_20
REMARK                            x       y       z     vdW  Elec       q    Type
REMARK                         _______ _______ _______ _____ _____    ______ ____
ROOT
ATOM      1  C   UNL     1       0.229  11.562  20.016  0.00  0.00    +0.000 A 
ATOM      2  C   UNL     1      -0.836  11.749  19.217  0.00  0.00    +0.000 A 
ATOM      3  C   UNL     1      -0.943  13.076  18.586  0.00  0.00    +0.000 A 
ATOM      4  N   UNL     1      -0.042  13.995  18.571  0.00  0.00    +0.000 NA
ATOM      5  N   UNL     1       1.142  13.730  19.219  0.00  0.00    +0.000 N 
ATOM      6  C   UNL     1       1.335  12.601  20.016  0.00  0.00    +0.000 A 
ATOM      7  O   UNL     1       2.316  12.374  20.730  0.00  0.00    +0.000 OA
ENDROOT
BRANCH   5   8
ATOM      8  C   UNL     1       2.131  14.749  19.042  0.00  0.00    +0.000 A 
ATOM      9  C   UNL     1       2.227  15.855  19.897  0.00  0.00    +0.000 A 
ATOM     10  C   UNL     1       3.222  16.823  19.713  0.00  0.00    +0.000 A 
ATOM     11  C   UNL     1       4.124  16.709  18.657  0.00  0.00    +0.000 A 
ATOM     12  C   UNL     1       4.045  15.619  17.798  0.00  0.00    +0.000 A 
ATOM     13  C   UNL     1       3.067  14.642  17.998  0.00  0.00    +0.000 A 
ENDBRANCH   5   8
BRANCH   1  14
ATOM     14  N   UNL     1       0.448  10.463  20.869  0.00  0.00    +0.000 N 
ATOM     15  H   UNL     1       1.116  10.775  21.589  0.00  0.00    +0.000 HD
BRANCH  14  19
ATOM     16  C   UNL     1       2.343   6.967  19.437  0.00  0.00    +0.000 A 
ATOM     17  C   UNL     1       1.825   6.983  20.734  0.00  0.00    +0.000 A 
ATOM     18  C   UNL     1       1.224   8.139  21.230  0.00  0.00    +0.000 A 
ATOM     19  C   UNL     1       1.024   9.244  20.400  0.00  0.00    +0.000 A 
ATOM     20  C   UNL     1       1.413   9.158  19.051  0.00  0.00    +0.000 A 
ATOM     21  C   UNL     1       2.076   8.025  18.568  0.00  0.00    +0.000 A 
BRANCH  16  23
ATOM     22  O   UNL     1       4.316   6.157  18.486  0.00  0.00    +0.000 OA
ATOM     23  C   UNL     1       3.239   5.864  18.998  0.00  0.00    +0.000 C 
ATOM     24  N   UNL     1       2.813   4.550  19.216  0.00  0.00    +0.000 N 
ATOM     25  C   UNL     1       3.646   3.441  18.761  0.00  0.00    +0.000 C 
ATOM     26  C   UNL     1       2.811   2.352  18.078  0.00  0.00    +0.000 C 
ATOM     27  C   UNL     1       1.561   1.966  18.876  0.00  0.00    +0.000 C 
ATOM     28  C   UNL     1       0.778   3.203  19.310  0.00  0.00    +0.000 C 
ATOM     29  C   UNL     1       1.700   4.137  20.081  0.00  0.00    +0.000 C 
ENDBRANCH  16  23
ENDBRANCH  14  19
ENDBRANCH   1  14
BRANCH   2  30
ATOM     30  O   UNL     1      -1.861  10.819  19.078  0.00  0.00    +0.000 OA
BRANCH  30  31
ATOM     31  C   UNL     1      -2.496  10.717  17.855  0.00  0.00    +0.000 A 
ATOM     32  C   UNL     1      -1.986   9.969  16.787  0.00  0.00    +0.000 A 
ATOM     33  C   UNL     1      -2.678   9.914  15.574  0.00  0.00    +0.000 A 
ATOM     34  C   UNL     1      -3.896  10.573  15.434  0.00  0.00    +0.000 A 
ATOM     35  C   UNL     1      -4.421  11.295  16.506  0.00  0.00    +0.000 A 
ATOM     36  C   UNL     1      -3.723  11.368  17.715  0.00  0.00    +0.000 A 
ENDBRANCH  30  31
ENDBRANCH   2  30
TORSDOF 6
ENDMDL
MODEL 2
REMARK VINA RESULT:      -9.1      1.276      1.828
REMARK  Name = 
REMARK  6 active torsions:
REMARK  status: ('A' for Active; 'I' for Inactive)
REMARK    1  A    between atoms: C_2  and  C_3
REMARK    2  A    between atoms: C_6  and  N_7
REMARK    3  A    between atoms: N_7  and  C_8
REMARK    4  A    between atoms: C_9  and  O_10
REMARK    5  A    between atoms: O_10  and  C_11
REMARK    6  A    between atoms: N_19  and  C_20
REMARK                            x       y       z     vdW  Elec       q    Type
REMARK                         _______ _______ _______ _____ _____    ______ ____
ROOT
ATOM      1  C   UNL     1       0.755  11.051  18.522  0.00  0.00    +0.000 A 
ATOM      2  C   UNL     1      -0.379  11.259  19.214  0.00  0.00    +0.000 A 
ATOM      3  C   UNL     1      -0.358  12.386  20.163  0.00  0.00    +0.000 A 
ATOM      4  N   UNL     1       0.553  13.290  20.263  0.00  0.00    +0.000 NA
ATOM      5  N   UNL     1       1.629  13.200  19.411  0.00  0.00    +0.000 N 
ATOM      6  C   UNL     1       1.851  12.100  18.582  0.00  0.00    +0.000 A 
ATOM      7  O   UNL     1       2.860  11.894  17.901  0.00  0.00    +0.000 OA
ENDROOT
BRANCH   5   8
ATOM      8  C   UNL     1       2.524  14.313  19.501  0.00  0.00    +0.000 A 
ATOM      9  C   UNL     1       3.493  14.415  20.508  0.00  0.00    +0.000 A 
ATOM     10  C   UNL     1       4.371  15.505  20.555  0.00  0.00    +0.000 A 
ATOM     11  C   UNL     1       4.279  16.520  19.605  0.00  0.00    +0.000 A 
ATOM     12  C   UNL     1       3.324  16.436  18.598  0.00  0.00    +0.000 A 
ATOM     13  C   UNL     1       2.466  15.337  18.539  0.00  0.00    +0.000 A 
ENDBRANCH   5   8
BRANCH   1  14
ATOM     14  N   UNL     1       1.043   9.939  17.709  0.00  0.00    +0.000 N 
ATOM     15  H   UNL     1       0.145   9.476  17.509  0.00  0.00    +0.000 HD
BRANCH  14  19
ATOM     16  C   UNL     1       3.293   6.628  19.066  0.00  0.00    +0.000 A 
ATOM     17  C   UNL     1       3.610   7.215  17.839  0.00  0.00    +0.000 A 
ATOM     18  C   UNL     1       2.857   8.288  17.365  0.00  0.00    +0.000 A 
ATOM     19  C   UNL     1       1.866   8.863  18.162  0.00  0.00    +0.000 A 
ATOM     20  C   UNL     1       1.662   8.360  19.459  0.00  0.00    +0.000 A 
ATOM     21  C   UNL     1       2.370   7.241  19.912  0.00  0.00    +0.000 A 
BRANCH  16  23
ATOM     22  O   UNL     1       5.070   5.276  19.751  0.00  0.00    +0.000 OA
ATOM     23  C   UNL     1       3.881   5.316  19.447  0.00  0.00    +0.000 C 
ATOM     24  N   UNL     1       3.037   4.201  19.460  0.00  0.00    +0.000 N 
ATOM     25  C   UNL     1       3.587   2.889  19.788  0.00  0.00    +0.000 C 
ATOM     26  C   UNL     1       3.063   1.805  18.839  0.00  0.00    +0.000 C 
ATOM     27  C   UNL     1       1.545   1.863  18.642  0.00  0.00    +0.000 C 
ATOM     28  C   UNL     1       1.083   3.282  18.318  0.00  0.00    +0.000 C 
ATOM     29  C   UNL     1       1.570   4.230  19.406  0.00  0.00    +0.000 C 
ENDBRANCH  16  23
ENDBRANCH  14  19
ENDBRANCH   1  14
BRANCH   2  30
ATOM     30  O   UNL     1      -1.475  10.405  19.160  0.00  0.00    +0.000 OA
BRANCH  30  31
ATOM     31  C   UNL     1      -2.385  10.566  18.132  0.00  0.00    +0.000 A 
ATOM     32  C   UNL     1      -3.451  11.473  18.188  0.00  0.00    +0.000 A 
ATOM     33  C   UNL     1      -4.338  11.581  17.114  0.00  0.00    +0.000 A 
ATOM     34  C   UNL     1      -4.146  10.813  15.968  0.00  0.00    +0.000 A 
ATOM     35  C   UNL     1      -3.068   9.930  15.898  0.00  0.00    +0.000 A 
ATOM     36  C   UNL     1      -2.188   9.806  16.978  0.00  0.00    +0.000 A 
ENDBRANCH  30  31
ENDBRANCH   2  30
TORSDOF 6
ENDMDL
MODEL 3
REMARK VINA RESULT:      -9.1      1.479      1.666
REMARK  Name = 
REMARK  6 active torsions:
REMARK  status: ('A' for Active; 'I' for Inactive)
REMARK    1  A    between atoms: C_2  and  C_3
REMARK    2  A    between atoms: C_6  and  N_7
REMARK    3  A    between atoms: N_7  and  C_8
REMARK    4  A    between atoms: C_9  and  O_10
REMARK    5  A    between atoms: O_10  and  C_11
REMARK    6  A    between atoms: N_19  and  C_20
REMARK                            x       y       z     vdW  Elec       q    Type
REMARK                         _______ _______ _______ _____ _____    ______ ____
ROOT
ATOM      1  C   UNL     1       0.562  11.372  18.945  0.00  0.00    +0.000 A 
ATOM      2  C   UNL     1      -0.680  11.247  19.442  0.00  0.00    +0.000 A 
ATOM      3  C   UNL     1      -1.031  12.166  20.539  0.00  0.00    +0.000 A 
ATOM      4  N   UNL     1      -0.349  13.183  20.937  0.00  0.00    +0.000 NA
ATOM      5  N   UNL     1       0.837  13.440  20.292  0.00  0.00    +0.000 N 
ATOM      6  C   UNL     1       1.400  12.567  19.360  0.00  0.00    +0.000 A 
ATOM      7  O   UNL     1       2.519  12.671  18.850  0.00  0.00    +0.000 OA
ENDROOT
BRANCH   5   8
ATOM      8  C   UNL     1       1.462  14.658  20.710  0.00  0.00    +0.000 A 
ATOM      9  C   UNL     1       2.420  14.695  21.732  0.00  0.00    +0.000 A 
ATOM     10  C   UNL     1       3.033  15.898  22.102  0.00  0.00    +0.000 A 
ATOM     11  C   UNL     1       2.681  17.088  21.467  0.00  0.00    +0.000 A 
ATOM     12  C   UNL     1       1.734  17.072  20.450  0.00  0.00    +0.000 A 
ATOM     13  C   UNL     1       1.142  15.866  20.066  0.00  0.00    +0.000 A 
ENDBRANCH   5   8
BRANCH   1  14
ATOM     14  N   UNL     1       1.189  10.496  18.038  0.00  0.00    +0.000 N 
ATOM     15  H   UNL     1       0.501  10.290  17.300  0.00  0.00    +0.000 HD
BRANCH  14  19
ATOM     16  C   UNL     1       2.733   6.715  19.130  0.00  0.00    +0.000 A 
ATOM     17  C   UNL     1       2.071   7.487  20.088  0.00  0.00    +0.000 A 
ATOM     18  C   UNL     1       1.582   8.749  19.749  0.00  0.00    +0.000 A 
ATOM     19  C   UNL     1       1.640   9.199  18.429  0.00  0.00    +0.000 A 
ATOM     20  C   UNL     1       2.172   8.346  17.445  0.00  0.00    +0.000 A 
ATOM     21  C   UNL     1       2.722   7.107  17.792  0.00  0.00    +0.000 A 
BRANCH  16  23
ATOM     22  O   UNL     1       4.696   5.660  19.829  0.00  0.00    +0.000 OA
ATOM     23  C   UNL     1       3.511   5.515  19.539  0.00  0.00    +0.000 C 
ATOM     24  N   UNL     1       2.841   4.289  19.592  0.00  0.00    +0.000 N 
ATOM     25  C   UNL     1       3.581   3.082  19.948  0.00  0.00    +0.000 C 
ATOM     26  C   UNL     1       3.215   1.907  19.034  0.00  0.00    +0.000 C 
ATOM     27  C   UNL     1       1.703   1.735  18.855  0.00  0.00    +0.000 C 
ATOM     28  C   UNL     1       1.035   3.061  18.499  0.00  0.00    +0.000 C 
ATOM     29  C   UNL     1       1.385   4.100  19.556  0.00  0.00    +0.000 C 
ENDBRANCH  16  23
ENDBRANCH  14  19
ENDBRANCH   1  14
BRANCH   2  30
ATOM     30  O   UNL     1      -1.559  10.238  19.061  0.00  0.00    +0.000 OA
BRANCH  30  31
ATOM     31  C   UNL     1      -2.333  10.430  17.932  0.00  0.00    +0.000 A 
ATOM     32  C   UNL     1      -2.056   9.823  16.701  0.00  0.00    +0.000 A 
ATOM     33  C   UNL     1      -2.877  10.066  15.598  0.00  0.00    +0.000 A 
ATOM     34  C   UNL     1      -3.996  10.884  15.726  0.00  0.00    +0.000 A 
ATOM     35  C   UNL     1      -4.292  11.467  16.959  0.00  0.00    +0.000 A 
ATOM     36  C   UNL     1      -3.462  11.241  18.061  0.00  0.00    +0.000 A 
ENDBRANCH  30  31
ENDBRANCH   2  30
TORSDOF 6
ENDMDL
MODEL 4
REMARK VINA RESULT:      -9.1      1.281      1.706
REMARK  Name = 
REMARK  6 active torsions:
REMARK  status: ('A' for Active; 'I' for Inactive)
REMARK    1  A    between atoms: C_2  and  C_3
REMARK    2  A    between atoms: C_6  and  N_7
REMARK    3  A    between atoms: N_7  and  C_8
REMARK    4  A    between atoms: C_9  and  O_10
REMARK    5  A    between atoms: O_10  and  C_11
REMARK    6  A    between atoms: N_19  and  C_20
REMARK                            x       y       z     vdW  Elec       q    Type
REMARK                         _______ _______ _______ _____ _____    ______ ____
ROOT
ATOM      1  C   UNL     1       0.751  11.075  18.529  0.00  0.00    +0.000 A 
ATOM      2  C   UNL     1      -0.379  11.295  19.224  0.00  0.00    +0.000 A 
ATOM      3  C   UNL     1      -0.345  12.428  20.166  0.00  0.00    +0.000 A 
ATOM      4  N   UNL     1       0.573  13.325  20.256  0.00  0.00    +0.000 NA
ATOM      5  N   UNL     1       1.644  13.222  19.401  0.00  0.00    +0.000 N 
ATOM      6  C   UNL     1       1.855  12.115  18.577  0.00  0.00    +0.000 A 
ATOM      7  O   UNL     1       2.859  11.897  17.893  0.00  0.00    +0.000 OA
ENDROOT
BRANCH   5   8
ATOM      8  C   UNL     1       2.548  14.329  19.479  0.00  0.00    +0.000 A 
ATOM      9  C   UNL     1       2.547  15.365  18.536  0.00  0.00    +0.000 A 
ATOM     10  C   UNL     1       3.427  16.447  18.654  0.00  0.00    +0.000 A 
ATOM     11  C   UNL     1       4.337  16.499  19.708  0.00  0.00    +0.000 A 
ATOM     12  C   UNL     1       4.353  15.481  20.654  0.00  0.00    +0.000 A 
ATOM     13  C   UNL     1       3.458  14.415  20.548  0.00  0.00    +0.000 A 
ENDBRANCH   5   8
BRANCH   1  14
ATOM     14  N   UNL     1       1.026   9.955  17.721  0.00  0.00    +0.000 N 
ATOM     15  H   UNL     1       0.123   9.497  17.530  0.00  0.00    +0.000 HD
BRANCH  14  19
ATOM     16  C   UNL     1       3.263   6.637  19.083  0.00  0.00    +0.000 A 
ATOM     17  C   UNL     1       3.587   7.225  17.859  0.00  0.00    +0.000 A 
ATOM     18  C   UNL     1       2.839   8.301  17.383  0.00  0.00    +0.000 A 
ATOM     19  C   UNL     1       1.845   8.877  18.176  0.00  0.00    +0.000 A 
ATOM     20  C   UNL     1       1.633   8.372  19.472  0.00  0.00    +0.000 A 
ATOM     21  C   UNL     1       2.337   7.251  19.926  0.00  0.00    +0.000 A 
BRANCH  16  23
ATOM     22  O   UNL     1       5.032   5.282  19.783  0.00  0.00    +0.000 OA
ATOM     23  C   UNL     1       3.846   5.323  19.465  0.00  0.00    +0.000 C 
ATOM     24  N   UNL     1       3.002   4.209  19.462  0.00  0.00    +0.000 N 
ATOM     25  C   UNL     1       3.548   2.895  19.791  0.00  0.00    +0.000 C 
ATOM     26  C   UNL     1       3.036   1.816  18.830  0.00  0.00    +0.000 C 
ATOM     27  C   UNL     1       1.520   1.875  18.615  0.00  0.00    +0.000 C 
ATOM     28  C   UNL     1       1.062   3.295  18.293  0.00  0.00    +0.000 C 
ATOM     29  C   UNL     1       1.535   4.238  19.392  0.00  0.00    +0.000 C 
ENDBRANCH  16  23
ENDBRANCH  14  19
ENDBRANCH   1  14
BRANCH   2  30
ATOM     30  O   UNL     1      -1.482  10.450  19.180  0.00  0.00    +0.000 OA
BRANCH  30  31
ATOM     31  C   UNL     1      -2.354  10.560  18.113  0.00  0.00    +0.000 A 
ATOM     32  C   UNL     1      -2.230   9.803  16.942  0.00  0.00    +0.000 A 
ATOM     33  C   UNL     1      -3.145   9.968  15.899  0.00  0.00    +0.000 A 
ATOM     34  C   UNL     1      -4.205  10.861  16.034  0.00  0.00    +0.000 A 
ATOM     35  C   UNL     1      -4.348  11.595  17.212  0.00  0.00    +0.000 A 
ATOM     36  C   UNL     1      -3.425  11.445  18.251  0.00  0.00    +0.000 A 
ENDBRANCH  30  31
ENDBRANCH   2  30
TORSDOF 6
ENDMDL
MODEL 5
REMARK VINA RESULT:      -9.0      1.476      2.305
REMARK  Name = 
REMARK  6 active torsions:
REMARK  status: ('A' for Active; 'I' for Inactive)
REMARK    1  A    between atoms: C_2  and  C_3
REMARK    2  A    between atoms: C_6  and  N_7
REMARK    3  A    between atoms: N_7  and  C_8
REMARK    4  A    between atoms: C_9  and  O_10
REMARK    5  A    between atoms: O_10  and  C_11
REMARK    6  A    between atoms: N_19  and  C_20
REMARK                            x       y       z     vdW  Elec       q    Type
REMARK                         _______ _______ _______ _____ _____    ______ ____
ROOT
ATOM      1  C   UNL     1       0.187  11.432  20.004  0.00  0.00    +0.000 A 
ATOM      2  C   UNL     1      -0.956  11.709  19.352  0.00  0.00    +0.000 A 
ATOM      3  C   UNL     1      -1.158  13.120  18.976  0.00  0.00    +0.000 A 
ATOM      4  N   UNL     1      -0.286  14.064  19.040  0.00  0.00    +0.000 NA
ATOM      5  N   UNL     1       0.962  13.741  19.519  0.00  0.00    +0.000 N 
ATOM      6  C   UNL     1       1.261  12.501  20.085  0.00  0.00    +0.000 A 
ATOM      7  O   UNL     1       2.313  12.196  20.654  0.00  0.00    +0.000 OA
ENDROOT
BRANCH   5   8
ATOM      8  C   UNL     1       1.903  14.816  19.434  0.00  0.00    +0.000 A 
ATOM      9  C   UNL     1       2.017  15.793  20.433  0.00  0.00    +0.000 A 
ATOM     10  C   UNL     1       2.964  16.818  20.332  0.00  0.00    +0.000 A 
ATOM     11  C   UNL     1       3.800  16.894  19.220  0.00  0.00    +0.000 A 
ATOM     12  C   UNL     1       3.703  15.934  18.219  0.00  0.00    +0.000 A 
ATOM     13  C   UNL     1       2.773  14.898  18.333  0.00  0.00    +0.000 A 
ENDBRANCH   5   8
BRANCH   1  14
ATOM     14  N   UNL     1       0.515  10.213  20.627  0.00  0.00    +0.000 N 
ATOM     15  H   UNL     1       1.147  10.440  21.409  0.00  0.00    +0.000 HD
BRANCH  14  19
ATOM     16  C   UNL     1       2.416   7.002  18.641  0.00  0.00    +0.000 A 
ATOM     17  C   UNL     1       2.138   8.175  17.936  0.00  0.00    +0.000 A 
ATOM     18  C   UNL     1       1.486   9.231  18.570  0.00  0.00    +0.000 A 
ATOM     19  C   UNL     1       1.215   9.176  19.938  0.00  0.00    +0.000 A 
ATOM     20  C   UNL     1       1.638   8.050  20.669  0.00  0.00    +0.000 A 
ATOM     21  C   UNL     1       2.234   6.962  20.023  0.00  0.00    +0.000 A 
BRANCH  16  23
ATOM     22  O   UNL     1       2.061   4.818  17.894  0.00  0.00    +0.000 OA
ATOM     23  C   UNL     1       2.835   5.771  17.919  0.00  0.00    +0.000 C 
ATOM     24  N   UNL     1       4.082   5.779  17.286  0.00  0.00    +0.000 N 
ATOM     25  C   UNL     1       4.546   4.575  16.602  0.00  0.00    +0.000 C 
ATOM     26  C   UNL     1       6.019   4.283  16.912  0.00  0.00    +0.000 C 
ATOM     27  C   UNL     1       6.916   5.518  16.775  0.00  0.00    +0.000 C 
ATOM     28  C   UNL     1       6.326   6.715  17.516  0.00  0.00    +0.000 C 
ATOM     29  C   UNL     1       4.907   6.964  17.020  0.00  0.00    +0.000 C 
ENDBRANCH  16  23
ENDBRANCH  14  19
ENDBRANCH   1  14
BRANCH   2  30
ATOM     30  O   UNL     1      -1.966  10.775  19.146  0.00  0.00    +0.000 OA
BRANCH  30  31
ATOM     31  C   UNL     1      -2.533  10.684  17.889  0.00  0.00    +0.000 A 
ATOM     32  C   UNL     1      -1.963   9.947  16.844  0.00  0.00    +0.000 A 
ATOM     33  C   UNL     1      -2.586   9.903  15.595  0.00  0.00    +0.000 A 
ATOM     34  C   UNL     1      -3.798  10.560  15.394  0.00  0.00    +0.000 A 
ATOM     35  C   UNL     1      -4.383  11.270  16.443  0.00  0.00    +0.000 A 
ATOM     36  C   UNL     1      -3.753  11.333  17.689  0.00  0.00    +0.000 A 
ENDBRANCH  30  31
ENDBRANCH   2  30
TORSDOF 6
ENDMDL
MODEL 6
REMARK VINA RESULT:      -9.0      1.402      2.024
REMARK  Name = 
REMARK  6 active torsions:
REMARK  status: ('A' for Active; 'I' for Inactive)
REMARK    1  A    between atoms: C_2  and  C_3
REMARK    2  A    between atoms: C_6  and  N_7
REMARK    3  A    between atoms: N_7  and  C_8
REMARK    4  A    between atoms: C_9  and  O_10
REMARK    5  A    between atoms: O_10  and  C_11
REMARK    6  A    between atoms: N_19  and  C_20
REMARK                            x       y       z     vdW  Elec       q    Type
REMARK                         _______ _______ _______ _____ _____    ______ ____
ROOT
ATOM      1  C   UNL     1       0.703  11.389  18.712  0.00  0.00    +0.000 A 
ATOM      2  C   UNL     1      -0.537  11.436  19.228  0.00  0.00    +0.000 A 
ATOM      3  C   UNL     1      -0.805  12.543  20.164  0.00  0.00    +0.000 A 
ATOM      4  N   UNL     1      -0.047  13.558  20.390  0.00  0.00    +0.000 NA
ATOM      5  N   UNL     1       1.144  13.622  19.706  0.00  0.00    +0.000 N 
ATOM      6  C   UNL     1       1.629  12.572  18.925  0.00  0.00    +0.000 A 
ATOM      7  O   UNL     1       2.745  12.511  18.400  0.00  0.00    +0.000 OA
ENDROOT
BRANCH   5   8
ATOM      8  C   UNL     1       1.860  14.843  19.919  0.00  0.00    +0.000 A 
ATOM      9  C   UNL     1       1.821  15.903  19.003  0.00  0.00    +0.000 A 
ATOM     10  C   UNL     1       2.513  17.094  19.251  0.00  0.00    +0.000 A 
ATOM     11  C   UNL     1       3.272  17.236  20.412  0.00  0.00    +0.000 A 
ATOM     12  C   UNL     1       3.323  16.195  21.332  0.00  0.00    +0.000 A 
ATOM     13  C   UNL     1       2.612  15.017  21.094  0.00  0.00    +0.000 A 
ENDBRANCH   5   8
BRANCH   1  14
ATOM     14  N   UNL     1       1.251  10.335  17.957  0.00  0.00    +0.000 N 
ATOM     15  H   UNL     1       0.528  10.044  17.284  0.00  0.00    +0.000 HD
BRANCH  14  19
ATOM     16  C   UNL     1       2.211   6.633  19.756  0.00  0.00    +0.000 A 
ATOM     17  C   UNL     1       2.704   6.924  18.482  0.00  0.00    +0.000 A 
ATOM     18  C   UNL     1       2.371   8.128  17.864  0.00  0.00    +0.000 A 
ATOM     19  C   UNL     1       1.650   9.102  18.556  0.00  0.00    +0.000 A 
ATOM     20  C   UNL     1       1.291   8.858  19.895  0.00  0.00    +0.000 A 
ATOM     21  C   UNL     1       1.567   7.625  20.495  0.00  0.00    +0.000 A 
BRANCH  16  23
ATOM     22  O   UNL     1       2.489   5.116  21.510  0.00  0.00    +0.000 OA
ATOM     23  C   UNL     1       2.306   5.253  20.303  0.00  0.00    +0.000 C 
ATOM     24  N   UNL     1       2.156   4.186  19.412  0.00  0.00    +0.000 N 
ATOM     25  C   UNL     1       2.284   2.817  19.905  0.00  0.00    +0.000 C 
ATOM     26  C   UNL     1       3.126   1.954  18.958  0.00  0.00    +0.000 C 
ATOM     27  C   UNL     1       2.716   2.100  17.489  0.00  0.00    +0.000 C 
ATOM     28  C   UNL     1       2.600   3.570  17.091  0.00  0.00    +0.000 C 
ATOM     29  C   UNL     1       1.640   4.274  18.040  0.00  0.00    +0.000 C 
ENDBRANCH  16  23
ENDBRANCH  14  19
ENDBRANCH   1  14
BRANCH   2  30
ATOM     30  O   UNL     1      -1.491  10.445  19.019  0.00  0.00    +0.000 OA
BRANCH  30  31
ATOM     31  C   UNL     1      -2.338  10.564  17.934  0.00  0.00    +0.000 A 
ATOM     32  C   UNL     1      -3.452  11.413  17.921  0.00  0.00    +0.000 A 
ATOM     33  C   UNL     1      -4.270  11.481  16.791  0.00  0.00    +0.000 A 
ATOM     34  C   UNL     1      -3.961  10.732  15.658  0.00  0.00    +0.000 A 
ATOM     35  C   UNL     1      -2.834   9.908  15.657  0.00  0.00    +0.000 A 
ATOM     36  C   UNL     1      -2.024   9.824  16.792  0.00  0.00    +0.000 A 
ENDBRANCH  30  31
ENDBRANCH   2  30
TORSDOF 6
ENDMDL
MODEL 7
REMARK VINA RESULT:      -8.9      1.370      1.737
REMARK  Name = 
REMARK  6 active torsions:
REMARK  status: ('A' for Active; 'I' for Inactive)
REMARK    1  A    between atoms: C_2  and  C_3
REMARK    2  A    between atoms: C_6  and  N_7
REMARK    3  A    between atoms: N_7  and  C_8
REMARK    4  A    between atoms: C_9  and  O_10
REMARK    5  A    between atoms: O_10  and  C_11
REMARK    6  A    between atoms: N_19  and  C_20
REMARK                            x       y       z     vdW  Elec       q    Type
REMARK                         _______ _______ _______ _____ _____    ______ ____
ROOT
ATOM      1  C   UNL     1       0.852  11.339  18.646  0.00  0.00    +0.000 A 
ATOM      2  C   UNL     1      -0.351  11.474  19.231  0.00  0.00    +0.000 A 
ATOM      3  C   UNL     1      -0.501  12.627  20.137  0.00  0.00    +0.000 A 
ATOM      4  N   UNL     1       0.323  13.605  20.279  0.00  0.00    +0.000 NA
ATOM      5  N   UNL     1       1.472  13.577  19.525  0.00  0.00    +0.000 N 
ATOM      6  C   UNL     1       1.852  12.474  18.759  0.00  0.00    +0.000 A 
ATOM      7  O   UNL     1       2.930  12.332  18.173  0.00  0.00    +0.000 OA
ENDROOT
BRANCH   5   8
ATOM      8  C   UNL     1       2.266  14.762  19.649  0.00  0.00    +0.000 A 
ATOM      9  C   UNL     1       3.111  14.986  20.745  0.00  0.00    +0.000 A 
ATOM     10  C   UNL     1       3.893  16.144  20.825  0.00  0.00    +0.000 A 
ATOM     11  C   UNL     1       3.828  17.106  19.819  0.00  0.00    +0.000 A 
ATOM     12  C   UNL     1       2.996  16.902  18.724  0.00  0.00    +0.000 A 
ATOM     13  C   UNL     1       2.234  15.734  18.634  0.00  0.00    +0.000 A 
ENDBRANCH   5   8
BRANCH   1  14
ATOM     14  N   UNL     1       1.296  10.230  17.901  0.00  0.00    +0.000 N 
ATOM     15  H   UNL     1       0.507   9.935  17.308  0.00  0.00    +0.000 HD
BRANCH  14  19
ATOM     16  C   UNL     1       2.282   6.566  19.764  0.00  0.00    +0.000 A 
ATOM     17  C   UNL     1       2.844   6.877  18.524  0.00  0.00    +0.000 A 
ATOM     18  C   UNL     1       2.505   8.068  17.884  0.00  0.00    +0.000 A 
ATOM     19  C   UNL     1       1.703   9.012  18.527  0.00  0.00    +0.000 A 
ATOM     20  C   UNL     1       1.268   8.753  19.840  0.00  0.00    +0.000 A 
ATOM     21  C   UNL     1       1.552   7.530  20.458  0.00  0.00    +0.000 A 
BRANCH  16  23
ATOM     22  O   UNL     1       2.627   5.062  21.517  0.00  0.00    +0.000 OA
ATOM     23  C   UNL     1       2.394   5.190  20.318  0.00  0.00    +0.000 C 
ATOM     24  N   UNL     1       2.205   4.116  19.442  0.00  0.00    +0.000 N 
ATOM     25  C   UNL     1       2.348   2.751  19.940  0.00  0.00    +0.000 C 
ATOM     26  C   UNL     1       3.148   1.878  18.967  0.00  0.00    +0.000 C 
ATOM     27  C   UNL     1       2.679   2.013  17.515  0.00  0.00    +0.000 C 
ATOM     28  C   UNL     1       2.551   3.480  17.110  0.00  0.00    +0.000 C 
ATOM     29  C   UNL     1       1.633   4.195  18.092  0.00  0.00    +0.000 C 
ENDBRANCH  16  23
ENDBRANCH  14  19
ENDBRANCH   1  14
BRANCH   2  30
ATOM     30  O   UNL     1      -1.368  10.532  19.116  0.00  0.00    +0.000 OA
BRANCH  30  31
ATOM     31  C   UNL     1      -2.208  10.600  18.021  0.00  0.00    +0.000 A 
ATOM     32  C   UNL     1      -2.016   9.841  16.860  0.00  0.00    +0.000 A 
ATOM     33  C   UNL     1      -2.902   9.963  15.787  0.00  0.00    +0.000 A 
ATOM     34  C   UNL     1      -4.000  10.815  15.880  0.00  0.00    +0.000 A 
ATOM     35  C   UNL     1      -4.210  11.550  17.047  0.00  0.00    +0.000 A 
ATOM     36  C   UNL     1      -3.316  11.444  18.116  0.00  0.00    +0.000 A 
ENDBRANCH  30  31
ENDBRANCH   2  30
TORSDOF 6
ENDMDL
MODEL 8
REMARK VINA RESULT:      -8.9      1.566      2.647
REMARK  Name = 
REMARK  6 active torsions:
REMARK  status: ('A' for Active; 'I' for Inactive)
REMARK    1  A    between atoms: C_2  and  C_3
REMARK    2  A    between atoms: C_6  and  N_7
REMARK    3  A    between atoms: N_7  and  C_8
REMARK    4  A    between atoms: C_9  and  O_10
REMARK    5  A    between atoms: O_10  and  C_11
REMARK    6  A    between atoms: N_19  and  C_20
REMARK                            x       y       z     vdW  Elec       q    Type
REMARK                         _______ _______ _______ _____ _____    ______ ____
ROOT
ATOM      1  C   UNL     1       0.156  11.272  20.054  0.00  0.00    +0.000 A 
ATOM      2  C   UNL     1      -0.947  11.446  19.306  0.00  0.00    +0.000 A 
ATOM      3  C   UNL     1      -1.270  12.838  18.948  0.00  0.00    +0.000 A 
ATOM      4  N   UNL     1      -0.518  13.869  19.116  0.00  0.00    +0.000 NA
ATOM      5  N   UNL     1       0.710  13.667  19.700  0.00  0.00    +0.000 N 
ATOM      6  C   UNL     1       1.093  12.448  20.260  0.00  0.00    +0.000 A 
ATOM      7  O   UNL     1       2.117  12.239  20.917  0.00  0.00    +0.000 OA
ENDROOT
BRANCH   5   8
ATOM      8  C   UNL     1       1.529  14.840  19.729  0.00  0.00    +0.000 A 
ATOM      9  C   UNL     1       2.807  14.875  19.155  0.00  0.00    +0.000 A 
ATOM     10  C   UNL     1       3.575  16.045  19.178  0.00  0.00    +0.000 A 
ATOM     11  C   UNL     1       3.083  17.195  19.793  0.00  0.00    +0.000 A 
ATOM     12  C   UNL     1       1.817  17.180  20.367  0.00  0.00    +0.000 A 
ATOM     13  C   UNL     1       1.043  16.019  20.322  0.00  0.00    +0.000 A 
ENDBRANCH   5   8
BRANCH   1  14
ATOM     14  N   UNL     1       0.562  10.075  20.675  0.00  0.00    +0.000 N 
ATOM     15  H   UNL     1       1.220  10.337  21.423  0.00  0.00    +0.000 HD
BRANCH  14  19
ATOM     16  C   UNL     1       2.483   6.917  18.624  0.00  0.00    +0.000 A 
ATOM     17  C   UNL     1       2.205   8.106  17.945  0.00  0.00    +0.000 A 
ATOM     18  C   UNL     1       1.545   9.145  18.600  0.00  0.00    +0.000 A 
ATOM     19  C   UNL     1       1.268   9.056  19.966  0.00  0.00    +0.000 A 
ATOM     20  C   UNL     1       1.692   7.916  20.672  0.00  0.00    +0.000 A 
ATOM     21  C   UNL     1       2.295   6.845  20.004  0.00  0.00    +0.000 A 
BRANCH  16  23
ATOM     22  O   UNL     1       2.157   4.735  17.859  0.00  0.00    +0.000 OA
ATOM     23  C   UNL     1       2.910   5.705  17.875  0.00  0.00    +0.000 C 
ATOM     24  N   UNL     1       4.139   5.748  17.209  0.00  0.00    +0.000 N 
ATOM     25  C   UNL     1       4.611   4.564  16.498  0.00  0.00    +0.000 C 
ATOM     26  C   UNL     1       6.098   4.302  16.765  0.00  0.00    +0.000 C 
ATOM     27  C   UNL     1       6.963   5.558  16.620  0.00  0.00    +0.000 C 
ATOM     28  C   UNL     1       6.367   6.732  17.392  0.00  0.00    +0.000 C 
ATOM     29  C   UNL     1       4.930   6.955  16.937  0.00  0.00    +0.000 C 
ENDBRANCH  16  23
ENDBRANCH  14  19
ENDBRANCH   1  14
BRANCH   2  30
ATOM     30  O   UNL     1      -1.824  10.415  18.985  0.00  0.00    +0.000 OA
BRANCH  30  31
ATOM     31  C   UNL     1      -2.545  10.506  17.809  0.00  0.00    +0.000 A 
ATOM     32  C   UNL     1      -3.782  11.156  17.717  0.00  0.00    +0.000 A 
ATOM     33  C   UNL     1      -4.460  11.205  16.497  0.00  0.00    +0.000 A 
ATOM     34  C   UNL     1      -3.892  10.640  15.358  0.00  0.00    +0.000 A 
ATOM     35  C   UNL     1      -2.646  10.018  15.440  0.00  0.00    +0.000 A 
ATOM     36  C   UNL     1      -1.973   9.950  16.663  0.00  0.00    +0.000 A 
ENDBRANCH  30  31
ENDBRANCH   2  30
TORSDOF 6
ENDMDL
MODEL 9
REMARK VINA RESULT:      -8.8      0.629      1.332
REMARK  Name = 
REMARK  6 active torsions:
REMARK  status: ('A' for Active; 'I' for Inactive)
REMARK    1  A    between atoms: C_2  and  C_3
REMARK    2  A    between atoms: C_6  and  N_7
REMARK    3  A    between atoms: N_7  and  C_8
REMARK    4  A    between atoms: C_9  and  O_10
REMARK    5  A    between atoms: O_10  and  C_11
REMARK    6  A    between atoms: N_19  and  C_20
REMARK                            x       y       z     vdW  Elec       q    Type
REMARK                         _______ _______ _______ _____ _____    ______ ____
ROOT
ATOM      1  C   UNL     1      -0.043  11.409  20.083  0.00  0.00    +0.000 A 
ATOM      2  C   UNL     1      -1.155  11.659  19.370  0.00  0.00    +0.000 A 
ATOM      3  C   UNL     1      -1.379  13.068  19.000  0.00  0.00    +0.000 A 
ATOM      4  N   UNL     1      -0.543  14.038  19.125  0.00  0.00    +0.000 NA
ATOM      5  N   UNL     1       0.685  13.747  19.672  0.00  0.00    +0.000 N 
ATOM      6  C   UNL     1       0.990  12.509  20.239  0.00  0.00    +0.000 A 
ATOM      7  O   UNL     1       2.017  12.229  20.864  0.00  0.00    +0.000 OA
ENDROOT
BRANCH   5   8
ATOM      8  C   UNL     1       1.595  14.852  19.654  0.00  0.00    +0.000 A 
ATOM      9  C   UNL     1       2.482  15.074  18.592  0.00  0.00    +0.000 A 
ATOM     10  C   UNL     1       3.343  16.177  18.592  0.00  0.00    +0.000 A 
ATOM     11  C   UNL     1       3.343  17.067  19.665  0.00  0.00    +0.000 A 
ATOM     12  C   UNL     1       2.469  16.865  20.727  0.00  0.00    +0.000 A 
ATOM     13  C   UNL     1       1.594  15.776  20.713  0.00  0.00    +0.000 A 
ENDBRANCH   5   8
BRANCH   1  14
ATOM     14  N   UNL     1       0.288  10.192  20.709  0.00  0.00    +0.000 N 
ATOM     15  H   UNL     1       0.834  10.430  21.550  0.00  0.00    +0.000 HD
BRANCH  14  19
ATOM     16  C   UNL     1       2.521   7.123  18.849  0.00  0.00    +0.000 A 
ATOM     17  C   UNL     1       2.220   8.283  18.131  0.00  0.00    +0.000 A 
ATOM     18  C   UNL     1       1.459   9.290  18.722  0.00  0.00    +0.000 A 
ATOM     19  C   UNL     1       1.098   9.206  20.067  0.00  0.00    +0.000 A 
ATOM     20  C   UNL     1       1.540   8.104  20.821  0.00  0.00    +0.000 A 
ATOM     21  C   UNL     1       2.247   7.060  20.214  0.00  0.00    +0.000 A 
BRANCH  16  23
ATOM     22  O   UNL     1       3.792   6.102  17.177  0.00  0.00    +0.000 OA
ATOM     23  C   UNL     1       3.067   5.927  18.153  0.00  0.00    +0.000 C 
ATOM     24  N   UNL     1       2.741   4.668  18.665  0.00  0.00    +0.000 N 
ATOM     25  C   UNL     1       3.224   3.469  17.984  0.00  0.00    +0.000 C 
ATOM     26  C   UNL     1       2.126   2.406  17.868  0.00  0.00    +0.000 C 
ATOM     27  C   UNL     1       1.377   2.171  19.184  0.00  0.00    +0.000 C 
ATOM     28  C   UNL     1       0.934   3.491  19.811  0.00  0.00    +0.000 C 
ATOM     29  C   UNL     1       2.144   4.400  19.980  0.00  0.00    +0.000 C 
ENDBRANCH  16  23
ENDBRANCH  14  19
ENDBRANCH   1  14
BRANCH   2  30
ATOM     30  O   UNL     1      -2.121  10.697  19.095  0.00  0.00    +0.000 OA
BRANCH  30  31
ATOM     31  C   UNL     1      -2.640  10.631  17.816  0.00  0.00    +0.000 A 
ATOM     32  C   UNL     1      -2.017   9.938  16.771  0.00  0.00    +0.000 A 
ATOM     33  C   UNL     1      -2.594   9.917  15.499  0.00  0.00    +0.000 A 
ATOM     34  C   UNL     1      -3.811  10.556  15.273  0.00  0.00    +0.000 A 
ATOM     35  C   UNL     1      -4.448  11.223  16.320  0.00  0.00    +0.000 A 
ATOM     36  C   UNL     1      -3.865  11.261  17.589  0.00  0.00    +0.000 A 
ENDBRANCH  30  31
ENDBRANCH   2  30
TORSDOF 6
ENDMDL
