MODEL 1
REMARK VINA RESULT:      -6.4      0.000      0.000
REMARK  Name = 
REMARK  12 active torsions:
REMARK  status: ('A' for Active; 'I' for Inactive)
REMARK    1  A    between atoms: C_1  and  C_2
REMARK    2  A    between atoms: C_2  and  C_14
REMARK    3  A    between atoms: N_3  and  O_4
REMARK    4  A    between atoms: O_4  and  C_5
REMARK    5  A    between atoms: C_5  and  C_6
REMARK    6  A    between atoms: C_6  and  O_7
REMARK    7  A    between atoms: C_6  and  C_8
REMARK    8  A    between atoms: C_8  and  N_9
REMARK    9  A    between atoms: N_9  and  C_10
REMARK   10  A    between atoms: C_10  and  C_11
REMARK   11  A    between atoms: C_10  and  C_12
REMARK   12  A    between atoms: C_10  and  C_13
REMARK                            x       y       z     vdW  Elec       q    Type
REMARK                         _______ _______ _______ _____ _____    ______ ____
ROOT
ATOM      1  O   UNL     1       4.784   3.768  17.217  0.00  0.00    +0.000 OA
ENDROOT
BRANCH   1   4
ATOM      2  C   UNL     1       2.173   3.983  17.531  0.00  0.00    +0.000 C 
ATOM      3  C   UNL     1       3.150   5.044  18.018  0.00  0.00    +0.000 C 
ATOM      4  N   UNL     1       4.438   4.922  17.922  0.00  0.00    +0.000 NA
BRANCH   3   5
ATOM      5  C   UNL     1       2.574   6.237  18.705  0.00  0.00    +0.000 A 
ATOM      6  C   UNL     1       2.450   7.426  17.958  0.00  0.00    +0.000 A 
ATOM      7  C   UNL     1       1.924   8.582  18.533  0.00  0.00    +0.000 A 
ATOM      8  C   UNL     1       1.506   8.561  19.857  0.00  0.00    +0.000 A 
ATOM      9 CL   UNL     1       0.867   9.991  20.567  0.00  0.00    +0.000 Cl
ATOM     10  C   UNL     1       1.604   7.394  20.612  0.00  0.00    +0.000 A 
ATOM     11  C   UNL     1       2.138   6.231  20.043  0.00  0.00    +0.000 A 
ATOM     12 CL   UNL     1       2.273   4.860  21.088  0.00  0.00    +0.000 Cl
ENDBRANCH   3   5
ENDBRANCH   1   4
BRANCH   1  13
ATOM     13  C   UNL     1       6.036   3.972  16.562  0.00  0.00    +0.000 C 
BRANCH  13  14
ATOM     14  C   UNL     1       5.811   4.959  15.419  0.00  0.00    +0.000 C 
BRANCH  14  15
ATOM     15  O   UNL     1       6.152   6.288  15.859  0.00  0.00    +0.000 OA
ATOM     16  H   UNL     1       5.380   6.610  16.358  0.00  0.00    +0.000 HD
ENDBRANCH  14  15
BRANCH  14  17
ATOM     17  C   UNL     1       6.654   4.634  14.171  0.00  0.00    +0.000 C 
BRANCH  17  18
ATOM     18  N   UNL     1       6.316   3.331  13.588  0.00  0.00    +0.000 NA
ATOM     19  H   UNL     1       5.450   2.992  14.007  0.00  0.00    +0.000 HD
BRANCH  18  20
ATOM     20  C   UNL     1       6.189   3.308  12.119  0.00  0.00    +0.000 C 
ATOM     21  C   UNL     1       7.121   4.328  11.445  0.00  0.00    +0.000 C 
ATOM     22  C   UNL     1       6.610   1.897  11.657  0.00  0.00    +0.000 C 
ATOM     23  C   UNL     1       4.733   3.545  11.682  0.00  0.00    +0.000 C 
ENDBRANCH  18  20
ENDBRANCH  17  18
ENDBRANCH  14  17
ENDBRANCH  13  14
ENDBRANCH   1  13
TORSDOF 8
ENDMDL
MODEL 2
REMARK VINA RESULT:      -6.2      2.258      3.325
REMARK  Name = 
REMARK  12 active torsions:
REMARK  status: ('A' for Active; 'I' for Inactive)
REMARK    1  A    between atoms: C_1  and  C_2
REMARK    2  A    between atoms: C_2  and  C_14
REMARK    3  A    between atoms: N_3  and  O_4
REMARK    4  A    between atoms: O_4  and  C_5
REMARK    5  A    between atoms: C_5  and  C_6
REMARK    6  A    between atoms: C_6  and  O_7
REMARK    7  A    between atoms: C_6  and  C_8
REMARK    8  A    between atoms: C_8  and  N_9
REMARK    9  A    between atoms: N_9  and  C_10
REMARK   10  A    between atoms: C_10  and  C_11
REMARK   11  A    between atoms: C_10  and  C_12
REMARK   12  A    between atoms: C_10  and  C_13
REMARK                            x       y       z     vdW  Elec       q    Type
REMARK                         _______ _______ _______ _____ _____    ______ ____
ROOT
ATOM      1  O   UNL     1       4.860   6.115  16.288  0.00  0.00    +0.000 OA
ENDROOT
BRANCH   1   4
ATOM      2  C   UNL     1       2.920   7.032  17.825  0.00  0.00    +0.000 C 
ATOM      3  C   UNL     1       3.470   5.619  17.950  0.00  0.00    +0.000 C 
ATOM      4  N   UNL     1       4.382   5.137  17.163  0.00  0.00    +0.000 NA
BRANCH   3   5
ATOM      5  C   UNL     1       2.859   4.740  18.990  0.00  0.00    +0.000 A 
ATOM      6  C   UNL     1       2.745   5.252  20.297  0.00  0.00    +0.000 A 
ATOM      7  C   UNL     1       2.187   4.488  21.321  0.00  0.00    +0.000 A 
ATOM      8  C   UNL     1       1.727   3.206  21.049  0.00  0.00    +0.000 A 
ATOM      9 CL   UNL     1       1.049   2.262  22.316  0.00  0.00    +0.000 Cl
ATOM     10  C   UNL     1       1.814   2.682  19.760  0.00  0.00    +0.000 A 
ATOM     11  C   UNL     1       2.379   3.442  18.729  0.00  0.00    +0.000 A 
ATOM     12 CL   UNL     1       2.496   2.670  17.186  0.00  0.00    +0.000 Cl
ENDBRANCH   3   5
ENDBRANCH   1   4
BRANCH   1  13
ATOM     13  C   UNL     1       6.288   6.086  16.282  0.00  0.00    +0.000 C 
BRANCH  13  14
ATOM     14  C   UNL     1       6.727   4.816  15.557  0.00  0.00    +0.000 C 
BRANCH  14  15
ATOM     15  O   UNL     1       6.687   3.704  16.472  0.00  0.00    +0.000 OA
ATOM     16  H   UNL     1       6.428   4.078  17.333  0.00  0.00    +0.000 HD
ENDBRANCH  14  15
BRANCH  14  17
ATOM     17  C   UNL     1       5.834   4.477  14.347  0.00  0.00    +0.000 C 
BRANCH  17  18
ATOM     18  N   UNL     1       6.247   3.242  13.672  0.00  0.00    +0.000 NA
ATOM     19  H   UNL     1       5.647   2.476  13.979  0.00  0.00    +0.000 HD
BRANCH  18  20
ATOM     20  C   UNL     1       6.253   3.297  12.199  0.00  0.00    +0.000 C 
ATOM     21  C   UNL     1       6.716   1.968  11.577  0.00  0.00    +0.000 C 
ATOM     22  C   UNL     1       4.798   3.550  11.756  0.00  0.00    +0.000 C 
ATOM     23  C   UNL     1       7.124   4.457  11.688  0.00  0.00    +0.000 C 
ENDBRANCH  18  20
ENDBRANCH  17  18
ENDBRANCH  14  17
ENDBRANCH  13  14
ENDBRANCH   1  13
TORSDOF 8
ENDMDL
MODEL 3
REMARK VINA RESULT:      -6.2      4.018      5.366
REMARK  Name = 
REMARK  12 active torsions:
REMARK  status: ('A' for Active; 'I' for Inactive)
REMARK    1  A    between atoms: C_1  and  C_2
REMARK    2  A    between atoms: C_2  and  C_14
REMARK    3  A    between atoms: N_3  and  O_4
REMARK    4  A    between atoms: O_4  and  C_5
REMARK    5  A    between atoms: C_5  and  C_6
REMARK    6  A    between atoms: C_6  and  O_7
REMARK    7  A    between atoms: C_6  and  C_8
REMARK    8  A    between atoms: C_8  and  N_9
REMARK    9  A    between atoms: N_9  and  C_10
REMARK   10  A    between atoms: C_10  and  C_11
REMARK   11  A    between atoms: C_10  and  C_12
REMARK   12  A    between atoms: C_10  and  C_13
REMARK                            x       y       z     vdW  Elec       q    Type
REMARK                         _______ _______ _______ _____ _____    ______ ____
ROOT
ATOM      1  O   UNL     1       3.667   6.445  18.446  0.00  0.00    +0.000 OA
ENDROOT
BRANCH   1   4
ATOM      2  C   UNL     1       2.013   8.325  17.613  0.00  0.00    +0.000 C 
ATOM      3  C   UNL     1       2.169   7.959  19.082  0.00  0.00    +0.000 C 
ATOM      4  N   UNL     1       2.935   6.998  19.499  0.00  0.00    +0.000 NA
BRANCH   3   5
ATOM      5  C   UNL     1       1.332   8.708  20.064  0.00  0.00    +0.000 A 
ATOM      6  C   UNL     1       0.837   8.002  21.178  0.00  0.00    +0.000 A 
ATOM      7  C   UNL     1       0.045   8.634  22.135  0.00  0.00    +0.000 A 
ATOM      8  C   UNL     1      -0.253   9.984  21.996  0.00  0.00    +0.000 A 
ATOM      9 CL   UNL     1      -1.239  10.760  23.172  0.00  0.00    +0.000 Cl
ATOM     10  C   UNL     1       0.236  10.708  20.911  0.00  0.00    +0.000 A 
ATOM     11  C   UNL     1       1.027  10.078  19.942  0.00  0.00    +0.000 A 
ATOM     12 CL   UNL     1       1.527  11.055  18.607  0.00  0.00    +0.000 Cl
ENDBRANCH   3   5
ENDBRANCH   1   4
BRANCH   1  13
ATOM     13  C   UNL     1       4.853   5.839  18.963  0.00  0.00    +0.000 C 
BRANCH  13  14
ATOM     14  C   UNL     1       5.146   4.596  18.124  0.00  0.00    +0.000 C 
BRANCH  14  15
ATOM     15  O   UNL     1       6.280   3.902  18.679  0.00  0.00    +0.000 OA
ATOM     16  H   UNL     1       7.066   4.312  18.276  0.00  0.00    +0.000 HD
ENDBRANCH  14  15
BRANCH  14  17
ATOM     17  C   UNL     1       3.959   3.614  18.072  0.00  0.00    +0.000 C 
BRANCH  17  18
ATOM     18  N   UNL     1       3.151   3.645  19.296  0.00  0.00    +0.000 NA
ATOM     19  H   UNL     1       3.337   4.513  19.798  0.00  0.00    +0.000 HD
BRANCH  18  20
ATOM     20  C   UNL     1       1.697   3.497  19.100  0.00  0.00    +0.000 C 
ATOM     21  C   UNL     1       0.895   4.126  20.252  0.00  0.00    +0.000 C 
ATOM     22  C   UNL     1       1.343   4.253  17.803  0.00  0.00    +0.000 C 
ATOM     23  C   UNL     1       1.306   2.020  18.921  0.00  0.00    +0.000 C 
ENDBRANCH  18  20
ENDBRANCH  17  18
ENDBRANCH  14  17
ENDBRANCH  13  14
ENDBRANCH   1  13
TORSDOF 8
ENDMDL
MODEL 4
REMARK VINA RESULT:      -6.2      0.912      1.485
REMARK  Name = 
REMARK  12 active torsions:
REMARK  status: ('A' for Active; 'I' for Inactive)
REMARK    1  A    between atoms: C_1  and  C_2
REMARK    2  A    between atoms: C_2  and  C_14
REMARK    3  A    between atoms: N_3  and  O_4
REMARK    4  A    between atoms: O_4  and  C_5
REMARK    5  A    between atoms: C_5  and  C_6
REMARK    6  A    between atoms: C_6  and  O_7
REMARK    7  A    between atoms: C_6  and  C_8
REMARK    8  A    between atoms: C_8  and  N_9
REMARK    9  A    between atoms: N_9  and  C_10
REMARK   10  A    between atoms: C_10  and  C_11
REMARK   11  A    between atoms: C_10  and  C_12
REMARK   12  A    between atoms: C_10  and  C_13
REMARK                            x       y       z     vdW  Elec       q    Type
REMARK                         _______ _______ _______ _____ _____    ______ ____
ROOT
ATOM      1  O   UNL     1       4.797   5.519  16.502  0.00  0.00    +0.000 OA
ENDROOT
BRANCH   1   4
ATOM      2  C   UNL     1       2.585   4.764  17.728  0.00  0.00    +0.000 C 
ATOM      3  C   UNL     1       3.166   6.164  17.866  0.00  0.00    +0.000 C 
ATOM      4  N   UNL     1       4.282   6.530  17.316  0.00  0.00    +0.000 NA
BRANCH   3   5
ATOM      5  C   UNL     1       2.433   7.122  18.746  0.00  0.00    +0.000 A 
ATOM      6  C   UNL     1       2.103   8.382  18.211  0.00  0.00    +0.000 A 
ATOM      7  C   UNL     1       1.422   9.329  18.974  0.00  0.00    +0.000 A 
ATOM      8  C   UNL     1       1.052   9.024  20.278  0.00  0.00    +0.000 A 
ATOM      9 CL   UNL     1       0.221  10.197  21.221  0.00  0.00    +0.000 Cl
ATOM     10  C   UNL     1       1.354   7.778  20.825  0.00  0.00    +0.000 A 
ATOM     11  C   UNL     1       2.043   6.824  20.066  0.00  0.00    +0.000 A 
ATOM     12 CL   UNL     1       2.421   5.338  20.864  0.00  0.00    +0.000 Cl
ENDBRANCH   3   5
ENDBRANCH   1   4
BRANCH   1  13
ATOM     13  C   UNL     1       6.215   5.658  16.416  0.00  0.00    +0.000 C 
BRANCH  13  14
ATOM     14  C   UNL     1       6.773   4.386  15.780  0.00  0.00    +0.000 C 
BRANCH  14  15
ATOM     15  O   UNL     1       5.967   3.260  16.177  0.00  0.00    +0.000 OA
ATOM     16  H   UNL     1       6.301   2.500  15.668  0.00  0.00    +0.000 HD
ENDBRANCH  14  15
BRANCH  14  17
ATOM     17  C   UNL     1       6.792   4.445  14.240  0.00  0.00    +0.000 C 
BRANCH  17  18
ATOM     18  N   UNL     1       6.228   3.238  13.625  0.00  0.00    +0.000 NA
ATOM     19  H   UNL     1       5.292   3.079  13.997  0.00  0.00    +0.000 HD
BRANCH  18  20
ATOM     20  C   UNL     1       6.174   3.243  12.152  0.00  0.00    +0.000 C 
ATOM     21  C   UNL     1       6.564   1.880  11.557  0.00  0.00    +0.000 C 
ATOM     22  C   UNL     1       4.710   3.533  11.761  0.00  0.00    +0.000 C 
ATOM     23  C   UNL     1       7.060   4.355  11.565  0.00  0.00    +0.000 C 
ENDBRANCH  18  20
ENDBRANCH  17  18
ENDBRANCH  14  17
ENDBRANCH  13  14
ENDBRANCH   1  13
TORSDOF 8
ENDMDL
MODEL 5
REMARK VINA RESULT:      -6.1      2.432      3.326
REMARK  Name = 
REMARK  12 active torsions:
REMARK  status: ('A' for Active; 'I' for Inactive)
REMARK    1  A    between atoms: C_1  and  C_2
REMARK    2  A    between atoms: C_2  and  C_14
REMARK    3  A    between atoms: N_3  and  O_4
REMARK    4  A    between atoms: O_4  and  C_5
REMARK    5  A    between atoms: C_5  and  C_6
REMARK    6  A    between atoms: C_6  and  O_7
REMARK    7  A    between atoms: C_6  and  C_8
REMARK    8  A    between atoms: C_8  and  N_9
REMARK    9  A    between atoms: N_9  and  C_10
REMARK   10  A    between atoms: C_10  and  C_11
REMARK   11  A    between atoms: C_10  and  C_12
REMARK   12  A    between atoms: C_10  and  C_13
REMARK                            x       y       z     vdW  Elec       q    Type
REMARK                         _______ _______ _______ _____ _____    ______ ____
ROOT
ATOM      1  O   UNL     1       4.223   4.720  18.641  0.00  0.00    +0.000 OA
ENDROOT
BRANCH   1   4
ATOM      2  C   UNL     1       1.702   4.770  19.419  0.00  0.00    +0.000 C 
ATOM      3  C   UNL     1       2.580   6.013  19.395  0.00  0.00    +0.000 C 
ATOM      4  N   UNL     1       3.836   5.991  19.070  0.00  0.00    +0.000 NA
BRANCH   3   5
ATOM      5  C   UNL     1       1.960   7.294  19.845  0.00  0.00    +0.000 A 
ATOM      6  C   UNL     1       1.455   7.352  21.159  0.00  0.00    +0.000 A 
ATOM      7  C   UNL     1       0.859   8.513  21.647  0.00  0.00    +0.000 A 
ATOM      8  C   UNL     1       0.770   9.635  20.832  0.00  0.00    +0.000 A 
ATOM      9 CL   UNL     1       0.025  11.063  21.433  0.00  0.00    +0.000 Cl
ATOM     10  C   UNL     1       1.276   9.607  19.534  0.00  0.00    +0.000 A 
ATOM     11  C   UNL     1       1.870   8.442  19.034  0.00  0.00    +0.000 A 
ATOM     12 CL   UNL     1       2.405   8.499  17.391  0.00  0.00    +0.000 Cl
ENDBRANCH   3   5
ENDBRANCH   1   4
BRANCH   1  13
ATOM     13  C   UNL     1       5.412   4.330  19.329  0.00  0.00    +0.000 C 
BRANCH  13  14
ATOM     14  C   UNL     1       6.538   5.259  18.880  0.00  0.00    +0.000 C 
BRANCH  14  15
ATOM     15  O   UNL     1       7.404   5.537  19.998  0.00  0.00    +0.000 OA
ATOM     16  H   UNL     1       7.203   6.450  20.269  0.00  0.00    +0.000 HD
ENDBRANCH  14  15
BRANCH  14  17
ATOM     17  C   UNL     1       7.393   4.659  17.747  0.00  0.00    +0.000 C 
BRANCH  17  18
ATOM     18  N   UNL     1       7.382   5.487  16.536  0.00  0.00    +0.000 NA
ATOM     19  H   UNL     1       8.332   5.559  16.171  0.00  0.00    +0.000 HD
BRANCH  18  20
ATOM     20  C   UNL     1       6.481   5.029  15.463  0.00  0.00    +0.000 C 
ATOM     21  C   UNL     1       5.913   3.629  15.748  0.00  0.00    +0.000 C 
ATOM     22  C   UNL     1       5.302   6.022  15.416  0.00  0.00    +0.000 C 
ATOM     23  C   UNL     1       7.187   5.051  14.096  0.00  0.00    +0.000 C 
ENDBRANCH  18  20
ENDBRANCH  17  18
ENDBRANCH  14  17
ENDBRANCH  13  14
ENDBRANCH   1  13
TORSDOF 8
ENDMDL
MODEL 6
REMARK VINA RESULT:      -6.1      2.269      3.316
REMARK  Name = 
REMARK  12 active torsions:
REMARK  status: ('A' for Active; 'I' for Inactive)
REMARK    1  A    between atoms: C_1  and  C_2
REMARK    2  A    between atoms: C_2  and  C_14
REMARK    3  A    between atoms: N_3  and  O_4
REMARK    4  A    between atoms: O_4  and  C_5
REMARK    5  A    between atoms: C_5  and  C_6
REMARK    6  A    between atoms: C_6  and  O_7
REMARK    7  A    between atoms: C_6  and  C_8
REMARK    8  A    between atoms: C_8  and  N_9
REMARK    9  A    between atoms: N_9  and  C_10
REMARK   10  A    between atoms: C_10  and  C_11
REMARK   11  A    between atoms: C_10  and  C_12
REMARK   12  A    between atoms: C_10  and  C_13
REMARK                            x       y       z     vdW  Elec       q    Type
REMARK                         _______ _______ _______ _____ _____    ______ ____
ROOT
ATOM      1  O   UNL     1       4.965   5.952  16.200  0.00  0.00    +0.000 OA
ENDROOT
BRANCH   1   4
ATOM      2  C   UNL     1       3.287   7.024  17.932  0.00  0.00    +0.000 C 
ATOM      3  C   UNL     1       3.649   5.546  17.944  0.00  0.00    +0.000 C 
ATOM      4  N   UNL     1       4.426   4.996  17.063  0.00  0.00    +0.000 NA
BRANCH   3   5
ATOM      5  C   UNL     1       3.003   4.695  18.987  0.00  0.00    +0.000 A 
ATOM      6  C   UNL     1       2.560   5.327  20.165  0.00  0.00    +0.000 A 
ATOM      7  C   UNL     1       1.950   4.597  21.185  0.00  0.00    +0.000 A 
ATOM      8  C   UNL     1       1.767   3.228  21.034  0.00  0.00    +0.000 A 
ATOM      9 CL   UNL     1       1.024   2.328  22.297  0.00  0.00    +0.000 Cl
ATOM     10  C   UNL     1       2.183   2.583  19.871  0.00  0.00    +0.000 A 
ATOM     11  C   UNL     1       2.801   3.308  18.846  0.00  0.00    +0.000 A 
ATOM     12 CL   UNL     1       3.334   2.398  17.476  0.00  0.00    +0.000 Cl
ENDBRANCH   3   5
ENDBRANCH   1   4
BRANCH   1  13
ATOM     13  C   UNL     1       6.389   5.942  16.314  0.00  0.00    +0.000 C 
BRANCH  13  14
ATOM     14  C   UNL     1       6.916   4.762  15.499  0.00  0.00    +0.000 C 
BRANCH  14  15
ATOM     15  O   UNL     1       6.634   3.534  16.198  0.00  0.00    +0.000 OA
ATOM     16  H   UNL     1       6.666   3.754  17.146  0.00  0.00    +0.000 HD
ENDBRANCH  14  15
BRANCH  14  17
ATOM     17  C   UNL     1       6.284   4.674  14.096  0.00  0.00    +0.000 C 
BRANCH  17  18
ATOM     18  N   UNL     1       6.238   3.299  13.586  0.00  0.00    +0.000 NA
ATOM     19  H   UNL     1       5.490   2.792  14.059  0.00  0.00    +0.000 HD
BRANCH  18  20
ATOM     20  C   UNL     1       6.069   3.169  12.128  0.00  0.00    +0.000 C 
ATOM     21  C   UNL     1       4.634   3.502  11.684  0.00  0.00    +0.000 C 
ATOM     22  C   UNL     1       7.020   4.193  11.475  0.00  0.00    +0.000 C 
ATOM     23  C   UNL     1       6.464   1.764  11.644  0.00  0.00    +0.000 C 
ENDBRANCH  18  20
ENDBRANCH  17  18
ENDBRANCH  14  17
ENDBRANCH  13  14
ENDBRANCH   1  13
TORSDOF 8
ENDMDL
MODEL 7
REMARK VINA RESULT:      -6.1      4.112      8.402
REMARK  Name = 
REMARK  12 active torsions:
REMARK  status: ('A' for Active; 'I' for Inactive)
REMARK    1  A    between atoms: C_1  and  C_2
REMARK    2  A    between atoms: C_2  and  C_14
REMARK    3  A    between atoms: N_3  and  O_4
REMARK    4  A    between atoms: O_4  and  C_5
REMARK    5  A    between atoms: C_5  and  C_6
REMARK    6  A    between atoms: C_6  and  O_7
REMARK    7  A    between atoms: C_6  and  C_8
REMARK    8  A    between atoms: C_8  and  N_9
REMARK    9  A    between atoms: N_9  and  C_10
REMARK   10  A    between atoms: C_10  and  C_11
REMARK   11  A    between atoms: C_10  and  C_12
REMARK   12  A    between atoms: C_10  and  C_13
REMARK                            x       y       z     vdW  Elec       q    Type
REMARK                         _______ _______ _______ _____ _____    ______ ____
ROOT
ATOM      1  O   UNL     1       1.499   8.421  20.225  0.00  0.00    +0.000 OA
ENDROOT
BRANCH   1   4
ATOM      2  C   UNL     1       2.059   8.685  17.659  0.00  0.00    +0.000 C 
ATOM      3  C   UNL     1       2.547   7.507  18.491  0.00  0.00    +0.000 C 
ATOM      4  N   UNL     1       2.327   7.396  19.765  0.00  0.00    +0.000 NA
BRANCH   3   5
ATOM      5  C   UNL     1       3.381   6.482  17.797  0.00  0.00    +0.000 A 
ATOM      6  C   UNL     1       4.556   6.919  17.155  0.00  0.00    +0.000 A 
ATOM      7  C   UNL     1       5.383   6.020  16.483  0.00  0.00    +0.000 A 
ATOM      8  C   UNL     1       5.051   4.671  16.455  0.00  0.00    +0.000 A 
ATOM      9 CL   UNL     1       6.067   3.565  15.617  0.00  0.00    +0.000 Cl
ATOM     10  C   UNL     1       3.902   4.212  17.096  0.00  0.00    +0.000 A 
ATOM     11  C   UNL     1       3.063   5.111  17.766  0.00  0.00    +0.000 A 
ATOM     12 CL   UNL     1       1.633   4.443  18.471  0.00  0.00    +0.000 Cl
ENDBRANCH   3   5
ENDBRANCH   1   4
BRANCH   1  13
ATOM     13  C   UNL     1       0.952   8.054  21.492  0.00  0.00    +0.000 C 
BRANCH  13  14
ATOM     14  C   UNL     1       0.440   9.325  22.167  0.00  0.00    +0.000 C 
BRANCH  14  15
ATOM     15  O   UNL     1       1.241   9.605  23.331  0.00  0.00    +0.000 OA
ATOM     16  H   UNL     1       2.143   9.767  23.001  0.00  0.00    +0.000 HD
ENDBRANCH  14  15
BRANCH  14  17
ATOM     17  C   UNL     1       0.491  10.557  21.241  0.00  0.00    +0.000 C 
BRANCH  17  18
ATOM     18  N   UNL     1      -0.771  10.774  20.526  0.00  0.00    +0.000 NA
ATOM     19  H   UNL     1      -1.400  11.321  21.115  0.00  0.00    +0.000 HD
BRANCH  18  20
ATOM     20  C   UNL     1      -0.650  11.423  19.208  0.00  0.00    +0.000 C 
ATOM     21  C   UNL     1       0.802  11.827  18.898  0.00  0.00    +0.000 C 
ATOM     22  C   UNL     1      -1.092  10.385  18.156  0.00  0.00    +0.000 C 
ATOM     23  C   UNL     1      -1.578  12.646  19.102  0.00  0.00    +0.000 C 
ENDBRANCH  18  20
ENDBRANCH  17  18
ENDBRANCH  14  17
ENDBRANCH  13  14
ENDBRANCH   1  13
TORSDOF 8
ENDMDL
MODEL 8
REMARK VINA RESULT:      -6.0      2.012      2.722
REMARK  Name = 
REMARK  12 active torsions:
REMARK  status: ('A' for Active; 'I' for Inactive)
REMARK    1  A    between atoms: C_1  and  C_2
REMARK    2  A    between atoms: C_2  and  C_14
REMARK    3  A    between atoms: N_3  and  O_4
REMARK    4  A    between atoms: O_4  and  C_5
REMARK    5  A    between atoms: C_5  and  C_6
REMARK    6  A    between atoms: C_6  and  O_7
REMARK    7  A    between atoms: C_6  and  C_8
REMARK    8  A    between atoms: C_8  and  N_9
REMARK    9  A    between atoms: N_9  and  C_10
REMARK   10  A    between atoms: C_10  and  C_11
REMARK   11  A    between atoms: C_10  and  C_12
REMARK   12  A    between atoms: C_10  and  C_13
REMARK                            x       y       z     vdW  Elec       q    Type
REMARK                         _______ _______ _______ _____ _____    ______ ____
ROOT
ATOM      1  O   UNL     1       6.232   4.358  18.867  0.00  0.00    +0.000 OA
ENDROOT
BRANCH   1   4
ATOM      2  C   UNL     1       3.712   3.915  18.223  0.00  0.00    +0.000 C 
ATOM      3  C   UNL     1       4.144   5.086  19.094  0.00  0.00    +0.000 C 
ATOM      4  N   UNL     1       5.372   5.281  19.465  0.00  0.00    +0.000 NA
BRANCH   3   5
ATOM      5  C   UNL     1       3.072   5.996  19.593  0.00  0.00    +0.000 A 
ATOM      6  C   UNL     1       2.948   7.260  18.983  0.00  0.00    +0.000 A 
ATOM      7  C   UNL     1       1.972   8.164  19.398  0.00  0.00    +0.000 A 
ATOM      8  C   UNL     1       1.101   7.813  20.421  0.00  0.00    +0.000 A 
ATOM      9 CL   UNL     1      -0.095   8.935  20.939  0.00  0.00    +0.000 Cl
ATOM     10  C   UNL     1       1.194   6.563  21.031  0.00  0.00    +0.000 A 
ATOM     11  C   UNL     1       2.176   5.652  20.623  0.00  0.00    +0.000 A 
ATOM     12 CL   UNL     1       2.241   4.158  21.490  0.00  0.00    +0.000 Cl
ENDBRANCH   3   5
ENDBRANCH   1   4
BRANCH   1  13
ATOM     13  C   UNL     1       7.528   4.942  18.727  0.00  0.00    +0.000 C 
BRANCH  13  14
ATOM     14  C   UNL     1       7.341   6.414  18.362  0.00  0.00    +0.000 C 
BRANCH  14  15
ATOM     15  O   UNL     1       8.450   7.178  18.874  0.00  0.00    +0.000 OA
ATOM     16  H   UNL     1       9.250   6.672  18.644  0.00  0.00    +0.000 HD
ENDBRANCH  14  15
BRANCH  14  17
ATOM     17  C   UNL     1       7.256   6.648  16.841  0.00  0.00    +0.000 C 
BRANCH  17  18
ATOM     18  N   UNL     1       7.574   5.442  16.069  0.00  0.00    +0.000 NA
ATOM     19  H   UNL     1       7.823   4.689  16.711  0.00  0.00    +0.000 HD
BRANCH  18  20
ATOM     20  C   UNL     1       6.513   4.974  15.158  0.00  0.00    +0.000 C 
ATOM     21  C   UNL     1       6.022   3.564  15.524  0.00  0.00    +0.000 C 
ATOM     22  C   UNL     1       5.328   5.949  15.315  0.00  0.00    +0.000 C 
ATOM     23  C   UNL     1       6.980   5.013  13.693  0.00  0.00    +0.000 C 
ENDBRANCH  18  20
ENDBRANCH  17  18
ENDBRANCH  14  17
ENDBRANCH  13  14
ENDBRANCH   1  13
TORSDOF 8
ENDMDL
MODEL 9
REMARK VINA RESULT:      -6.0      2.829      4.185
REMARK  Name = 
REMARK  12 active torsions:
REMARK  status: ('A' for Active; 'I' for Inactive)
REMARK    1  A    between atoms: C_1  and  C_2
REMARK    2  A    between atoms: C_2  and  C_14
REMARK    3  A    between atoms: N_3  and  O_4
REMARK    4  A    between atoms: O_4  and  C_5
REMARK    5  A    between atoms: C_5  and  C_6
REMARK    6  A    between atoms: C_6  and  O_7
REMARK    7  A    between atoms: C_6  and  C_8
REMARK    8  A    between atoms: C_8  and  N_9
REMARK    9  A    between atoms: N_9  and  C_10
REMARK   10  A    between atoms: C_10  and  C_11
REMARK   11  A    between atoms: C_10  and  C_12
REMARK   12  A    between atoms: C_10  and  C_13
REMARK                            x       y       z     vdW  Elec       q    Type
REMARK                         _______ _______ _______ _____ _____    ______ ____
ROOT
ATOM      1  O   UNL     1       3.108   5.550  18.421  0.00  0.00    +0.000 OA
ENDROOT
BRANCH   1   4
ATOM      2  C   UNL     1       2.918   8.126  17.877  0.00  0.00    +0.000 C 
ATOM      3  C   UNL     1       2.262   7.491  19.095  0.00  0.00    +0.000 C 
ATOM      4  N   UNL     1       2.299   6.219  19.342  0.00  0.00    +0.000 NA
BRANCH   3   5
ATOM      5  C   UNL     1       1.480   8.391  19.993  0.00  0.00    +0.000 A 
ATOM      6  C   UNL     1       1.630   8.220  21.383  0.00  0.00    +0.000 A 
ATOM      7  C   UNL     1       0.930   9.022  22.284  0.00  0.00    +0.000 A 
ATOM      8  C   UNL     1       0.079  10.010  21.806  0.00  0.00    +0.000 A 
ATOM      9 CL   UNL     1      -0.792  10.990  22.919  0.00  0.00    +0.000 Cl
ATOM     10  C   UNL     1      -0.075  10.209  20.435  0.00  0.00    +0.000 A 
ATOM     11  C   UNL     1       0.620   9.404  19.525  0.00  0.00    +0.000 A 
ATOM     12 CL   UNL     1       0.306   9.694  17.850  0.00  0.00    +0.000 Cl
ENDBRANCH   3   5
ENDBRANCH   1   4
BRANCH   1  13
ATOM     13  C   UNL     1       3.278   4.195  18.837  0.00  0.00    +0.000 C 
BRANCH  13  14
ATOM     14  C   UNL     1       4.668   4.066  19.457  0.00  0.00    +0.000 C 
BRANCH  14  15
ATOM     15  O   UNL     1       4.993   2.672  19.617  0.00  0.00    +0.000 OA
ATOM     16  H   UNL     1       5.192   2.552  20.563  0.00  0.00    +0.000 HD
ENDBRANCH  14  15
BRANCH  14  17
ATOM     17  C   UNL     1       5.769   4.721  18.600  0.00  0.00    +0.000 C 
BRANCH  17  18
ATOM     18  N   UNL     1       5.547   4.535  17.162  0.00  0.00    +0.000 NA
ATOM     19  H   UNL     1       4.547   4.591  16.967  0.00  0.00    +0.000 HD
BRANCH  18  20
ATOM     20  C   UNL     1       6.269   5.472  16.282  0.00  0.00    +0.000 C 
ATOM     21  C   UNL     1       7.026   4.740  15.161  0.00  0.00    +0.000 C 
ATOM     22  C   UNL     1       5.205   6.378  15.627  0.00  0.00    +0.000 C 
ATOM     23  C   UNL     1       7.233   6.360  17.086  0.00  0.00    +0.000 C 
ENDBRANCH  18  20
ENDBRANCH  17  18
ENDBRANCH  14  17
ENDBRANCH  13  14
ENDBRANCH   1  13
TORSDOF 8
ENDMDL
