MODEL 1
REMARK VINA RESULT:      -8.1      0.000      0.000
REMARK  Name = 
REMARK  10 active torsions:
REMARK  status: ('A' for Active; 'I' for Inactive)
REMARK    1  A    between atoms: C_1  and  O_2
REMARK    2  A    between atoms: O_2  and  C_3
REMARK    3  A    between atoms: C_7  and  O_8
REMARK    4  A    between atoms: O_8  and  C_9
REMARK    5  A    between atoms: C_10  and  C_11
REMARK    6  A    between atoms: C_11  and  C_12
REMARK    7  A    between atoms: C_13  and  C_14
REMARK    8  A    between atoms: C_13  and  C_15
REMARK    9  A    between atoms: C_20  and  O_21
REMARK   10  A    between atoms: C_25  and  O_26
REMARK                            x       y       z     vdW  Elec       q    Type
REMARK                         _______ _______ _______ _____ _____    ______ ____
ROOT
ATOM      1  C   UNL     1       2.670   4.866  19.320  0.00  0.00    +0.000 A 
ATOM      2  C   UNL     1       3.811   4.320  19.889  0.00  0.00    +0.000 A 
ATOM      3  C   UNL     1       4.964   4.411  19.151  0.00  0.00    +0.000 A 
ATOM      4  C   UNL     1       4.892   4.603  17.785  0.00  0.00    +0.000 A 
ATOM      5  C   UNL     1       3.946   5.534  17.378  0.00  0.00    +0.000 A 
ATOM      6  C   UNL     1       2.852   5.758  18.243  0.00  0.00    +0.000 A 
ATOM      7  C   UNL     1       6.112   4.055  17.113  0.00  0.00    +0.000 C 
ATOM      8  C   UNL     1       6.247   4.170  15.652  0.00  0.00    +0.000 A 
ATOM      9  C   UNL     1       5.577   3.450  14.675  0.00  0.00    +0.000 A 
ATOM     10  C   UNL     1       5.936   3.671  13.346  0.00  0.00    +0.000 A 
ATOM     11  C   UNL     1       6.941   4.599  13.051  0.00  0.00    +0.000 A 
ATOM     12  C   UNL     1       7.596   5.331  14.055  0.00  0.00    +0.000 A 
ATOM     13  C   UNL     1       7.236   5.095  15.365  0.00  0.00    +0.000 A 
ATOM     14  O   UNL     1       7.779   5.688  16.494  0.00  0.00    +0.000 OA
ATOM     15  C   UNL     1       7.367   4.814  17.583  0.00  0.00    +0.000 C 
ATOM     16  C   UNL     1       7.010   5.501  18.927  0.00  0.00    +0.000 C 
ATOM     17  O   UNL     1       6.199   4.568  19.751  0.00  0.00    +0.000 OA
ENDROOT
BRANCH   1  19
ATOM     18  C   UNL     1       1.026   3.420  20.100  0.00  0.00    +0.000 C 
ATOM     19  O   UNL     1       1.446   4.779  19.923  0.00  0.00    +0.000 OA
ENDBRANCH   1  19
BRANCH   5  20
ATOM     20  O   UNL     1       4.404   6.413  16.433  0.00  0.00    +0.000 OA
ATOM     21  C   UNL     1       5.029   7.609  16.869  0.00  0.00    +0.000 C 
ENDBRANCH   5  20
BRANCH  11  22
ATOM     22  O   UNL     1       7.310   4.802  11.748  0.00  0.00    +0.000 OA
ATOM     23  H   UNL     1       6.539   4.696  11.178  0.00  0.00    +0.000 HD
ENDBRANCH  11  22
BRANCH  15  24
ATOM     24  O   UNL     1       8.456   3.922  17.880  0.00  0.00    +0.000 OA
ATOM     25  H   UNL     1       9.206   4.223  17.337  0.00  0.00    +0.000 HD
ENDBRANCH  15  24
BRANCH   6  26
ATOM     26  C   UNL     1       2.212   7.130  18.396  0.00  0.00    +0.000 C 
BRANCH  26  27
ATOM     27  C   UNL     1       1.999   7.632  19.789  0.00  0.00    +0.000 C 
ATOM     28  C   UNL     1       1.333   8.764  20.106  0.00  0.00    +0.000 C 
ATOM     29  C   UNL     1       0.741   9.726  19.106  0.00  0.00    +0.000 C 
ATOM     30  C   UNL     1       1.136   9.167  21.541  0.00  0.00    +0.000 C 
ENDBRANCH  26  27
ENDBRANCH   6  26
TORSDOF 6
ENDMDL
MODEL 2
REMARK VINA RESULT:      -7.5      0.931      1.163
REMARK  Name = 
REMARK  10 active torsions:
REMARK  status: ('A' for Active; 'I' for Inactive)
REMARK    1  A    between atoms: C_1  and  O_2
REMARK    2  A    between atoms: O_2  and  C_3
REMARK    3  A    between atoms: C_7  and  O_8
REMARK    4  A    between atoms: O_8  and  C_9
REMARK    5  A    between atoms: C_10  and  C_11
REMARK    6  A    between atoms: C_11  and  C_12
REMARK    7  A    between atoms: C_13  and  C_14
REMARK    8  A    between atoms: C_13  and  C_15
REMARK    9  A    between atoms: C_20  and  O_21
REMARK   10  A    between atoms: C_25  and  O_26
REMARK                            x       y       z     vdW  Elec       q    Type
REMARK                         _______ _______ _______ _____ _____    ______ ____
ROOT
ATOM      1  C   UNL     1       2.807   5.709  19.446  0.00  0.00    +0.000 A 
ATOM      2  C   UNL     1       3.874   5.030  20.015  0.00  0.00    +0.000 A 
ATOM      3  C   UNL     1       4.998   4.902  19.240  0.00  0.00    +0.000 A 
ATOM      4  C   UNL     1       4.904   5.023  17.866  0.00  0.00    +0.000 A 
ATOM      5  C   UNL     1       4.093   6.062  17.430  0.00  0.00    +0.000 A 
ATOM      6  C   UNL     1       3.078   6.499  18.310  0.00  0.00    +0.000 A 
ATOM      7  C   UNL     1       6.001   4.259  17.195  0.00  0.00    +0.000 C 
ATOM      8  C   UNL     1       6.096   4.268  15.726  0.00  0.00    +0.000 A 
ATOM      9  C   UNL     1       5.288   3.602  14.817  0.00  0.00    +0.000 A 
ATOM     10  C   UNL     1       5.625   3.689  13.466  0.00  0.00    +0.000 A 
ATOM     11  C   UNL     1       6.746   4.435  13.084  0.00  0.00    +0.000 A 
ATOM     12  C   UNL     1       7.541   5.115  14.021  0.00  0.00    +0.000 A 
ATOM     13  C   UNL     1       7.200   5.014  15.353  0.00  0.00    +0.000 A 
ATOM     14  O   UNL     1       7.869   5.581  16.426  0.00  0.00    +0.000 OA
ATOM     15  C   UNL     1       7.373   4.844  17.579  0.00  0.00    +0.000 C 
ATOM     16  C   UNL     1       7.174   5.654  18.887  0.00  0.00    +0.000 C 
ATOM     17  O   UNL     1       6.265   4.904  19.791  0.00  0.00    +0.000 OA
ENDROOT
BRANCH   1  19
ATOM     18  C   UNL     1       1.076   4.582  20.513  0.00  0.00    +0.000 C 
ATOM     19  O   UNL     1       1.607   5.844  20.090  0.00  0.00    +0.000 OA
ENDBRANCH   1  19
BRANCH   5  20
ATOM     20  O   UNL     1       4.641   6.806  16.419  0.00  0.00    +0.000 OA
ATOM     21  C   UNL     1       5.536   7.852  16.757  0.00  0.00    +0.000 C 
ENDBRANCH   5  20
BRANCH  11  22
ATOM     22  O   UNL     1       7.091   4.503  11.761  0.00  0.00    +0.000 OA
ATOM     23  H   UNL     1       6.538   5.161  11.321  0.00  0.00    +0.000 HD
ENDBRANCH  11  22
BRANCH  15  24
ATOM     24  O   UNL     1       8.327   3.816  17.899  0.00  0.00    +0.000 OA
ATOM     25  H   UNL     1       8.495   3.337  17.070  0.00  0.00    +0.000 HD
ENDBRANCH  15  24
BRANCH   6  26
ATOM     26  C   UNL     1       2.658   7.959  18.395  0.00  0.00    +0.000 C 
BRANCH  26  27
ATOM     27  C   UNL     1       1.297   8.309  17.880  0.00  0.00    +0.000 C 
ATOM     28  C   UNL     1       0.660   9.476  18.119  0.00  0.00    +0.000 C 
ATOM     29  C   UNL     1       1.197  10.591  18.981  0.00  0.00    +0.000 C 
ATOM     30  C   UNL     1      -0.693   9.752  17.524  0.00  0.00    +0.000 C 
ENDBRANCH  26  27
ENDBRANCH   6  26
TORSDOF 6
ENDMDL
MODEL 3
REMARK VINA RESULT:      -6.9      6.250     11.064
REMARK  Name = 
REMARK  10 active torsions:
REMARK  status: ('A' for Active; 'I' for Inactive)
REMARK    1  A    between atoms: C_1  and  O_2
REMARK    2  A    between atoms: O_2  and  C_3
REMARK    3  A    between atoms: C_7  and  O_8
REMARK    4  A    between atoms: O_8  and  C_9
REMARK    5  A    between atoms: C_10  and  C_11
REMARK    6  A    between atoms: C_11  and  C_12
REMARK    7  A    between atoms: C_13  and  C_14
REMARK    8  A    between atoms: C_13  and  C_15
REMARK    9  A    between atoms: C_20  and  O_21
REMARK   10  A    between atoms: C_25  and  O_26
REMARK                            x       y       z     vdW  Elec       q    Type
REMARK                         _______ _______ _______ _____ _____    ______ ____
ROOT
ATOM      1  C   UNL     1       0.450  10.186  18.536  0.00  0.00    +0.000 A 
ATOM      2  C   UNL     1       1.076  10.452  19.745  0.00  0.00    +0.000 A 
ATOM      3  C   UNL     1       0.656  11.574  20.414  0.00  0.00    +0.000 A 
ATOM      4  C   UNL     1       0.013  12.585  19.727  0.00  0.00    +0.000 A 
ATOM      5  C   UNL     1      -0.932  12.151  18.806  0.00  0.00    +0.000 A 
ATOM      6  C   UNL     1      -0.768  10.850  18.281  0.00  0.00    +0.000 A 
ATOM      7  C   UNL     1       0.209  13.897  20.417  0.00  0.00    +0.000 C 
ATOM      8  C   UNL     1      -0.409  15.110  19.858  0.00  0.00    +0.000 A 
ATOM      9  C   UNL     1      -0.022  15.822  18.734  0.00  0.00    +0.000 A 
ATOM     10  C   UNL     1      -0.710  17.000  18.444  0.00  0.00    +0.000 A 
ATOM     11  C   UNL     1      -1.752  17.411  19.283  0.00  0.00    +0.000 A 
ATOM     12  C   UNL     1      -2.139  16.666  20.408  0.00  0.00    +0.000 A 
ATOM     13  C   UNL     1      -1.444  15.508  20.686  0.00  0.00    +0.000 A 
ATOM     14  O   UNL     1      -1.651  14.654  21.759  0.00  0.00    +0.000 OA
ATOM     15  C   UNL     1      -0.429  13.864  21.819  0.00  0.00    +0.000 C 
ATOM     16  C   UNL     1      -0.587  12.372  22.214  0.00  0.00    +0.000 C 
ATOM     17  O   UNL     1       0.627  11.626  21.795  0.00  0.00    +0.000 OA
ENDROOT
BRANCH   1  19
ATOM     18  C   UNL     1       2.137   8.658  18.061  0.00  0.00    +0.000 C 
ATOM     19  O   UNL     1       0.825   9.138  17.740  0.00  0.00    +0.000 OA
ENDBRANCH   1  19
BRANCH   5  20
ATOM     20  O   UNL     1      -2.112  12.845  18.855  0.00  0.00    +0.000 OA
ATOM     21  C   UNL     1      -3.129  12.389  19.731  0.00  0.00    +0.000 C 
ENDBRANCH   5  20
BRANCH  11  22
ATOM     22  O   UNL     1      -2.415  18.579  19.012  0.00  0.00    +0.000 OA
ATOM     23  H   UNL     1      -3.332  18.499  19.300  0.00  0.00    +0.000 HD
ENDBRANCH  11  22
BRANCH  15  24
ATOM     24  O   UNL     1       0.431  14.442  22.817  0.00  0.00    +0.000 OA
ATOM     25  H   UNL     1       1.333  14.390  22.457  0.00  0.00    +0.000 HD
ENDBRANCH  15  24
BRANCH   6  26
ATOM     26  C   UNL     1      -1.955   9.962  17.941  0.00  0.00    +0.000 C 
BRANCH  26  27
ATOM     27  C   UNL     1      -2.277   9.779  16.491  0.00  0.00    +0.000 C 
ATOM     28  C   UNL     1      -3.312  10.368  15.851  0.00  0.00    +0.000 C 
ATOM     29  C   UNL     1      -4.334  11.263  16.506  0.00  0.00    +0.000 C 
ATOM     30  C   UNL     1      -3.531  10.153  14.380  0.00  0.00    +0.000 C 
ENDBRANCH  26  27
ENDBRANCH   6  26
TORSDOF 6
ENDMDL
MODEL 4
REMARK VINA RESULT:      -6.8      4.892     10.289
REMARK  Name = 
REMARK  10 active torsions:
REMARK  status: ('A' for Active; 'I' for Inactive)
REMARK    1  A    between atoms: C_1  and  O_2
REMARK    2  A    between atoms: O_2  and  C_3
REMARK    3  A    between atoms: C_7  and  O_8
REMARK    4  A    between atoms: O_8  and  C_9
REMARK    5  A    between atoms: C_10  and  C_11
REMARK    6  A    between atoms: C_11  and  C_12
REMARK    7  A    between atoms: C_13  and  C_14
REMARK    8  A    between atoms: C_13  and  C_15
REMARK    9  A    between atoms: C_20  and  O_21
REMARK   10  A    between atoms: C_25  and  O_26
REMARK                            x       y       z     vdW  Elec       q    Type
REMARK                         _______ _______ _______ _____ _____    ______ ____
ROOT
ATOM      1  C   UNL     1       1.374   9.328  18.667  0.00  0.00    +0.000 A 
ATOM      2  C   UNL     1       1.741  10.585  18.210  0.00  0.00    +0.000 A 
ATOM      3  C   UNL     1       1.457  11.642  19.037  0.00  0.00    +0.000 A 
ATOM      4  C   UNL     1       0.482  11.512  20.007  0.00  0.00    +0.000 A 
ATOM      5  C   UNL     1       0.508  10.309  20.699  0.00  0.00    +0.000 A 
ATOM      6  C   UNL     1       1.088   9.201  20.041  0.00  0.00    +0.000 A 
ATOM      7  C   UNL     1      -0.110  12.846  20.339  0.00  0.00    +0.000 C 
ATOM      8  C   UNL     1      -1.160  12.937  21.366  0.00  0.00    +0.000 A 
ATOM      9  C   UNL     1      -2.487  12.550  21.263  0.00  0.00    +0.000 A 
ATOM     10  C   UNL     1      -3.325  12.816  22.345  0.00  0.00    +0.000 A 
ATOM     11  C   UNL     1      -2.804  13.452  23.478  0.00  0.00    +0.000 A 
ATOM     12  C   UNL     1      -1.453  13.821  23.568  0.00  0.00    +0.000 A 
ATOM     13  C   UNL     1      -0.638  13.558  22.487  0.00  0.00    +0.000 A 
ATOM     14  O   UNL     1       0.708  13.869  22.368  0.00  0.00    +0.000 OA
ATOM     15  C   UNL     1       0.965  13.773  20.939  0.00  0.00    +0.000 C 
ATOM     16  C   UNL     1       2.346  13.203  20.519  0.00  0.00    +0.000 C 
ATOM     17  O   UNL     1       2.278  12.751  19.105  0.00  0.00    +0.000 OA
ENDROOT
BRANCH   1  19
ATOM     18  C   UNL     1       2.887   8.061  17.438  0.00  0.00    +0.000 C 
ATOM     19  O   UNL     1       1.540   8.203  17.907  0.00  0.00    +0.000 OA
ENDBRANCH   1  19
BRANCH   5  20
ATOM     20  O   UNL     1       0.376  10.447  22.055  0.00  0.00    +0.000 OA
ATOM     21  C   UNL     1      -0.586   9.649  22.726  0.00  0.00    +0.000 C 
ENDBRANCH   5  20
BRANCH  11  22
ATOM     22  O   UNL     1      -3.631  13.733  24.533  0.00  0.00    +0.000 OA
ATOM     23  H   UNL     1      -4.454  13.240  24.433  0.00  0.00    +0.000 HD
ENDBRANCH  11  22
BRANCH  15  24
ATOM     24  O   UNL     1       0.906  15.098  20.381  0.00  0.00    +0.000 OA
ATOM     25  H   UNL     1      -0.033  15.351  20.389  0.00  0.00    +0.000 HD
ENDBRANCH  15  24
BRANCH   6  26
ATOM     26  C   UNL     1       1.874   8.138  20.793  0.00  0.00    +0.000 C 
BRANCH  26  27
ATOM     27  C   UNL     1       1.271   6.771  20.871  0.00  0.00    +0.000 C 
ATOM     28  C   UNL     1       1.892   5.632  20.492  0.00  0.00    +0.000 C 
ATOM     29  C   UNL     1       3.271   5.563  19.884  0.00  0.00    +0.000 C 
ATOM     30  C   UNL     1       1.217   4.298  20.646  0.00  0.00    +0.000 C 
ENDBRANCH  26  27
ENDBRANCH   6  26
TORSDOF 6
ENDMDL
MODEL 5
REMARK VINA RESULT:      -6.7      1.854      6.515
REMARK  Name = 
REMARK  10 active torsions:
REMARK  status: ('A' for Active; 'I' for Inactive)
REMARK    1  A    between atoms: C_1  and  O_2
REMARK    2  A    between atoms: O_2  and  C_3
REMARK    3  A    between atoms: C_7  and  O_8
REMARK    4  A    between atoms: O_8  and  C_9
REMARK    5  A    between atoms: C_10  and  C_11
REMARK    6  A    between atoms: C_11  and  C_12
REMARK    7  A    between atoms: C_13  and  C_14
REMARK    8  A    between atoms: C_13  and  C_15
REMARK    9  A    between atoms: C_20  and  O_21
REMARK   10  A    between atoms: C_25  and  O_26
REMARK                            x       y       z     vdW  Elec       q    Type
REMARK                         _______ _______ _______ _____ _____    ______ ____
ROOT
ATOM      1  C   UNL     1       5.837   5.237  15.110  0.00  0.00    +0.000 A 
ATOM      2  C   UNL     1       5.072   6.393  15.145  0.00  0.00    +0.000 A 
ATOM      3  C   UNL     1       4.291   6.574  16.258  0.00  0.00    +0.000 A 
ATOM      4  C   UNL     1       3.946   5.488  17.040  0.00  0.00    +0.000 A 
ATOM      5  C   UNL     1       4.979   4.591  17.276  0.00  0.00    +0.000 A 
ATOM      6  C   UNL     1       6.026   4.553  16.329  0.00  0.00    +0.000 A 
ATOM      7  C   UNL     1       2.659   5.746  17.759  0.00  0.00    +0.000 C 
ATOM      8  C   UNL     1       2.116   4.719  18.662  0.00  0.00    +0.000 A 
ATOM      9  C   UNL     1       1.504   3.522  18.322  0.00  0.00    +0.000 A 
ATOM     10  C   UNL     1       0.985   2.743  19.355  0.00  0.00    +0.000 A 
ATOM     11  C   UNL     1       1.102   3.188  20.677  0.00  0.00    +0.000 A 
ATOM     12  C   UNL     1       1.740   4.396  21.002  0.00  0.00    +0.000 A 
ATOM     13  C   UNL     1       2.241   5.159  19.968  0.00  0.00    +0.000 A 
ATOM     14  O   UNL     1       2.875   6.388  20.077  0.00  0.00    +0.000 OA
ATOM     15  C   UNL     1       2.817   6.933  18.728  0.00  0.00    +0.000 C 
ATOM     16  C   UNL     1       4.050   7.748  18.255  0.00  0.00    +0.000 C 
ATOM     17  O   UNL     1       4.039   7.832  16.772  0.00  0.00    +0.000 OA
ENDROOT
BRANCH   1  19
ATOM     18  C   UNL     1       6.120   3.737  13.357  0.00  0.00    +0.000 C 
ATOM     19  O   UNL     1       6.604   4.908  14.027  0.00  0.00    +0.000 OA
ENDBRANCH   1  19
BRANCH   5  20
ATOM     20  O   UNL     1       5.074   4.186  18.581  0.00  0.00    +0.000 OA
ATOM     21  C   UNL     1       4.820   2.825  18.887  0.00  0.00    +0.000 C 
ENDBRANCH   5  20
BRANCH  11  22
ATOM     22  O   UNL     1       0.573   2.435  21.691  0.00  0.00    +0.000 OA
ATOM     23  H   UNL     1      -0.164   2.912  22.091  0.00  0.00    +0.000 HD
ENDBRANCH  11  22
BRANCH  15  24
ATOM     24  O   UNL     1       1.702   7.839  18.657  0.00  0.00    +0.000 OA
ATOM     25  H   UNL     1       1.982   8.647  19.118  0.00  0.00    +0.000 HD
ENDBRANCH  15  24
BRANCH   6  26
ATOM     26  C   UNL     1       7.469   4.293  16.732  0.00  0.00    +0.000 C 
BRANCH  26  27
ATOM     27  C   UNL     1       7.846   4.588  18.150  0.00  0.00    +0.000 C 
ATOM     28  C   UNL     1       7.934   5.828  18.682  0.00  0.00    +0.000 C 
ATOM     29  C   UNL     1       7.716   7.111  17.920  0.00  0.00    +0.000 C 
ATOM     30  C   UNL     1       8.282   6.022  20.131  0.00  0.00    +0.000 C 
ENDBRANCH  26  27
ENDBRANCH   6  26
TORSDOF 6
ENDMDL
MODEL 6
REMARK VINA RESULT:      -6.6      8.197     11.419
REMARK  Name = 
REMARK  10 active torsions:
REMARK  status: ('A' for Active; 'I' for Inactive)
REMARK    1  A    between atoms: C_1  and  O_2
REMARK    2  A    between atoms: O_2  and  C_3
REMARK    3  A    between atoms: C_7  and  O_8
REMARK    4  A    between atoms: O_8  and  C_9
REMARK    5  A    between atoms: C_10  and  C_11
REMARK    6  A    between atoms: C_11  and  C_12
REMARK    7  A    between atoms: C_13  and  C_14
REMARK    8  A    between atoms: C_13  and  C_15
REMARK    9  A    between atoms: C_20  and  O_21
REMARK   10  A    between atoms: C_25  and  O_26
REMARK                            x       y       z     vdW  Elec       q    Type
REMARK                         _______ _______ _______ _____ _____    ______ ____
ROOT
ATOM      1  C   UNL     1      -2.496  11.168  17.054  0.00  0.00    +0.000 A 
ATOM      2  C   UNL     1      -1.311  10.554  17.429  0.00  0.00    +0.000 A 
ATOM      3  C   UNL     1      -0.891  10.774  18.716  0.00  0.00    +0.000 A 
ATOM      4  C   UNL     1      -1.355  11.874  19.412  0.00  0.00    +0.000 A 
ATOM      5  C   UNL     1      -2.712  12.125  19.263  0.00  0.00    +0.000 A 
ATOM      6  C   UNL     1      -3.329  11.645  18.087  0.00  0.00    +0.000 A 
ATOM      7  C   UNL     1      -0.368  12.288  20.458  0.00  0.00    +0.000 C 
ATOM      8  C   UNL     1      -0.674  13.434  21.328  0.00  0.00    +0.000 A 
ATOM      9  C   UNL     1      -0.654  14.781  21.001  0.00  0.00    +0.000 A 
ATOM     10  C   UNL     1      -0.896  15.700  22.022  0.00  0.00    +0.000 A 
ATOM     11  C   UNL     1      -1.148  15.237  23.318  0.00  0.00    +0.000 A 
ATOM     12  C   UNL     1      -1.179  13.867  23.625  0.00  0.00    +0.000 A 
ATOM     13  C   UNL     1      -0.931  12.971  22.607  0.00  0.00    +0.000 A 
ATOM     14  O   UNL     1      -0.887  11.589  22.710  0.00  0.00    +0.000 OA
ATOM     15  C   UNL     1      -0.194  11.168  21.502  0.00  0.00    +0.000 C 
ATOM     16  C   UNL     1      -0.683   9.851  20.844  0.00  0.00    +0.000 C 
ATOM     17  O   UNL     1      -0.215   9.806  19.435  0.00  0.00    +0.000 OA
ENDROOT
BRANCH   1  19
ATOM     18  C   UNL     1      -2.857   9.762  15.237  0.00  0.00    +0.000 C 
ATOM     19  O   UNL     1      -2.986  11.083  15.779  0.00  0.00    +0.000 OA
ENDBRANCH   1  19
BRANCH   5  20
ATOM     20  O   UNL     1      -3.355  12.407  20.439  0.00  0.00    +0.000 OA
ATOM     21  C   UNL     1      -4.062  13.631  20.546  0.00  0.00    +0.000 C 
ENDBRANCH   5  20
BRANCH  11  22
ATOM     22  O   UNL     1      -1.364  16.138  24.326  0.00  0.00    +0.000 OA
ATOM     23  H   UNL     1      -0.561  16.223  24.854  0.00  0.00    +0.000 HD
ENDBRANCH  11  22
BRANCH  15  24
ATOM     24  O   UNL     1       1.189  10.948  21.830  0.00  0.00    +0.000 OA
ATOM     25  H   UNL     1       1.658  11.762  21.578  0.00  0.00    +0.000 HD
ENDBRANCH  15  24
BRANCH   6  26
ATOM     26  C   UNL     1      -4.763  11.137  18.078  0.00  0.00    +0.000 C 
BRANCH  26  27
ATOM     27  C   UNL     1      -5.832  12.116  17.705  0.00  0.00    +0.000 C 
ATOM     28  C   UNL     1      -6.914  12.400  18.462  0.00  0.00    +0.000 C 
ATOM     29  C   UNL     1      -7.242  11.742  19.779  0.00  0.00    +0.000 C 
ATOM     30  C   UNL     1      -7.916  13.430  18.020  0.00  0.00    +0.000 C 
ENDBRANCH  26  27
ENDBRANCH   6  26
TORSDOF 6
ENDMDL
MODEL 7
REMARK VINA RESULT:      -6.5      1.012      1.078
REMARK  Name = 
REMARK  10 active torsions:
REMARK  status: ('A' for Active; 'I' for Inactive)
REMARK    1  A    between atoms: C_1  and  O_2
REMARK    2  A    between atoms: O_2  and  C_3
REMARK    3  A    between atoms: C_7  and  O_8
REMARK    4  A    between atoms: O_8  and  C_9
REMARK    5  A    between atoms: C_10  and  C_11
REMARK    6  A    between atoms: C_11  and  C_12
REMARK    7  A    between atoms: C_13  and  C_14
REMARK    8  A    between atoms: C_13  and  C_15
REMARK    9  A    between atoms: C_20  and  O_21
REMARK   10  A    between atoms: C_25  and  O_26
REMARK                            x       y       z     vdW  Elec       q    Type
REMARK                         _______ _______ _______ _____ _____    ______ ____
ROOT
ATOM      1  C   UNL     1       2.522   4.272  19.101  0.00  0.00    +0.000 A 
ATOM      2  C   UNL     1       3.700   3.856  19.704  0.00  0.00    +0.000 A 
ATOM      3  C   UNL     1       4.858   4.097  19.010  0.00  0.00    +0.000 A 
ATOM      4  C   UNL     1       4.811   4.304  17.645  0.00  0.00    +0.000 A 
ATOM      5  C   UNL     1       3.775   5.122  17.216  0.00  0.00    +0.000 A 
ATOM      6  C   UNL     1       2.632   5.198  18.043  0.00  0.00    +0.000 A 
ATOM      7  C   UNL     1       6.111   3.918  17.010  0.00  0.00    +0.000 C 
ATOM      8  C   UNL     1       6.282   4.075  15.557  0.00  0.00    +0.000 A 
ATOM      9  C   UNL     1       5.737   3.297  14.547  0.00  0.00    +0.000 A 
ATOM     10  C   UNL     1       6.114   3.584  13.235  0.00  0.00    +0.000 A 
ATOM     11  C   UNL     1       7.010   4.631  12.989  0.00  0.00    +0.000 A 
ATOM     12  C   UNL     1       7.537   5.417  14.027  0.00  0.00    +0.000 A 
ATOM     13  C   UNL     1       7.161   5.117  15.319  0.00  0.00    +0.000 A 
ATOM     14  O   UNL     1       7.591   5.750  16.476  0.00  0.00    +0.000 OA
ATOM     15  C   UNL     1       7.249   4.813  17.536  0.00  0.00    +0.000 C 
ATOM     16  C   UNL     1       6.765   5.428  18.876  0.00  0.00    +0.000 C 
ATOM     17  O   UNL     1       6.044   4.390  19.656  0.00  0.00    +0.000 OA
ENDROOT
BRANCH   1  19
ATOM     18  C   UNL     1       0.776   2.747  19.279  0.00  0.00    +0.000 C 
ATOM     19  O   UNL     1       1.297   4.028  19.658  0.00  0.00    +0.000 OA
ENDBRANCH   1  19
BRANCH   5  20
ATOM     20  O   UNL     1       4.157   6.067  16.301  0.00  0.00    +0.000 OA
ATOM     21  C   UNL     1       4.844   7.218  16.763  0.00  0.00    +0.000 C 
ENDBRANCH   5  20
BRANCH  11  22
ATOM     22  O   UNL     1       7.397   4.900  11.704  0.00  0.00    +0.000 OA
ATOM     23  H   UNL     1       6.659   4.726  11.107  0.00  0.00    +0.000 HD
ENDBRANCH  11  22
BRANCH  15  24
ATOM     24  O   UNL     1       8.426   4.053  17.861  0.00  0.00    +0.000 OA
ATOM     25  H   UNL     1       8.203   3.537  18.654  0.00  0.00    +0.000 HD
ENDBRANCH  15  24
BRANCH   6  26
ATOM     26  C   UNL     1       1.828   6.481  18.192  0.00  0.00    +0.000 C 
BRANCH  26  27
ATOM     27  C   UNL     1       2.573   7.772  18.066  0.00  0.00    +0.000 C 
ATOM     28  C   UNL     1       1.994   8.988  17.954  0.00  0.00    +0.000 C 
ATOM     29  C   UNL     1       0.507   9.232  17.891  0.00  0.00    +0.000 C 
ATOM     30  C   UNL     1       2.829  10.235  17.872  0.00  0.00    +0.000 C 
ENDBRANCH  26  27
ENDBRANCH   6  26
TORSDOF 6
ENDMDL
MODEL 8
REMARK VINA RESULT:      -6.4      8.046     10.518
REMARK  Name = 
REMARK  10 active torsions:
REMARK  status: ('A' for Active; 'I' for Inactive)
REMARK    1  A    between atoms: C_1  and  O_2
REMARK    2  A    between atoms: O_2  and  C_3
REMARK    3  A    between atoms: C_7  and  O_8
REMARK    4  A    between atoms: O_8  and  C_9
REMARK    5  A    between atoms: C_10  and  C_11
REMARK    6  A    between atoms: C_11  and  C_12
REMARK    7  A    between atoms: C_13  and  C_14
REMARK    8  A    between atoms: C_13  and  C_15
REMARK    9  A    between atoms: C_20  and  O_21
REMARK   10  A    between atoms: C_25  and  O_26
REMARK                            x       y       z     vdW  Elec       q    Type
REMARK                         _______ _______ _______ _____ _____    ______ ____
ROOT
ATOM      1  C   UNL     1      -0.379  15.261  21.660  0.00  0.00    +0.000 A 
ATOM      2  C   UNL     1      -0.317  14.114  22.437  0.00  0.00    +0.000 A 
ATOM      3  C   UNL     1      -0.363  12.919  21.765  0.00  0.00    +0.000 A 
ATOM      4  C   UNL     1      -0.893  12.868  20.490  0.00  0.00    +0.000 A 
ATOM      5  C   UNL     1      -0.509  13.911  19.659  0.00  0.00    +0.000 A 
ATOM      6  C   UNL     1      -0.123  15.120  20.281  0.00  0.00    +0.000 A 
ATOM      7  C   UNL     1      -1.430  11.502  20.199  0.00  0.00    +0.000 C 
ATOM      8  C   UNL     1      -2.028  11.224  18.883  0.00  0.00    +0.000 A 
ATOM      9  C   UNL     1      -3.260  11.640  18.403  0.00  0.00    +0.000 A 
ATOM     10  C   UNL     1      -3.656  11.176  17.148  0.00  0.00    +0.000 A 
ATOM     11  C   UNL     1      -2.807  10.325  16.430  0.00  0.00    +0.000 A 
ATOM     12  C   UNL     1      -1.556   9.929  16.929  0.00  0.00    +0.000 A 
ATOM     13  C   UNL     1      -1.182  10.389  18.174  0.00  0.00    +0.000 A 
ATOM     14  O   UNL     1      -0.008  10.091  18.849  0.00  0.00    +0.000 OA
ATOM     15  C   UNL     1      -0.293  10.463  20.228  0.00  0.00    +0.000 C 
ATOM     16  C   UNL     1       0.876  11.087  21.034  0.00  0.00    +0.000 C 
ATOM     17  O   UNL     1       0.327  11.808  22.211  0.00  0.00    +0.000 OA
ENDROOT
BRANCH   1  19
ATOM     18  C   UNL     1      -1.695  17.133  22.070  0.00  0.00    +0.000 C 
ATOM     19  O   UNL     1      -0.412  16.511  22.215  0.00  0.00    +0.000 OA
ENDBRANCH   1  19
BRANCH   5  20
ATOM     20  O   UNL     1      -0.139  13.513  18.402  0.00  0.00    +0.000 OA
ATOM     21  C   UNL     1       1.231  13.246  18.153  0.00  0.00    +0.000 C 
ENDBRANCH   5  20
BRANCH  11  22
ATOM     22  O   UNL     1      -3.204   9.852  15.208  0.00  0.00    +0.000 OA
ATOM     23  H   UNL     1      -2.514  10.029  14.558  0.00  0.00    +0.000 HD
ENDBRANCH  11  22
BRANCH  15  24
ATOM     24  O   UNL     1      -0.668   9.273  20.945  0.00  0.00    +0.000 OA
ATOM     25  H   UNL     1      -0.493   8.530  20.343  0.00  0.00    +0.000 HD
ENDBRANCH  15  24
BRANCH   6  26
ATOM     26  C   UNL     1       0.975  16.006  19.711  0.00  0.00    +0.000 C 
BRANCH  26  27
ATOM     27  C   UNL     1       0.567  17.035  18.704  0.00  0.00    +0.000 C 
ATOM     28  C   UNL     1       1.327  17.436  17.662  0.00  0.00    +0.000 C 
ATOM     29  C   UNL     1       2.724  16.946  17.374  0.00  0.00    +0.000 C 
ATOM     30  C   UNL     1       0.813  18.451  16.678  0.00  0.00    +0.000 C 
ENDBRANCH  26  27
ENDBRANCH   6  26
TORSDOF 6
ENDMDL
MODEL 9
REMARK VINA RESULT:      -6.4      8.131     11.050
REMARK  Name = 
REMARK  10 active torsions:
REMARK  status: ('A' for Active; 'I' for Inactive)
REMARK    1  A    between atoms: C_1  and  O_2
REMARK    2  A    between atoms: O_2  and  C_3
REMARK    3  A    between atoms: C_7  and  O_8
REMARK    4  A    between atoms: O_8  and  C_9
REMARK    5  A    between atoms: C_10  and  C_11
REMARK    6  A    between atoms: C_11  and  C_12
REMARK    7  A    between atoms: C_13  and  C_14
REMARK    8  A    between atoms: C_13  and  C_15
REMARK    9  A    between atoms: C_20  and  O_21
REMARK   10  A    between atoms: C_25  and  O_26
REMARK                            x       y       z     vdW  Elec       q    Type
REMARK                         _______ _______ _______ _____ _____    ______ ____
ROOT
ATOM      1  C   UNL     1      -2.484  10.227  17.081  0.00  0.00    +0.000 A 
ATOM      2  C   UNL     1      -1.309   9.756  17.647  0.00  0.00    +0.000 A 
ATOM      3  C   UNL     1      -0.779  10.506  18.666  0.00  0.00    +0.000 A 
ATOM      4  C   UNL     1      -1.127  11.837  18.792  0.00  0.00    +0.000 A 
ATOM      5  C   UNL     1      -2.476  12.106  18.602  0.00  0.00    +0.000 A 
ATOM      6  C   UNL     1      -3.208  11.193  17.810  0.00  0.00    +0.000 A 
ATOM      7  C   UNL     1      -0.041  12.600  19.483  0.00  0.00    +0.000 C 
ATOM      8  C   UNL     1      -0.216  14.039  19.735  0.00  0.00    +0.000 A 
ATOM      9  C   UNL     1      -0.147  15.078  18.820  0.00  0.00    +0.000 A 
ATOM     10  C   UNL     1      -0.258  16.380  19.308  0.00  0.00    +0.000 A 
ATOM     11  C   UNL     1      -0.435  16.587  20.682  0.00  0.00    +0.000 A 
ATOM     12  C   UNL     1      -0.518  15.519  21.590  0.00  0.00    +0.000 A 
ATOM     13  C   UNL     1      -0.399  14.238  21.093  0.00  0.00    +0.000 A 
ATOM     14  O   UNL     1      -0.423  13.060  21.823  0.00  0.00    +0.000 OA
ATOM     15  C   UNL     1       0.151  12.074  20.919  0.00  0.00    +0.000 C 
ATOM     16  C   UNL     1      -0.460  10.649  20.968  0.00  0.00    +0.000 C 
ATOM     17  O   UNL     1      -0.105   9.923  19.722  0.00  0.00    +0.000 OA
ENDROOT
BRANCH   1  19
ATOM     18  C   UNL     1      -3.022  10.410  14.826  0.00  0.00    +0.000 C 
ATOM     19  O   UNL     1      -3.074   9.608  16.013  0.00  0.00    +0.000 OA
ENDBRANCH   1  19
BRANCH   5  20
ATOM     20  O   UNL     1      -3.010  12.949  19.539  0.00  0.00    +0.000 OA
ATOM     21  C   UNL     1      -3.601  12.386  20.699  0.00  0.00    +0.000 C 
ENDBRANCH   5  20
BRANCH  11  22
ATOM     22  O   UNL     1      -0.522  17.865  21.165  0.00  0.00    +0.000 OA
ATOM     23  H   UNL     1       0.268  18.356  20.910  0.00  0.00    +0.000 HD
ENDBRANCH  11  22
BRANCH  15  24
ATOM     24  O   UNL     1       1.541  11.914  21.252  0.00  0.00    +0.000 OA
ATOM     25  H   UNL     1       1.973  12.751  21.013  0.00  0.00    +0.000 HD
ENDBRANCH  15  24
BRANCH   6  26
ATOM     26  C   UNL     1      -4.663  10.861  18.099  0.00  0.00    +0.000 C 
BRANCH  26  27
ATOM     27  C   UNL     1      -5.691  11.857  17.661  0.00  0.00    +0.000 C 
ATOM     28  C   UNL     1      -6.788  12.196  18.374  0.00  0.00    +0.000 C 
ATOM     29  C   UNL     1      -7.176  11.590  19.700  0.00  0.00    +0.000 C 
ATOM     30  C   UNL     1      -7.745  13.239  17.868  0.00  0.00    +0.000 C 
ENDBRANCH  26  27
ENDBRANCH   6  26
TORSDOF 6
ENDMDL
