MODEL 1
REMARK VINA RESULT:      -7.8      0.000      0.000
REMARK  Name = 
REMARK  8 active torsions:
REMARK  status: ('A' for Active; 'I' for Inactive)
REMARK    1  A    between atoms: C_1  and  C_2
REMARK    2  A    between atoms: C_2  and  C_3
REMARK    3  A    between atoms: C_2  and  C_4
REMARK    4  A    between atoms: C_4  and  N_5
REMARK    5  A    between atoms: C_10  and  C_11
REMARK    6  A    between atoms: N_14  and  C_15
REMARK    7  A    between atoms: C_15  and  C_16
REMARK    8  A    between atoms: N_25  and  C_26
REMARK                            x       y       z     vdW  Elec       q    Type
REMARK                         _______ _______ _______ _____ _____    ______ ____
ROOT
ATOM      1  N   UNL     1      -0.748  11.916  22.142  0.00  0.00    +0.000 N 
ATOM      2  C   UNL     1      -0.481  10.574  22.446  0.00  0.00    +0.000 A 
ATOM      3  O   UNL     1      -0.850   9.989  23.454  0.00  0.00    +0.000 OA
ATOM      4  C   UNL     1       0.272   9.933  21.437  0.00  0.00    +0.000 A 
ATOM      5  N   UNL     1       0.705   8.644  21.358  0.00  0.00    +0.000 N 
ATOM      6  C   UNL     1       1.398   8.526  20.181  0.00  0.00    +0.000 A 
ATOM      7  N   UNL     1       1.406   9.668  19.514  0.00  0.00    +0.000 NA
ATOM      8  C   UNL     1       0.681  10.527  20.288  0.00  0.00    +0.000 A 
ATOM      9  N   UNL     1       0.335  11.823  20.000  0.00  0.00    +0.000 N 
ATOM     10  C   UNL     1       0.621  12.431  18.715  0.00  0.00    +0.000 C 
ATOM     11  C   UNL     1      -0.381  12.567  20.945  0.00  0.00    +0.000 A 
ATOM     12  O   UNL     1      -0.692  13.741  20.726  0.00  0.00    +0.000 OA
ATOM     13  H   UNL     1       0.538   7.916  22.041  0.00  0.00    +0.000 HD
ENDROOT
BRANCH   6  14
ATOM     14  C   UNL     1       2.052   7.279  19.736  0.00  0.00    +0.000 A 
ATOM     15  C   UNL     1       2.078   6.016  20.355  0.00  0.00    +0.000 A 
ATOM     16  N   UNL     1       2.814   5.136  19.671  0.00  0.00    +0.000 NA
ATOM     17  N   UNL     1       3.246   5.843  18.599  0.00  0.00    +0.000 N 
ATOM     18  C   UNL     1       2.792   7.132  18.589  0.00  0.00    +0.000 A 
BRANCH  17  19
ATOM     19  C   UNL     1       4.227   5.261  17.693  0.00  0.00    +0.000 C 
BRANCH  19  20
ATOM     20  C   UNL     1       5.624   5.777  17.923  0.00  0.00    +0.000 A 
ATOM     21  C   UNL     1       6.130   6.833  17.148  0.00  0.00    +0.000 A 
ATOM     22  C   UNL     1       7.375   7.393  17.441  0.00  0.00    +0.000 A 
ATOM     23  C   UNL     1       8.125   6.909  18.511  0.00  0.00    +0.000 A 
ATOM     24  C   UNL     1       7.646   5.844  19.272  0.00  0.00    +0.000 A 
ATOM     25  C   UNL     1       6.408   5.275  18.973  0.00  0.00    +0.000 A 
ENDBRANCH  19  20
ENDBRANCH  17  19
ENDBRANCH   6  14
BRANCH   1  26
ATOM     26  C   UNL     1      -1.494  12.684  23.131  0.00  0.00    +0.000 C 
BRANCH  26  28
ATOM     27  C   UNL     1      -3.618  12.949  24.448  0.00  0.00    +0.000 C 
ATOM     28  C   UNL     1      -2.990  12.312  23.205  0.00  0.00    +0.000 C 
ATOM     29  C   UNL     1      -3.776  12.744  21.964  0.00  0.00    +0.000 C 
ENDBRANCH  26  28
ENDBRANCH   1  26
TORSDOF 5
ENDMDL
MODEL 2
REMARK VINA RESULT:      -7.8      1.361      1.838
REMARK  Name = 
REMARK  8 active torsions:
REMARK  status: ('A' for Active; 'I' for Inactive)
REMARK    1  A    between atoms: C_1  and  C_2
REMARK    2  A    between atoms: C_2  and  C_3
REMARK    3  A    between atoms: C_2  and  C_4
REMARK    4  A    between atoms: C_4  and  N_5
REMARK    5  A    between atoms: C_10  and  C_11
REMARK    6  A    between atoms: N_14  and  C_15
REMARK    7  A    between atoms: C_15  and  C_16
REMARK    8  A    between atoms: N_25  and  C_26
REMARK                            x       y       z     vdW  Elec       q    Type
REMARK                         _______ _______ _______ _____ _____    ______ ____
ROOT
ATOM      1  N   UNL     1      -0.223  11.360  21.791  0.00  0.00    +0.000 N 
ATOM      2  C   UNL     1      -0.151  10.047  22.275  0.00  0.00    +0.000 A 
ATOM      3  O   UNL     1      -0.653   9.646  23.315  0.00  0.00    +0.000 OA
ATOM      4  C   UNL     1       0.574   9.194  21.412  0.00  0.00    +0.000 A 
ATOM      5  N   UNL     1       0.840   7.863  21.524  0.00  0.00    +0.000 N 
ATOM      6  C   UNL     1       1.583   7.510  20.426  0.00  0.00    +0.000 A 
ATOM      7  N   UNL     1       1.779   8.547  19.628  0.00  0.00    +0.000 NA
ATOM      8  C   UNL     1       1.125   9.580  20.234  0.00  0.00    +0.000 A 
ATOM      9  N   UNL     1       0.967  10.860  19.765  0.00  0.00    +0.000 N 
ATOM     10  C   UNL     1       1.407  11.256  18.441  0.00  0.00    +0.000 C 
ATOM     11  C   UNL     1       0.298  11.801  20.555  0.00  0.00    +0.000 A 
ATOM     12  O   UNL     1       0.154  12.965  20.172  0.00  0.00    +0.000 OA
ATOM     13  H   UNL     1       0.539   7.255  22.275  0.00  0.00    +0.000 HD
ENDROOT
BRANCH   6  14
ATOM     14  C   UNL     1       2.096   6.146  20.187  0.00  0.00    +0.000 A 
ATOM     15  C   UNL     1       1.518   4.907  20.514  0.00  0.00    +0.000 A 
ATOM     16  N   UNL     1       2.303   3.880  20.178  0.00  0.00    +0.000 NA
ATOM     17  N   UNL     1       3.384   4.475  19.616  0.00  0.00    +0.000 N 
ATOM     18  C   UNL     1       3.289   5.838  19.582  0.00  0.00    +0.000 A 
BRANCH  17  19
ATOM     19  C   UNL     1       4.552   3.676  19.268  0.00  0.00    +0.000 C 
BRANCH  19  20
ATOM     20  C   UNL     1       5.234   4.144  18.008  0.00  0.00    +0.000 A 
ATOM     21  C   UNL     1       6.535   4.669  18.054  0.00  0.00    +0.000 A 
ATOM     22  C   UNL     1       7.213   4.987  16.876  0.00  0.00    +0.000 A 
ATOM     23  C   UNL     1       6.603   4.780  15.641  0.00  0.00    +0.000 A 
ATOM     24  C   UNL     1       5.302   4.284  15.582  0.00  0.00    +0.000 A 
ATOM     25  C   UNL     1       4.618   3.978  16.758  0.00  0.00    +0.000 A 
ENDBRANCH  19  20
ENDBRANCH  17  19
ENDBRANCH   6  14
BRANCH   1  26
ATOM     26  C   UNL     1      -0.923  12.335  22.619  0.00  0.00    +0.000 C 
BRANCH  26  28
ATOM     27  C   UNL     1      -3.206  12.179  23.657  0.00  0.00    +0.000 C 
ATOM     28  C   UNL     1      -2.441  12.402  22.349  0.00  0.00    +0.000 C 
ATOM     29  C   UNL     1      -2.879  13.729  21.726  0.00  0.00    +0.000 C 
ENDBRANCH  26  28
ENDBRANCH   1  26
TORSDOF 5
ENDMDL
MODEL 3
REMARK VINA RESULT:      -7.7      2.411      3.730
REMARK  Name = 
REMARK  8 active torsions:
REMARK  status: ('A' for Active; 'I' for Inactive)
REMARK    1  A    between atoms: C_1  and  C_2
REMARK    2  A    between atoms: C_2  and  C_3
REMARK    3  A    between atoms: C_2  and  C_4
REMARK    4  A    between atoms: C_4  and  N_5
REMARK    5  A    between atoms: C_10  and  C_11
REMARK    6  A    between atoms: N_14  and  C_15
REMARK    7  A    between atoms: C_15  and  C_16
REMARK    8  A    between atoms: N_25  and  C_26
REMARK                            x       y       z     vdW  Elec       q    Type
REMARK                         _______ _______ _______ _____ _____    ______ ____
ROOT
ATOM      1  N   UNL     1      -2.374  13.130  21.344  0.00  0.00    +0.000 N 
ATOM      2  C   UNL     1      -1.146  12.526  21.645  0.00  0.00    +0.000 A 
ATOM      3  O   UNL     1      -0.478  12.737  22.647  0.00  0.00    +0.000 OA
ATOM      4  C   UNL     1      -0.740  11.607  20.651  0.00  0.00    +0.000 A 
ATOM      5  N   UNL     1       0.367  10.817  20.594  0.00  0.00    +0.000 N 
ATOM      6  C   UNL     1       0.295  10.111  19.420  0.00  0.00    +0.000 A 
ATOM      7  N   UNL     1      -0.807  10.406  18.751  0.00  0.00    +0.000 NA
ATOM      8  C   UNL     1      -1.457  11.313  19.536  0.00  0.00    +0.000 A 
ATOM      9  N   UNL     1      -2.688  11.877  19.319  0.00  0.00    +0.000 N 
ATOM     10  C   UNL     1      -3.543  11.464  18.222  0.00  0.00    +0.000 C 
ATOM     11  C   UNL     1      -3.175  12.831  20.221  0.00  0.00    +0.000 A 
ATOM     12  O   UNL     1      -4.270  13.370  20.046  0.00  0.00    +0.000 OA
ATOM     13  H   UNL     1       1.098  10.763  21.292  0.00  0.00    +0.000 HD
ENDROOT
BRANCH   6  14
ATOM     14  C   UNL     1       1.328   9.154  18.974  0.00  0.00    +0.000 A 
ATOM     15  C   UNL     1       2.002   9.080  17.742  0.00  0.00    +0.000 A 
ATOM     16  N   UNL     1       2.843   8.045  17.689  0.00  0.00    +0.000 NA
ATOM     17  N   UNL     1       2.714   7.464  18.907  0.00  0.00    +0.000 N 
ATOM     18  C   UNL     1       1.827   8.114  19.719  0.00  0.00    +0.000 A 
BRANCH  17  19
ATOM     19  C   UNL     1       3.361   6.187  19.175  0.00  0.00    +0.000 C 
BRANCH  19  20
ATOM     20  C   UNL     1       2.385   5.045  19.305  0.00  0.00    +0.000 A 
ATOM     21  C   UNL     1       1.969   4.331  18.171  0.00  0.00    +0.000 A 
ATOM     22  C   UNL     1       1.163   3.198  18.303  0.00  0.00    +0.000 A 
ATOM     23  C   UNL     1       0.770   2.764  19.567  0.00  0.00    +0.000 A 
ATOM     24  C   UNL     1       1.155   3.480  20.700  0.00  0.00    +0.000 A 
ATOM     25  C   UNL     1       1.949   4.619  20.569  0.00  0.00    +0.000 A 
ENDBRANCH  19  20
ENDBRANCH  17  19
ENDBRANCH   6  14
BRANCH   1  26
ATOM     26  C   UNL     1      -2.874  14.122  22.288  0.00  0.00    +0.000 C 
BRANCH  26  28
ATOM     27  C   UNL     1      -3.179  14.246  24.780  0.00  0.00    +0.000 C 
ATOM     28  C   UNL     1      -3.600  13.509  23.505  0.00  0.00    +0.000 C 
ATOM     29  C   UNL     1      -5.124  13.552  23.375  0.00  0.00    +0.000 C 
ENDBRANCH  26  28
ENDBRANCH   1  26
TORSDOF 5
ENDMDL
MODEL 4
REMARK VINA RESULT:      -7.6      2.200      3.595
REMARK  Name = 
REMARK  8 active torsions:
REMARK  status: ('A' for Active; 'I' for Inactive)
REMARK    1  A    between atoms: C_1  and  C_2
REMARK    2  A    between atoms: C_2  and  C_3
REMARK    3  A    between atoms: C_2  and  C_4
REMARK    4  A    between atoms: C_4  and  N_5
REMARK    5  A    between atoms: C_10  and  C_11
REMARK    6  A    between atoms: N_14  and  C_15
REMARK    7  A    between atoms: C_15  and  C_16
REMARK    8  A    between atoms: N_25  and  C_26
REMARK                            x       y       z     vdW  Elec       q    Type
REMARK                         _______ _______ _______ _____ _____    ______ ____
ROOT
ATOM      1  N   UNL     1      -2.030  12.348  21.615  0.00  0.00    +0.000 N 
ATOM      2  C   UNL     1      -0.964  11.513  21.979  0.00  0.00    +0.000 A 
ATOM      3  O   UNL     1      -0.528  11.374  23.113  0.00  0.00    +0.000 OA
ATOM      4  C   UNL     1      -0.428  10.813  20.875  0.00  0.00    +0.000 A 
ATOM      5  N   UNL     1       0.587   9.906  20.828  0.00  0.00    +0.000 N 
ATOM      6  C   UNL     1       0.721   9.524  19.518  0.00  0.00    +0.000 A 
ATOM      7  N   UNL     1      -0.166  10.132  18.748  0.00  0.00    +0.000 NA
ATOM      8  C   UNL     1      -0.893  10.908  19.604  0.00  0.00    +0.000 A 
ATOM      9  N   UNL     1      -1.985  11.684  19.307  0.00  0.00    +0.000 N 
ATOM     10  C   UNL     1      -2.599  11.681  17.994  0.00  0.00    +0.000 C 
ATOM     11  C   UNL     1      -2.575  12.451  20.318  0.00  0.00    +0.000 A 
ATOM     12  O   UNL     1      -3.548  13.173  20.081  0.00  0.00    +0.000 OA
ATOM     13  H   UNL     1       1.130   9.576  21.616  0.00  0.00    +0.000 HD
ENDROOT
BRANCH   6  14
ATOM     14  C   UNL     1       1.737   8.562  19.044  0.00  0.00    +0.000 A 
ATOM     15  C   UNL     1       2.362   8.472  17.788  0.00  0.00    +0.000 A 
ATOM     16  N   UNL     1       3.202   7.436  17.716  0.00  0.00    +0.000 NA
ATOM     17  N   UNL     1       3.120   6.872  18.946  0.00  0.00    +0.000 N 
ATOM     18  C   UNL     1       2.265   7.532  19.783  0.00  0.00    +0.000 A 
BRANCH  17  19
ATOM     19  C   UNL     1       3.778   5.598  19.204  0.00  0.00    +0.000 C 
BRANCH  19  20
ATOM     20  C   UNL     1       2.823   4.432  19.228  0.00  0.00    +0.000 A 
ATOM     21  C   UNL     1       1.995   4.212  20.341  0.00  0.00    +0.000 A 
ATOM     22  C   UNL     1       1.025   3.209  20.314  0.00  0.00    +0.000 A 
ATOM     23  C   UNL     1       0.867   2.419  19.177  0.00  0.00    +0.000 A 
ATOM     24  C   UNL     1       1.700   2.610  18.076  0.00  0.00    +0.000 A 
ATOM     25  C   UNL     1       2.678   3.603  18.105  0.00  0.00    +0.000 A 
ENDBRANCH  19  20
ENDBRANCH  17  19
ENDBRANCH   6  14
BRANCH   1  26
ATOM     26  C   UNL     1      -2.640  13.144  22.673  0.00  0.00    +0.000 C 
BRANCH  26  28
ATOM     27  C   UNL     1      -2.960  15.635  22.588  0.00  0.00    +0.000 C 
ATOM     28  C   UNL     1      -1.961  14.514  22.888  0.00  0.00    +0.000 C 
ATOM     29  C   UNL     1      -1.411  14.692  24.305  0.00  0.00    +0.000 C 
ENDBRANCH  26  28
ENDBRANCH   1  26
TORSDOF 5
ENDMDL
MODEL 5
REMARK VINA RESULT:      -7.6      3.138      9.518
REMARK  Name = 
REMARK  8 active torsions:
REMARK  status: ('A' for Active; 'I' for Inactive)
REMARK    1  A    between atoms: C_1  and  C_2
REMARK    2  A    between atoms: C_2  and  C_3
REMARK    3  A    between atoms: C_2  and  C_4
REMARK    4  A    between atoms: C_4  and  N_5
REMARK    5  A    between atoms: C_10  and  C_11
REMARK    6  A    between atoms: N_14  and  C_15
REMARK    7  A    between atoms: C_15  and  C_16
REMARK    8  A    between atoms: N_25  and  C_26
REMARK                            x       y       z     vdW  Elec       q    Type
REMARK                         _______ _______ _______ _____ _____    ______ ____
ROOT
ATOM      1  N   UNL     1       4.266   4.873  17.911  0.00  0.00    +0.000 N 
ATOM      2  C   UNL     1       3.875   6.187  17.618  0.00  0.00    +0.000 A 
ATOM      3  O   UNL     1       4.203   6.819  16.624  0.00  0.00    +0.000 OA
ATOM      4  C   UNL     1       3.027   6.730  18.609  0.00  0.00    +0.000 A 
ATOM      5  N   UNL     1       2.431   7.953  18.672  0.00  0.00    +0.000 N 
ATOM      6  C   UNL     1       1.712   7.988  19.839  0.00  0.00    +0.000 A 
ATOM      7  N   UNL     1       1.815   6.847  20.499  0.00  0.00    +0.000 NA
ATOM      8  C   UNL     1       2.609   6.062  19.714  0.00  0.00    +0.000 A 
ATOM      9  N   UNL     1       2.960   4.753  19.924  0.00  0.00    +0.000 N 
ATOM     10  C   UNL     1       2.402   3.969  21.008  0.00  0.00    +0.000 C 
ATOM     11  C   UNL     1       3.828   4.123  19.024  0.00  0.00    +0.000 A 
ATOM     12  O   UNL     1       4.177   2.952  19.192  0.00  0.00    +0.000 OA
ATOM     13  H   UNL     1       2.505   8.689  17.981  0.00  0.00    +0.000 HD
ENDROOT
BRANCH   6  14
ATOM     14  C   UNL     1       0.935   9.161  20.289  0.00  0.00    +0.000 A 
ATOM     15  C   UNL     1       0.164   9.327  21.453  0.00  0.00    +0.000 A 
ATOM     16  N   UNL     1      -0.433  10.521  21.495  0.00  0.00    +0.000 NA
ATOM     17  N   UNL     1      -0.024  11.125  20.353  0.00  0.00    +0.000 N 
ATOM     18  C   UNL     1       0.819  10.348  19.609  0.00  0.00    +0.000 A 
BRANCH  17  19
ATOM     19  C   UNL     1      -0.607  12.400  19.958  0.00  0.00    +0.000 C 
BRANCH  19  20
ATOM     20  C   UNL     1      -2.013  12.269  19.431  0.00  0.00    +0.000 A 
ATOM     21  C   UNL     1      -2.256  11.654  18.192  0.00  0.00    +0.000 A 
ATOM     22  C   UNL     1      -3.563  11.422  17.760  0.00  0.00    +0.000 A 
ATOM     23  C   UNL     1      -4.640  11.796  18.561  0.00  0.00    +0.000 A 
ATOM     24  C   UNL     1      -4.414  12.432  19.780  0.00  0.00    +0.000 A 
ATOM     25  C   UNL     1      -3.109  12.676  20.208  0.00  0.00    +0.000 A 
ENDBRANCH  19  20
ENDBRANCH  17  19
ENDBRANCH   6  14
BRANCH   1  26
ATOM     26  C   UNL     1       5.170   4.224  16.969  0.00  0.00    +0.000 C 
BRANCH  26  28
ATOM     27  C   UNL     1       7.529   4.606  17.747  0.00  0.00    +0.000 C 
ATOM     28  C   UNL     1       6.472   5.014  16.716  0.00  0.00    +0.000 C 
ATOM     29  C   UNL     1       7.033   4.805  15.307  0.00  0.00    +0.000 C 
ENDBRANCH  26  28
ENDBRANCH   1  26
TORSDOF 5
ENDMDL
MODEL 6
REMARK VINA RESULT:      -7.6      2.056      3.414
REMARK  Name = 
REMARK  8 active torsions:
REMARK  status: ('A' for Active; 'I' for Inactive)
REMARK    1  A    between atoms: C_1  and  C_2
REMARK    2  A    between atoms: C_2  and  C_3
REMARK    3  A    between atoms: C_2  and  C_4
REMARK    4  A    between atoms: C_4  and  N_5
REMARK    5  A    between atoms: C_10  and  C_11
REMARK    6  A    between atoms: N_14  and  C_15
REMARK    7  A    between atoms: C_15  and  C_16
REMARK    8  A    between atoms: N_25  and  C_26
REMARK                            x       y       z     vdW  Elec       q    Type
REMARK                         _______ _______ _______ _____ _____    ______ ____
ROOT
ATOM      1  N   UNL     1       0.323  11.700  20.327  0.00  0.00    +0.000 N 
ATOM      2  C   UNL     1       1.033  10.865  19.453  0.00  0.00    +0.000 A 
ATOM      3  O   UNL     1       1.496  11.200  18.372  0.00  0.00    +0.000 OA
ATOM      4  C   UNL     1       1.178   9.554  19.959  0.00  0.00    +0.000 A 
ATOM      5  N   UNL     1       1.813   8.476  19.421  0.00  0.00    +0.000 N 
ATOM      6  C   UNL     1       1.662   7.439  20.306  0.00  0.00    +0.000 A 
ATOM      7  N   UNL     1       0.980   7.818  21.374  0.00  0.00    +0.000 NA
ATOM      8  C   UNL     1       0.709   9.139  21.163  0.00  0.00    +0.000 A 
ATOM      9  N   UNL     1       0.083  10.010  22.017  0.00  0.00    +0.000 N 
ATOM     10  C   UNL     1      -0.285   9.636  23.369  0.00  0.00    +0.000 C 
ATOM     11  C   UNL     1      -0.148  11.327  21.604  0.00  0.00    +0.000 A 
ATOM     12  O   UNL     1      -0.725  12.132  22.340  0.00  0.00    +0.000 OA
ATOM     13  H   UNL     1       2.306   8.455  18.537  0.00  0.00    +0.000 HD
ENDROOT
BRANCH   6  14
ATOM     14  C   UNL     1       2.192   6.080  20.074  0.00  0.00    +0.000 A 
ATOM     15  C   UNL     1       1.634   4.836  20.417  0.00  0.00    +0.000 A 
ATOM     16  N   UNL     1       2.431   3.818  20.083  0.00  0.00    +0.000 NA
ATOM     17  N   UNL     1       3.499   4.422  19.507  0.00  0.00    +0.000 N 
ATOM     18  C   UNL     1       3.384   5.783  19.463  0.00  0.00    +0.000 A 
BRANCH  17  19
ATOM     19  C   UNL     1       4.674   3.637  19.157  0.00  0.00    +0.000 C 
BRANCH  19  20
ATOM     20  C   UNL     1       5.345   4.108  17.892  0.00  0.00    +0.000 A 
ATOM     21  C   UNL     1       6.636   4.659  17.932  0.00  0.00    +0.000 A 
ATOM     22  C   UNL     1       7.306   4.981  16.750  0.00  0.00    +0.000 A 
ATOM     23  C   UNL     1       6.697   4.753  15.518  0.00  0.00    +0.000 A 
ATOM     24  C   UNL     1       5.405   4.232  15.465  0.00  0.00    +0.000 A 
ATOM     25  C   UNL     1       4.730   3.921  16.644  0.00  0.00    +0.000 A 
ENDBRANCH  19  20
ENDBRANCH  17  19
ENDBRANCH   6  14
BRANCH   1  26
ATOM     26  C   UNL     1       0.087  13.070  19.889  0.00  0.00    +0.000 C 
BRANCH  26  28
ATOM     27  C   UNL     1       1.297  15.044  18.911  0.00  0.00    +0.000 C 
ATOM     28  C   UNL     1       1.325  13.983  20.015  0.00  0.00    +0.000 C 
ATOM     29  C   UNL     1       1.422  14.674  21.378  0.00  0.00    +0.000 C 
ENDBRANCH  26  28
ENDBRANCH   1  26
TORSDOF 5
ENDMDL
MODEL 7
REMARK VINA RESULT:      -7.6      1.293      1.609
REMARK  Name = 
REMARK  8 active torsions:
REMARK  status: ('A' for Active; 'I' for Inactive)
REMARK    1  A    between atoms: C_1  and  C_2
REMARK    2  A    between atoms: C_2  and  C_3
REMARK    3  A    between atoms: C_2  and  C_4
REMARK    4  A    between atoms: C_4  and  N_5
REMARK    5  A    between atoms: C_10  and  C_11
REMARK    6  A    between atoms: N_14  and  C_15
REMARK    7  A    between atoms: C_15  and  C_16
REMARK    8  A    between atoms: N_25  and  C_26
REMARK                            x       y       z     vdW  Elec       q    Type
REMARK                         _______ _______ _______ _____ _____    ______ ____
ROOT
ATOM      1  N   UNL     1      -0.088  11.219  21.642  0.00  0.00    +0.000 N 
ATOM      2  C   UNL     1      -0.042   9.907  22.134  0.00  0.00    +0.000 A 
ATOM      3  O   UNL     1      -0.559   9.522  23.173  0.00  0.00    +0.000 OA
ATOM      4  C   UNL     1       0.674   9.037  21.282  0.00  0.00    +0.000 A 
ATOM      5  N   UNL     1       0.917   7.703  21.404  0.00  0.00    +0.000 N 
ATOM      6  C   UNL     1       1.662   7.331  20.314  0.00  0.00    +0.000 A 
ATOM      7  N   UNL     1       1.882   8.359  19.511  0.00  0.00    +0.000 NA
ATOM      8  C   UNL     1       1.241   9.407  20.106  0.00  0.00    +0.000 A 
ATOM      9  N   UNL     1       1.110  10.686  19.629  0.00  0.00    +0.000 N 
ATOM     10  C   UNL     1       1.567  11.067  18.306  0.00  0.00    +0.000 C 
ATOM     11  C   UNL     1       0.450  11.644  20.408  0.00  0.00    +0.000 A 
ATOM     12  O   UNL     1       0.330  12.807  20.017  0.00  0.00    +0.000 OA
ATOM     13  H   UNL     1       0.600   7.104  22.156  0.00  0.00    +0.000 HD
ENDROOT
BRANCH   6  14
ATOM     14  C   UNL     1       2.153   5.956  20.087  0.00  0.00    +0.000 A 
ATOM     15  C   UNL     1       2.036   4.821  20.908  0.00  0.00    +0.000 A 
ATOM     16  N   UNL     1       2.649   3.756  20.386  0.00  0.00    +0.000 NA
ATOM     17  N   UNL     1       3.147   4.217  19.212  0.00  0.00    +0.000 N 
ATOM     18  C   UNL     1       2.852   5.532  18.984  0.00  0.00    +0.000 A 
BRANCH  17  19
ATOM     19  C   UNL     1       4.037   3.376  18.422  0.00  0.00    +0.000 C 
BRANCH  19  20
ATOM     20  C   UNL     1       5.083   4.162  17.674  0.00  0.00    +0.000 A 
ATOM     21  C   UNL     1       4.901   4.483  16.320  0.00  0.00    +0.000 A 
ATOM     22  C   UNL     1       5.809   5.314  15.660  0.00  0.00    +0.000 A 
ATOM     23  C   UNL     1       6.904   5.835  16.346  0.00  0.00    +0.000 A 
ATOM     24  C   UNL     1       7.112   5.502  17.683  0.00  0.00    +0.000 A 
ATOM     25  C   UNL     1       6.213   4.663  18.340  0.00  0.00    +0.000 A 
ENDBRANCH  19  20
ENDBRANCH  17  19
ENDBRANCH   6  14
BRANCH   1  26
ATOM     26  C   UNL     1      -0.776  12.210  22.459  0.00  0.00    +0.000 C 
BRANCH  26  28
ATOM     27  C   UNL     1      -3.040  12.150  23.549  0.00  0.00    +0.000 C 
ATOM     28  C   UNL     1      -2.299  12.266  22.214  0.00  0.00    +0.000 C 
ATOM     29  C   UNL     1      -2.743  13.544  21.499  0.00  0.00    +0.000 C 
ENDBRANCH  26  28
ENDBRANCH   1  26
TORSDOF 5
ENDMDL
MODEL 8
REMARK VINA RESULT:      -7.5      2.724      4.382
REMARK  Name = 
REMARK  8 active torsions:
REMARK  status: ('A' for Active; 'I' for Inactive)
REMARK    1  A    between atoms: C_1  and  C_2
REMARK    2  A    between atoms: C_2  and  C_3
REMARK    3  A    between atoms: C_2  and  C_4
REMARK    4  A    between atoms: C_4  and  N_5
REMARK    5  A    between atoms: C_10  and  C_11
REMARK    6  A    between atoms: N_14  and  C_15
REMARK    7  A    between atoms: C_15  and  C_16
REMARK    8  A    between atoms: N_25  and  C_26
REMARK                            x       y       z     vdW  Elec       q    Type
REMARK                         _______ _______ _______ _____ _____    ______ ____
ROOT
ATOM      1  N   UNL     1      -3.486  12.158  19.339  0.00  0.00    +0.000 N 
ATOM      2  C   UNL     1      -2.926  11.242  18.438  0.00  0.00    +0.000 A 
ATOM      3  O   UNL     1      -3.440  10.871  17.393  0.00  0.00    +0.000 OA
ATOM      4  C   UNL     1      -1.660  10.776  18.860  0.00  0.00    +0.000 A 
ATOM      5  N   UNL     1      -0.805   9.906  18.254  0.00  0.00    +0.000 N 
ATOM      6  C   UNL     1       0.287   9.783  19.074  0.00  0.00    +0.000 A 
ATOM      7  N   UNL     1       0.166  10.543  20.151  0.00  0.00    +0.000 NA
ATOM      8  C   UNL     1      -1.033  11.176  19.995  0.00  0.00    +0.000 A 
ATOM      9  N   UNL     1      -1.587  12.130  20.811  0.00  0.00    +0.000 N 
ATOM     10  C   UNL     1      -0.870  12.690  21.939  0.00  0.00    +0.000 C 
ATOM     11  C   UNL     1      -2.857  12.636  20.509  0.00  0.00    +0.000 A 
ATOM     12  O   UNL     1      -3.391  13.481  21.231  0.00  0.00    +0.000 OA
ATOM     13  H   UNL     1      -0.953   9.446  17.365  0.00  0.00    +0.000 HD
ENDROOT
BRANCH   6  14
ATOM     14  C   UNL     1       1.438   8.905  18.781  0.00  0.00    +0.000 A 
ATOM     15  C   UNL     1       2.285   8.891  17.658  0.00  0.00    +0.000 A 
ATOM     16  N   UNL     1       3.195   7.916  17.726  0.00  0.00    +0.000 NA
ATOM     17  N   UNL     1       2.933   7.315  18.913  0.00  0.00    +0.000 N 
ATOM     18  C   UNL     1       1.896   7.894  19.589  0.00  0.00    +0.000 A 
BRANCH  17  19
ATOM     19  C   UNL     1       3.623   6.083  19.269  0.00  0.00    +0.000 C 
BRANCH  19  20
ATOM     20  C   UNL     1       2.691   4.908  19.425  0.00  0.00    +0.000 A 
ATOM     21  C   UNL     1       2.329   4.451  20.703  0.00  0.00    +0.000 A 
ATOM     22  C   UNL     1       1.373   3.445  20.850  0.00  0.00    +0.000 A 
ATOM     23  C   UNL     1       0.766   2.888  19.726  0.00  0.00    +0.000 A 
ATOM     24  C   UNL     1       1.136   3.313  18.452  0.00  0.00    +0.000 A 
ATOM     25  C   UNL     1       2.100   4.310  18.302  0.00  0.00    +0.000 A 
ENDBRANCH  19  20
ENDBRANCH  17  19
ENDBRANCH   6  14
BRANCH   1  26
ATOM     26  C   UNL     1      -4.808  12.681  19.018  0.00  0.00    +0.000 C 
BRANCH  26  28
ATOM     27  C   UNL     1      -6.853  12.578  20.476  0.00  0.00    +0.000 C 
ATOM     28  C   UNL     1      -5.965  11.786  19.512  0.00  0.00    +0.000 C 
ATOM     29  C   UNL     1      -6.823  11.235  18.370  0.00  0.00    +0.000 C 
ENDBRANCH  26  28
ENDBRANCH   1  26
TORSDOF 5
ENDMDL
MODEL 9
REMARK VINA RESULT:      -7.5      2.707      4.112
REMARK  Name = 
REMARK  8 active torsions:
REMARK  status: ('A' for Active; 'I' for Inactive)
REMARK    1  A    between atoms: C_1  and  C_2
REMARK    2  A    between atoms: C_2  and  C_3
REMARK    3  A    between atoms: C_2  and  C_4
REMARK    4  A    between atoms: C_4  and  N_5
REMARK    5  A    between atoms: C_10  and  C_11
REMARK    6  A    between atoms: N_14  and  C_15
REMARK    7  A    between atoms: C_15  and  C_16
REMARK    8  A    between atoms: N_25  and  C_26
REMARK                            x       y       z     vdW  Elec       q    Type
REMARK                         _______ _______ _______ _____ _____    ______ ____
ROOT
ATOM      1  N   UNL     1      -3.332  12.939  20.228  0.00  0.00    +0.000 N 
ATOM      2  C   UNL     1      -3.026  11.900  19.338  0.00  0.00    +0.000 A 
ATOM      3  O   UNL     1      -3.775  11.460  18.478  0.00  0.00    +0.000 OA
ATOM      4  C   UNL     1      -1.718  11.398  19.525  0.00  0.00    +0.000 A 
ATOM      5  N   UNL     1      -1.057  10.417  18.851  0.00  0.00    +0.000 N 
ATOM      6  C   UNL     1       0.185  10.307  19.422  0.00  0.00    +0.000 A 
ATOM      7  N   UNL     1       0.339  11.179  20.405  0.00  0.00    +0.000 NA
ATOM      8  C   UNL     1      -0.837  11.870  20.443  0.00  0.00    +0.000 A 
ATOM      9  N   UNL     1      -1.155  12.936  21.245  0.00  0.00    +0.000 N 
ATOM     10  C   UNL     1      -0.182  13.561  22.120  0.00  0.00    +0.000 C 
ATOM     11  C   UNL     1      -2.439  13.491  21.171  0.00  0.00    +0.000 A 
ATOM     12  O   UNL     1      -2.763  14.439  21.891  0.00  0.00    +0.000 OA
ATOM     13  H   UNL     1      -1.418   9.880  18.073  0.00  0.00    +0.000 HD
ENDROOT
BRANCH   6  14
ATOM     14  C   UNL     1       1.204   9.330  18.988  0.00  0.00    +0.000 A 
ATOM     15  C   UNL     1       1.820   9.183  17.732  0.00  0.00    +0.000 A 
ATOM     16  N   UNL     1       2.666   8.151  17.704  0.00  0.00    +0.000 NA
ATOM     17  N   UNL     1       2.598   7.646  18.960  0.00  0.00    +0.000 N 
ATOM     18  C   UNL     1       1.745   8.341  19.771  0.00  0.00    +0.000 A 
BRANCH  17  19
ATOM     19  C   UNL     1       3.268   6.392  19.275  0.00  0.00    +0.000 C 
BRANCH  19  20
ATOM     20  C   UNL     1       2.324   5.218  19.340  0.00  0.00    +0.000 A 
ATOM     21  C   UNL     1       1.963   4.527  18.173  0.00  0.00    +0.000 A 
ATOM     22  C   UNL     1       1.189   3.367  18.246  0.00  0.00    +0.000 A 
ATOM     23  C   UNL     1       0.772   2.883  19.484  0.00  0.00    +0.000 A 
ATOM     24  C   UNL     1       1.100   3.574  20.649  0.00  0.00    +0.000 A 
ATOM     25  C   UNL     1       1.863   4.740  20.577  0.00  0.00    +0.000 A 
ENDBRANCH  19  20
ENDBRANCH  17  19
ENDBRANCH   6  14
BRANCH   1  26
ATOM     26  C   UNL     1      -4.670  13.511  20.145  0.00  0.00    +0.000 C 
BRANCH  26  28
ATOM     27  C   UNL     1      -6.340  13.847  21.993  0.00  0.00    +0.000 C 
ATOM     28  C   UNL     1      -5.700  12.815  21.060  0.00  0.00    +0.000 C 
ATOM     29  C   UNL     1      -6.799  12.090  20.279  0.00  0.00    +0.000 C 
ENDBRANCH  26  28
ENDBRANCH   1  26
TORSDOF 5
ENDMDL
