MODEL 1
REMARK VINA RESULT:      -7.1      0.000      0.000
REMARK  Name = 
REMARK  4 active torsions:
REMARK  status: ('A' for Active; 'I' for Inactive)
REMARK    1  A    between atoms: C_2  and  C_3
REMARK    2  A    between atoms: C_6  and  C_7
REMARK    3  A    between atoms: C_7  and  N_8
REMARK    4  A    between atoms: C_11  and  C_12
REMARK                            x       y       z     vdW  Elec       q    Type
REMARK                         _______ _______ _______ _____ _____    ______ ____
ROOT
ATOM      1  N   UNL     1       5.029   4.945  18.832  0.00  0.00    +0.000 N 
ATOM      2  C   UNL     1       4.289   6.096  18.586  0.00  0.00    +0.000 A 
ATOM      3  O   UNL     1       4.623   6.974  17.794  0.00  0.00    +0.000 OA
ATOM      4  C   UNL     1       3.021   6.218  19.328  0.00  0.00    +0.000 A 
ATOM      5  C   UNL     1       2.553   5.155  19.985  0.00  0.00    +0.000 A 
ATOM      6  N   UNL     1       3.260   3.981  20.022  0.00  0.00    +0.000 N 
ATOM      7  C   UNL     1       4.528   3.820  19.496  0.00  0.00    +0.000 A 
ATOM      8  O   UNL     1       5.143   2.761  19.601  0.00  0.00    +0.000 OA
ATOM      9  C   UNL     1       2.546   2.960  20.781  0.00  0.00    +0.000 C 
ATOM     10  C   UNL     1       1.117   3.487  20.847  0.00  0.00    +0.000 C 
ATOM     11  C   UNL     1       1.260   5.005  20.735  0.00  0.00    +0.000 C 
ENDROOT
BRANCH   4  12
ATOM     12  C   UNL     1       2.225   7.510  19.256  0.00  0.00    +0.000 C 
ATOM     13  N   UNL     1       1.564   8.582  19.196  0.00  0.00    +0.000 NA
ENDBRANCH   4  12
BRANCH   1  14
ATOM     14  C   UNL     1       6.359   4.880  18.253  0.00  0.00    +0.000 C 
BRANCH  14  18
ATOM     15  C   UNL     1       6.410   4.022  14.008  0.00  0.00    +0.000 A 
ATOM     16  C   UNL     1       7.320   4.929  14.558  0.00  0.00    +0.000 A 
ATOM     17  C   UNL     1       7.277   5.224  15.924  0.00  0.00    +0.000 A 
ATOM     18  C   UNL     1       6.331   4.615  16.759  0.00  0.00    +0.000 A 
ATOM     19  C   UNL     1       5.382   3.750  16.188  0.00  0.00    +0.000 A 
ATOM     20  C   UNL     1       5.434   3.444  14.823  0.00  0.00    +0.000 A 
BRANCH  15  22
ATOM     21  N   UNL     1       6.557   3.395  11.495  0.00  0.00    +0.000 NA
ATOM     22  C   UNL     1       6.485   3.679  12.615  0.00  0.00    +0.000 C 
ENDBRANCH  15  22
ENDBRANCH  14  18
ENDBRANCH   1  14
TORSDOF 4
ENDMDL
MODEL 2
REMARK VINA RESULT:      -6.9      0.282      1.064
REMARK  Name = 
REMARK  4 active torsions:
REMARK  status: ('A' for Active; 'I' for Inactive)
REMARK    1  A    between atoms: C_2  and  C_3
REMARK    2  A    between atoms: C_6  and  C_7
REMARK    3  A    between atoms: C_7  and  N_8
REMARK    4  A    between atoms: C_11  and  C_12
REMARK                            x       y       z     vdW  Elec       q    Type
REMARK                         _______ _______ _______ _____ _____    ______ ____
ROOT
ATOM      1  N   UNL     1       5.082   5.144  18.732  0.00  0.00    +0.000 N 
ATOM      2  C   UNL     1       4.331   6.265  18.398  0.00  0.00    +0.000 A 
ATOM      3  O   UNL     1       4.664   7.091  17.553  0.00  0.00    +0.000 OA
ATOM      4  C   UNL     1       3.052   6.419  19.114  0.00  0.00    +0.000 A 
ATOM      5  C   UNL     1       2.589   5.397  19.837  0.00  0.00    +0.000 A 
ATOM      6  N   UNL     1       3.311   4.239  19.963  0.00  0.00    +0.000 N 
ATOM      7  C   UNL     1       4.587   4.060  19.465  0.00  0.00    +0.000 A 
ATOM      8  O   UNL     1       5.216   3.019  19.650  0.00  0.00    +0.000 OA
ATOM      9  C   UNL     1       2.601   3.262  20.782  0.00  0.00    +0.000 C 
ATOM     10  C   UNL     1       1.164   3.771  20.793  0.00  0.00    +0.000 C 
ATOM     11  C   UNL     1       1.288   5.280  20.579  0.00  0.00    +0.000 C 
ENDROOT
BRANCH   4  12
ATOM     12  C   UNL     1       2.239   7.692  18.944  0.00  0.00    +0.000 C 
ATOM     13  N   UNL     1       1.566   8.748  18.803  0.00  0.00    +0.000 NA
ENDBRANCH   4  12
BRANCH   1  14
ATOM     14  C   UNL     1       6.421   5.058  18.175  0.00  0.00    +0.000 C 
BRANCH  14  18
ATOM     15  C   UNL     1       6.274   3.913  14.001  0.00  0.00    +0.000 A 
ATOM     16  C   UNL     1       5.453   3.279  14.939  0.00  0.00    +0.000 A 
ATOM     17  C   UNL     1       5.530   3.633  16.289  0.00  0.00    +0.000 A 
ATOM     18  C   UNL     1       6.419   4.626  16.721  0.00  0.00    +0.000 A 
ATOM     19  C   UNL     1       7.281   5.216  15.781  0.00  0.00    +0.000 A 
ATOM     20  C   UNL     1       7.196   4.871  14.427  0.00  0.00    +0.000 A 
BRANCH  15  22
ATOM     21  N   UNL     1       6.058   3.330  11.482  0.00  0.00    +0.000 NA
ATOM     22  C   UNL     1       6.161   3.587  12.607  0.00  0.00    +0.000 C 
ENDBRANCH  15  22
ENDBRANCH  14  18
ENDBRANCH   1  14
TORSDOF 4
ENDMDL
MODEL 3
REMARK VINA RESULT:      -6.7      1.552      3.172
REMARK  Name = 
REMARK  4 active torsions:
REMARK  status: ('A' for Active; 'I' for Inactive)
REMARK    1  A    between atoms: C_2  and  C_3
REMARK    2  A    between atoms: C_6  and  C_7
REMARK    3  A    between atoms: C_7  and  N_8
REMARK    4  A    between atoms: C_11  and  C_12
REMARK                            x       y       z     vdW  Elec       q    Type
REMARK                         _______ _______ _______ _____ _____    ______ ____
ROOT
ATOM      1  N   UNL     1       4.382   5.058  18.418  0.00  0.00    +0.000 N 
ATOM      2  C   UNL     1       5.096   4.159  19.201  0.00  0.00    +0.000 A 
ATOM      3  O   UNL     1       6.315   4.187  19.345  0.00  0.00    +0.000 OA
ATOM      4  C   UNL     1       4.296   3.138  19.902  0.00  0.00    +0.000 A 
ATOM      5  C   UNL     1       2.969   3.271  19.939  0.00  0.00    +0.000 A 
ATOM      6  N   UNL     1       2.345   4.306  19.291  0.00  0.00    +0.000 N 
ATOM      7  C   UNL     1       2.993   5.217  18.478  0.00  0.00    +0.000 A 
ATOM      8  O   UNL     1       2.382   6.098  17.875  0.00  0.00    +0.000 OA
ATOM      9  C   UNL     1       0.900   4.256  19.485  0.00  0.00    +0.000 C 
ATOM     10  C   UNL     1       0.725   3.329  20.683  0.00  0.00    +0.000 C 
ATOM     11  C   UNL     1       1.955   2.421  20.651  0.00  0.00    +0.000 C 
ENDROOT
BRANCH   4  12
ATOM     12  C   UNL     1       4.993   2.011  20.647  0.00  0.00    +0.000 C 
ATOM     13  N   UNL     1       5.571   1.077  21.264  0.00  0.00    +0.000 NA
ENDBRANCH   4  12
BRANCH   1  14
ATOM     14  C   UNL     1       5.153   5.960  17.581  0.00  0.00    +0.000 C 
BRANCH  14  18
ATOM     15  C   UNL     1       6.390   4.195  13.823  0.00  0.00    +0.000 A 
ATOM     16  C   UNL     1       5.134   3.904  14.364  0.00  0.00    +0.000 A 
ATOM     17  C   UNL     1       4.755   4.453  15.592  0.00  0.00    +0.000 A 
ATOM     18  C   UNL     1       5.619   5.303  16.295  0.00  0.00    +0.000 A 
ATOM     19  C   UNL     1       6.902   5.544  15.774  0.00  0.00    +0.000 A 
ATOM     20  C   UNL     1       7.277   5.005  14.538  0.00  0.00    +0.000 A 
BRANCH  15  22
ATOM     21  N   UNL     1       7.066   3.241  11.508  0.00  0.00    +0.000 NA
ATOM     22  C   UNL     1       6.762   3.674  12.538  0.00  0.00    +0.000 C 
ENDBRANCH  15  22
ENDBRANCH  14  18
ENDBRANCH   1  14
TORSDOF 4
ENDMDL
MODEL 4
REMARK VINA RESULT:      -6.6      1.551      3.003
REMARK  Name = 
REMARK  4 active torsions:
REMARK  status: ('A' for Active; 'I' for Inactive)
REMARK    1  A    between atoms: C_2  and  C_3
REMARK    2  A    between atoms: C_6  and  C_7
REMARK    3  A    between atoms: C_7  and  N_8
REMARK    4  A    between atoms: C_11  and  C_12
REMARK                            x       y       z     vdW  Elec       q    Type
REMARK                         _______ _______ _______ _____ _____    ______ ____
ROOT
ATOM      1  N   UNL     1       4.520   5.115  18.364  0.00  0.00    +0.000 N 
ATOM      2  C   UNL     1       5.193   4.195  19.159  0.00  0.00    +0.000 A 
ATOM      3  O   UNL     1       6.410   4.189  19.327  0.00  0.00    +0.000 OA
ATOM      4  C   UNL     1       4.351   3.194  19.839  0.00  0.00    +0.000 A 
ATOM      5  C   UNL     1       3.028   3.364  19.850  0.00  0.00    +0.000 A 
ATOM      6  N   UNL     1       2.446   4.417  19.193  0.00  0.00    +0.000 N 
ATOM      7  C   UNL     1       3.135   5.313  18.396  0.00  0.00    +0.000 A 
ATOM      8  O   UNL     1       2.560   6.211  17.784  0.00  0.00    +0.000 OA
ATOM      9  C   UNL     1       0.997   4.406  19.358  0.00  0.00    +0.000 C 
ATOM     10  C   UNL     1       0.772   3.482  20.550  0.00  0.00    +0.000 C 
ATOM     11  C   UNL     1       1.977   2.540  20.539  0.00  0.00    +0.000 C 
ENDROOT
BRANCH   4  12
ATOM     12  C   UNL     1       5.002   2.047  20.594  0.00  0.00    +0.000 C 
ATOM     13  N   UNL     1       5.541   1.095  21.221  0.00  0.00    +0.000 NA
ENDBRANCH   4  12
BRANCH   1  14
ATOM     14  C   UNL     1       5.333   5.998  17.545  0.00  0.00    +0.000 C 
BRANCH  14  18
ATOM     15  C   UNL     1       6.340   4.165  13.752  0.00  0.00    +0.000 A 
ATOM     16  C   UNL     1       7.281   4.940  14.437  0.00  0.00    +0.000 A 
ATOM     17  C   UNL     1       6.938   5.554  15.645  0.00  0.00    +0.000 A 
ATOM     18  C   UNL     1       5.655   5.399  16.189  0.00  0.00    +0.000 A 
ATOM     19  C   UNL     1       4.698   4.668  15.466  0.00  0.00    +0.000 A 
ATOM     20  C   UNL     1       5.045   4.042  14.262  0.00  0.00    +0.000 A 
BRANCH  15  22
ATOM     21  N   UNL     1       6.992   2.940  11.561  0.00  0.00    +0.000 NA
ATOM     22  C   UNL     1       6.705   3.493  12.537  0.00  0.00    +0.000 C 
ENDBRANCH  15  22
ENDBRANCH  14  18
ENDBRANCH   1  14
TORSDOF 4
ENDMDL
MODEL 5
REMARK VINA RESULT:      -6.4      1.362      2.991
REMARK  Name = 
REMARK  4 active torsions:
REMARK  status: ('A' for Active; 'I' for Inactive)
REMARK    1  A    between atoms: C_2  and  C_3
REMARK    2  A    between atoms: C_6  and  C_7
REMARK    3  A    between atoms: C_7  and  N_8
REMARK    4  A    between atoms: C_11  and  C_12
REMARK                            x       y       z     vdW  Elec       q    Type
REMARK                         _______ _______ _______ _____ _____    ______ ____
ROOT
ATOM      1  N   UNL     1       5.148   5.731  17.942  0.00  0.00    +0.000 N 
ATOM      2  C   UNL     1       5.543   4.601  18.647  0.00  0.00    +0.000 A 
ATOM      3  O   UNL     1       6.669   4.113  18.593  0.00  0.00    +0.000 OA
ATOM      4  C   UNL     1       4.519   3.994  19.517  0.00  0.00    +0.000 A 
ATOM      5  C   UNL     1       3.394   4.669  19.757  0.00  0.00    +0.000 A 
ATOM      6  N   UNL     1       3.159   5.883  19.165  0.00  0.00    +0.000 N 
ATOM      7  C   UNL     1       3.982   6.456  18.214  0.00  0.00    +0.000 A 
ATOM      8  O   UNL     1       3.702   7.524  17.672  0.00  0.00    +0.000 OA
ATOM      9  C   UNL     1       1.878   6.438  19.589  0.00  0.00    +0.000 C 
ATOM     10  C   UNL     1       1.535   5.645  20.845  0.00  0.00    +0.000 C 
ATOM     11  C   UNL     1       2.252   4.306  20.664  0.00  0.00    +0.000 C 
ENDROOT
BRANCH   4  12
ATOM     12  C   UNL     1       4.797   2.664  20.198  0.00  0.00    +0.000 C 
ATOM     13  N   UNL     1       5.028   1.560  20.762  0.00  0.00    +0.000 NA
ENDBRANCH   4  12
BRANCH   1  14
ATOM     14  C   UNL     1       6.074   6.245  16.948  0.00  0.00    +0.000 C 
BRANCH  14  18
ATOM     15  C   UNL     1       6.104   3.813  13.363  0.00  0.00    +0.000 A 
ATOM     16  C   UNL     1       7.248   4.517  13.752  0.00  0.00    +0.000 A 
ATOM     17  C   UNL     1       7.220   5.325  14.892  0.00  0.00    +0.000 A 
ATOM     18  C   UNL     1       6.056   5.436  15.664  0.00  0.00    +0.000 A 
ATOM     19  C   UNL     1       4.894   4.773  15.235  0.00  0.00    +0.000 A 
ATOM     20  C   UNL     1       4.925   3.954  14.100  0.00  0.00    +0.000 A 
BRANCH  15  22
ATOM     21  N   UNL     1       6.176   2.232  11.308  0.00  0.00    +0.000 NA
ATOM     22  C   UNL     1       6.144   2.944  12.221  0.00  0.00    +0.000 C 
ENDBRANCH  15  22
ENDBRANCH  14  18
ENDBRANCH   1  14
TORSDOF 4
ENDMDL
MODEL 6
REMARK VINA RESULT:      -6.3      1.386      3.163
REMARK  Name = 
REMARK  4 active torsions:
REMARK  status: ('A' for Active; 'I' for Inactive)
REMARK    1  A    between atoms: C_2  and  C_3
REMARK    2  A    between atoms: C_6  and  C_7
REMARK    3  A    between atoms: C_7  and  N_8
REMARK    4  A    between atoms: C_11  and  C_12
REMARK                            x       y       z     vdW  Elec       q    Type
REMARK                         _______ _______ _______ _____ _____    ______ ____
ROOT
ATOM      1  N   UNL     1       5.136   5.834  17.795  0.00  0.00    +0.000 N 
ATOM      2  C   UNL     1       5.521   4.698  18.495  0.00  0.00    +0.000 A 
ATOM      3  O   UNL     1       6.631   4.177  18.407  0.00  0.00    +0.000 OA
ATOM      4  C   UNL     1       4.511   4.127  19.404  0.00  0.00    +0.000 A 
ATOM      5  C   UNL     1       3.415   4.837  19.677  0.00  0.00    +0.000 A 
ATOM      6  N   UNL     1       3.195   6.053  19.084  0.00  0.00    +0.000 N 
ATOM      7  C   UNL     1       4.001   6.595  18.101  0.00  0.00    +0.000 A 
ATOM      8  O   UNL     1       3.734   7.666  17.560  0.00  0.00    +0.000 OA
ATOM      9  C   UNL     1       1.946   6.648  19.546  0.00  0.00    +0.000 C 
ATOM     10  C   UNL     1       1.623   5.874  20.820  0.00  0.00    +0.000 C 
ATOM     11  C   UNL     1       2.295   4.514  20.625  0.00  0.00    +0.000 C 
ENDROOT
BRANCH   4  12
ATOM     12  C   UNL     1       4.774   2.794  20.086  0.00  0.00    +0.000 C 
ATOM     13  N   UNL     1       4.992   1.689  20.651  0.00  0.00    +0.000 NA
ENDBRANCH   4  12
BRANCH   1  14
ATOM     14  C   UNL     1       6.042   6.314  16.766  0.00  0.00    +0.000 C 
BRANCH  14  18
ATOM     15  C   UNL     1       6.177   3.734  13.289  0.00  0.00    +0.000 A 
ATOM     16  C   UNL     1       5.045   3.759  14.110  0.00  0.00    +0.000 A 
ATOM     17  C   UNL     1       5.022   4.570  15.247  0.00  0.00    +0.000 A 
ATOM     18  C   UNL     1       6.123   5.373  15.579  0.00  0.00    +0.000 A 
ATOM     19  C   UNL     1       7.277   5.298  14.782  0.00  0.00    +0.000 A 
ATOM     20  C   UNL     1       7.296   4.494  13.635  0.00  0.00    +0.000 A 
BRANCH  15  22
ATOM     21  N   UNL     1       6.178   2.291  11.133  0.00  0.00    +0.000 NA
ATOM     22  C   UNL     1       6.183   2.939  12.093  0.00  0.00    +0.000 C 
ENDBRANCH  15  22
ENDBRANCH  14  18
ENDBRANCH   1  14
TORSDOF 4
ENDMDL
MODEL 7
REMARK VINA RESULT:      -6.2      3.478      5.897
REMARK  Name = 
REMARK  4 active torsions:
REMARK  status: ('A' for Active; 'I' for Inactive)
REMARK    1  A    between atoms: C_2  and  C_3
REMARK    2  A    between atoms: C_6  and  C_7
REMARK    3  A    between atoms: C_7  and  N_8
REMARK    4  A    between atoms: C_11  and  C_12
REMARK                            x       y       z     vdW  Elec       q    Type
REMARK                         _______ _______ _______ _____ _____    ______ ____
ROOT
ATOM      1  N   UNL     1       1.575   8.348  19.087  0.00  0.00    +0.000 N 
ATOM      2  C   UNL     1       1.328   8.305  20.453  0.00  0.00    +0.000 A 
ATOM      3  O   UNL     1       1.392   7.284  21.134  0.00  0.00    +0.000 OA
ATOM      4  C   UNL     1       0.992   9.592  21.088  0.00  0.00    +0.000 A 
ATOM      5  C   UNL     1       1.171  10.719  20.396  0.00  0.00    +0.000 A 
ATOM      6  N   UNL     1       1.605  10.687  19.096  0.00  0.00    +0.000 N 
ATOM      7  C   UNL     1       1.791   9.528  18.367  0.00  0.00    +0.000 A 
ATOM      8  O   UNL     1       2.132   9.553  17.185  0.00  0.00    +0.000 OA
ATOM      9  C   UNL     1       1.742  12.034  18.553  0.00  0.00    +0.000 C 
ATOM     10  C   UNL     1       1.764  12.926  19.790  0.00  0.00    +0.000 C 
ATOM     11  C   UNL     1       0.984  12.140  20.845  0.00  0.00    +0.000 C 
ENDROOT
BRANCH   4  12
ATOM     12  C   UNL     1       0.543   9.625  22.540  0.00  0.00    +0.000 C 
ATOM     13  N   UNL     1       0.170   9.652  23.743  0.00  0.00    +0.000 NA
ENDBRANCH   4  12
BRANCH   1  14
ATOM     14  C   UNL     1       1.735   7.075  18.405  0.00  0.00    +0.000 C 
BRANCH  14  18
ATOM     15  C   UNL     1       5.798   5.580  18.285  0.00  0.00    +0.000 A 
ATOM     16  C   UNL     1       4.932   5.197  19.314  0.00  0.00    +0.000 A 
ATOM     17  C   UNL     1       3.633   5.709  19.363  0.00  0.00    +0.000 A 
ATOM     18  C   UNL     1       3.176   6.603  18.385  0.00  0.00    +0.000 A 
ATOM     19  C   UNL     1       4.071   7.028  17.388  0.00  0.00    +0.000 A 
ATOM     20  C   UNL     1       5.369   6.506  17.331  0.00  0.00    +0.000 A 
BRANCH  15  22
ATOM     21  N   UNL     1       8.178   4.560  18.127  0.00  0.00    +0.000 NA
ATOM     22  C   UNL     1       7.117   5.017  18.205  0.00  0.00    +0.000 C 
ENDBRANCH  15  22
ENDBRANCH  14  18
ENDBRANCH   1  14
TORSDOF 4
ENDMDL
MODEL 8
REMARK VINA RESULT:      -6.1      1.021      1.059
REMARK  Name = 
REMARK  4 active torsions:
REMARK  status: ('A' for Active; 'I' for Inactive)
REMARK    1  A    between atoms: C_2  and  C_3
REMARK    2  A    between atoms: C_6  and  C_7
REMARK    3  A    between atoms: C_7  and  N_8
REMARK    4  A    between atoms: C_11  and  C_12
REMARK                            x       y       z     vdW  Elec       q    Type
REMARK                         _______ _______ _______ _____ _____    ______ ____
ROOT
ATOM      1  N   UNL     1       4.729   5.590  18.845  0.00  0.00    +0.000 N 
ATOM      2  C   UNL     1       3.673   6.465  19.068  0.00  0.00    +0.000 A 
ATOM      3  O   UNL     1       3.559   7.561  18.525  0.00  0.00    +0.000 OA
ATOM      4  C   UNL     1       2.636   5.999  20.007  0.00  0.00    +0.000 A 
ATOM      5  C   UNL     1       2.641   4.722  20.391  0.00  0.00    +0.000 A 
ATOM      6  N   UNL     1       3.623   3.862  19.970  0.00  0.00    +0.000 N 
ATOM      7  C   UNL     1       4.721   4.242  19.223  0.00  0.00    +0.000 A 
ATOM      8  O   UNL     1       5.604   3.443  18.914  0.00  0.00    +0.000 OA
ATOM      9  C   UNL     1       3.412   2.520  20.502  0.00  0.00    +0.000 C 
ATOM     10  C   UNL     1       1.954   2.529  20.948  0.00  0.00    +0.000 C 
ATOM     11  C   UNL     1       1.655   3.995  21.262  0.00  0.00    +0.000 C 
ENDROOT
BRANCH   4  12
ATOM     12  C   UNL     1       1.531   6.947  20.445  0.00  0.00    +0.000 C 
ATOM     13  N   UNL     1       0.615   7.732  20.808  0.00  0.00    +0.000 NA
ENDBRANCH   4  12
BRANCH   1  14
ATOM     14  C   UNL     1       5.848   6.091  18.066  0.00  0.00    +0.000 C 
BRANCH  14  18
ATOM     15  C   UNL     1       6.053   4.203  14.174  0.00  0.00    +0.000 A 
ATOM     16  C   UNL     1       7.223   4.523  14.869  0.00  0.00    +0.000 A 
ATOM     17  C   UNL     1       7.149   5.161  16.110  0.00  0.00    +0.000 A 
ATOM     18  C   UNL     1       5.908   5.482  16.678  0.00  0.00    +0.000 A 
ATOM     19  C   UNL     1       4.740   5.210  15.947  0.00  0.00    +0.000 A 
ATOM     20  C   UNL     1       4.813   4.560  14.710  0.00  0.00    +0.000 A 
BRANCH  15  22
ATOM     21  N   UNL     1       6.190   2.927  11.919  0.00  0.00    +0.000 NA
ATOM     22  C   UNL     1       6.125   3.503  12.922  0.00  0.00    +0.000 C 
ENDBRANCH  15  22
ENDBRANCH  14  18
ENDBRANCH   1  14
TORSDOF 4
ENDMDL
MODEL 9
REMARK VINA RESULT:      -6.1      2.745      6.548
REMARK  Name = 
REMARK  4 active torsions:
REMARK  status: ('A' for Active; 'I' for Inactive)
REMARK    1  A    between atoms: C_2  and  C_3
REMARK    2  A    between atoms: C_6  and  C_7
REMARK    3  A    between atoms: C_7  and  N_8
REMARK    4  A    between atoms: C_11  and  C_12
REMARK                            x       y       z     vdW  Elec       q    Type
REMARK                         _______ _______ _______ _____ _____    ______ ____
ROOT
ATOM      1  N   UNL     1       2.864   6.069  19.367  0.00  0.00    +0.000 N 
ATOM      2  C   UNL     1       3.825   5.812  18.396  0.00  0.00    +0.000 A 
ATOM      3  O   UNL     1       4.784   6.544  18.165  0.00  0.00    +0.000 OA
ATOM      4  C   UNL     1       3.653   4.561  17.635  0.00  0.00    +0.000 A 
ATOM      5  C   UNL     1       2.763   3.664  18.061  0.00  0.00    +0.000 A 
ATOM      6  N   UNL     1       1.976   3.915  19.155  0.00  0.00    +0.000 N 
ATOM      7  C   UNL     1       1.949   5.118  19.834  0.00  0.00    +0.000 A 
ATOM      8  O   UNL     1       1.186   5.314  20.778  0.00  0.00    +0.000 OA
ATOM      9  C   UNL     1       1.095   2.787  19.441  0.00  0.00    +0.000 C 
ATOM     10  C   UNL     1       1.723   1.630  18.672  0.00  0.00    +0.000 C 
ATOM     11  C   UNL     1       2.468   2.295  17.514  0.00  0.00    +0.000 C 
ENDROOT
BRANCH   4  12
ATOM     12  C   UNL     1       4.552   4.272  16.444  0.00  0.00    +0.000 C 
ATOM     13  N   UNL     1       5.296   4.033  15.455  0.00  0.00    +0.000 NA
ENDBRANCH   4  12
BRANCH   1  14
ATOM     14  C   UNL     1       2.906   7.372  20.008  0.00  0.00    +0.000 C 
BRANCH  14  18
ATOM     15  C   UNL     1      -0.143  10.142  18.670  0.00  0.00    +0.000 A 
ATOM     16  C   UNL     1      -0.074   9.758  20.013  0.00  0.00    +0.000 A 
ATOM     17  C   UNL     1       0.894   8.840  20.430  0.00  0.00    +0.000 A 
ATOM     18  C   UNL     1       1.808   8.296  19.518  0.00  0.00    +0.000 A 
ATOM     19  C   UNL     1       1.694   8.641  18.160  0.00  0.00    +0.000 A 
ATOM     20  C   UNL     1       0.733   9.571  17.744  0.00  0.00    +0.000 A 
BRANCH  15  22
ATOM     21  N   UNL     1      -1.884  11.904  17.902  0.00  0.00    +0.000 NA
ATOM     22  C   UNL     1      -1.103  11.123  18.248  0.00  0.00    +0.000 C 
ENDBRANCH  15  22
ENDBRANCH  14  18
ENDBRANCH   1  14
TORSDOF 4
ENDMDL
