MODEL 1
REMARK VINA RESULT:      -7.3      0.000      0.000
REMARK  Name = 
REMARK  12 active torsions:
REMARK  status: ('A' for Active; 'I' for Inactive)
REMARK    1  A    between atoms: C_1  and  C_2
REMARK    2  A    between atoms: C_2  and  C_4
REMARK    3  A    between atoms: C_7  and  O_8
REMARK    4  A    between atoms: O_8  and  C_9
REMARK    5  A    between atoms: C_9  and  C_10
REMARK    6  A    between atoms: C_12  and  C_13
REMARK    7  A    between atoms: N_15  and  C_16
REMARK    8  A    between atoms: N_15  and  C_17
REMARK    9  A    between atoms: C_17  and  C_18
REMARK   10  A    between atoms: C_18  and  O_19
REMARK   11  A    between atoms: O_19  and  C_20
REMARK   12  A    between atoms: C_23  and  C_24
REMARK                            x       y       z     vdW  Elec       q    Type
REMARK                         _______ _______ _______ _____ _____    ______ ____
ROOT
ATOM      1  C   UNL     1       7.536   7.930  17.423  0.00  0.00    +0.000 A 
ATOM      2  C   UNL     1       6.618   7.162  18.097  0.00  0.00    +0.000 A 
ATOM      3  C   UNL     1       6.706   5.873  17.508  0.00  0.00    +0.000 A 
ATOM      4  N   UNL     1       7.541   5.912  16.454  0.00  0.00    +0.000 NA
ATOM      5  O   UNL     1       8.083   7.184  16.428  0.00  0.00    +0.000 OA
ENDROOT
BRANCH   3   6
ATOM      6  C   UNL     1       5.961   4.679  17.958  0.00  0.00    +0.000 C 
ATOM      7  O   UNL     1       6.099   4.289  19.119  0.00  0.00    +0.000 OA
ATOM      8  N   UNL     1       5.147   3.951  17.068  0.00  0.00    +0.000 N 
ATOM      9  C   UNL     1       5.062   4.199  15.629  0.00  0.00    +0.000 C 
BRANCH   8  10
ATOM     10  C   UNL     1       4.421   2.780  17.624  0.00  0.00    +0.000 C 
BRANCH  10  11
ATOM     11  C   UNL     1       3.302   3.138  18.611  0.00  0.00    +0.000 C 
BRANCH  11  12
ATOM     12  O   UNL     1       2.292   4.007  18.090  0.00  0.00    +0.000 OA
BRANCH  12  13
ATOM     13  C   UNL     1       2.062   5.090  18.917  0.00  0.00    +0.000 A 
ATOM     14  C   UNL     1       2.410   6.346  18.418  0.00  0.00    +0.000 A 
ATOM     15  C   UNL     1       2.245   7.492  19.208  0.00  0.00    +0.000 A 
ATOM     16  C   UNL     1       1.718   7.398  20.502  0.00  0.00    +0.000 A 
ATOM     17  C   UNL     1       1.537   8.605  21.374  0.00  0.00    +0.000 C 
ATOM     18  C   UNL     1       1.344   6.144  20.988  0.00  0.00    +0.000 A 
ATOM     19  C   UNL     1       1.506   5.005  20.200  0.00  0.00    +0.000 A 
ENDBRANCH  12  13
ENDBRANCH  11  12
ENDBRANCH  10  11
ENDBRANCH   8  10
ENDBRANCH   3   6
BRANCH   1  20
ATOM     20  C   UNL     1       8.064   9.300  17.618  0.00  0.00    +0.000 C 
BRANCH  20  21
ATOM     21  O   UNL     1       8.775   9.322  18.857  0.00  0.00    +0.000 OA
BRANCH  21  25
ATOM     22  C   UNL     1      10.342  12.965  20.184  0.00  0.00    +0.000 A 
ATOM     23  C   UNL     1       9.960  11.957  21.077  0.00  0.00    +0.000 A 
ATOM     24  C   UNL     1       9.435  10.754  20.593  0.00  0.00    +0.000 A 
ATOM     25  C   UNL     1       9.270  10.548  19.220  0.00  0.00    +0.000 A 
ATOM     26  C   UNL     1       9.665  11.547  18.330  0.00  0.00    +0.000 A 
ATOM     27  C   UNL     1      10.194  12.750  18.809  0.00  0.00    +0.000 A 
BRANCH  22  29
ATOM     28  C   UNL     1      11.915  14.968  19.754  0.00  0.00    +0.000 C 
ATOM     29  C   UNL     1      10.918  14.264  20.639  0.00  0.00    +0.000 C 
ATOM     30  O   UNL     1      10.574  14.744  21.717  0.00  0.00    +0.000 OA
ENDBRANCH  22  29
ENDBRANCH  21  25
ENDBRANCH  20  21
ENDBRANCH   1  20
TORSDOF 9
ENDMDL
MODEL 2
REMARK VINA RESULT:      -7.3      1.076      1.518
REMARK  Name = 
REMARK  12 active torsions:
REMARK  status: ('A' for Active; 'I' for Inactive)
REMARK    1  A    between atoms: C_1  and  C_2
REMARK    2  A    between atoms: C_2  and  C_4
REMARK    3  A    between atoms: C_7  and  O_8
REMARK    4  A    between atoms: O_8  and  C_9
REMARK    5  A    between atoms: C_9  and  C_10
REMARK    6  A    between atoms: C_12  and  C_13
REMARK    7  A    between atoms: N_15  and  C_16
REMARK    8  A    between atoms: N_15  and  C_17
REMARK    9  A    between atoms: C_17  and  C_18
REMARK   10  A    between atoms: C_18  and  O_19
REMARK   11  A    between atoms: O_19  and  C_20
REMARK   12  A    between atoms: C_23  and  C_24
REMARK                            x       y       z     vdW  Elec       q    Type
REMARK                         _______ _______ _______ _____ _____    ______ ____
ROOT
ATOM      1  C   UNL     1       7.367   7.627  17.496  0.00  0.00    +0.000 A 
ATOM      2  C   UNL     1       6.182   7.042  17.125  0.00  0.00    +0.000 A 
ATOM      3  C   UNL     1       6.388   5.646  17.286  0.00  0.00    +0.000 A 
ATOM      4  N   UNL     1       7.672   5.412  17.613  0.00  0.00    +0.000 NA
ATOM      5  O   UNL     1       8.267   6.649  17.779  0.00  0.00    +0.000 OA
ENDROOT
BRANCH   3   6
ATOM      6  C   UNL     1       5.358   4.606  17.083  0.00  0.00    +0.000 C 
ATOM      7  O   UNL     1       4.857   4.468  15.965  0.00  0.00    +0.000 OA
ATOM      8  N   UNL     1       4.903   3.815  18.156  0.00  0.00    +0.000 N 
ATOM      9  C   UNL     1       5.275   4.020  19.556  0.00  0.00    +0.000 C 
BRANCH   8  10
ATOM     10  C   UNL     1       3.882   2.781  17.844  0.00  0.00    +0.000 C 
BRANCH  10  11
ATOM     11  C   UNL     1       2.432   3.273  17.936  0.00  0.00    +0.000 C 
BRANCH  11  12
ATOM     12  O   UNL     1       2.048   3.789  19.214  0.00  0.00    +0.000 OA
BRANCH  12  13
ATOM     13  C   UNL     1       2.000   5.170  19.223  0.00  0.00    +0.000 A 
ATOM     14  C   UNL     1       1.744   5.781  20.451  0.00  0.00    +0.000 A 
ATOM     15  C   UNL     1       1.640   7.177  20.539  0.00  0.00    +0.000 A 
ATOM     16  C   UNL     1       1.804   7.978  19.403  0.00  0.00    +0.000 A 
ATOM     17  C   UNL     1       1.691   9.473  19.464  0.00  0.00    +0.000 C 
ATOM     18  C   UNL     1       2.089   7.366  18.182  0.00  0.00    +0.000 A 
ATOM     19  C   UNL     1       2.194   5.978  18.096  0.00  0.00    +0.000 A 
ENDBRANCH  12  13
ENDBRANCH  11  12
ENDBRANCH  10  11
ENDBRANCH   8  10
ENDBRANCH   3   6
BRANCH   1  20
ATOM     20  C   UNL     1       7.793   9.030  17.713  0.00  0.00    +0.000 C 
BRANCH  20  21
ATOM     21  O   UNL     1       8.716   9.042  18.803  0.00  0.00    +0.000 OA
BRANCH  21  25
ATOM     22  C   UNL     1      10.478  12.691  19.840  0.00  0.00    +0.000 A 
ATOM     23  C   UNL     1       9.917  11.843  20.801  0.00  0.00    +0.000 A 
ATOM     24  C   UNL     1       9.332  10.633  20.413  0.00  0.00    +0.000 A 
ATOM     25  C   UNL     1       9.285  10.262  19.066  0.00  0.00    +0.000 A 
ATOM     26  C   UNL     1       9.858  11.101  18.109  0.00  0.00    +0.000 A 
ATOM     27  C   UNL     1      10.446  12.310  18.493  0.00  0.00    +0.000 A 
BRANCH  22  29
ATOM     28  C   UNL     1      12.270  14.484  19.348  0.00  0.00    +0.000 C 
ATOM     29  C   UNL     1      11.125  13.988  20.193  0.00  0.00    +0.000 C 
ATOM     30  O   UNL     1      10.719  14.634  21.157  0.00  0.00    +0.000 OA
ENDBRANCH  22  29
ENDBRANCH  21  25
ENDBRANCH  20  21
ENDBRANCH   1  20
TORSDOF 9
ENDMDL
MODEL 3
REMARK VINA RESULT:      -7.3      5.535      9.348
REMARK  Name = 
REMARK  12 active torsions:
REMARK  status: ('A' for Active; 'I' for Inactive)
REMARK    1  A    between atoms: C_1  and  C_2
REMARK    2  A    between atoms: C_2  and  C_4
REMARK    3  A    between atoms: C_7  and  O_8
REMARK    4  A    between atoms: O_8  and  C_9
REMARK    5  A    between atoms: C_9  and  C_10
REMARK    6  A    between atoms: C_12  and  C_13
REMARK    7  A    between atoms: N_15  and  C_16
REMARK    8  A    between atoms: N_15  and  C_17
REMARK    9  A    between atoms: C_17  and  C_18
REMARK   10  A    between atoms: C_18  and  O_19
REMARK   11  A    between atoms: O_19  and  C_20
REMARK   12  A    between atoms: C_23  and  C_24
REMARK                            x       y       z     vdW  Elec       q    Type
REMARK                         _______ _______ _______ _____ _____    ______ ____
ROOT
ATOM      1  C   UNL     1       2.252   6.815  19.762  0.00  0.00    +0.000 A 
ATOM      2  C   UNL     1       1.681   7.585  20.746  0.00  0.00    +0.000 A 
ATOM      3  C   UNL     1       1.364   8.819  20.117  0.00  0.00    +0.000 A 
ATOM      4  N   UNL     1       1.840   8.822  18.859  0.00  0.00    +0.000 NA
ATOM      5  O   UNL     1       2.358   7.560  18.631  0.00  0.00    +0.000 OA
ENDROOT
BRANCH   3   6
ATOM      6  C   UNL     1       0.655   9.944  20.761  0.00  0.00    +0.000 C 
ATOM      7  O   UNL     1       0.985  10.288  21.898  0.00  0.00    +0.000 OA
ATOM      8  N   UNL     1      -0.424  10.585  20.121  0.00  0.00    +0.000 N 
ATOM      9  C   UNL     1      -1.030  10.139  18.867  0.00  0.00    +0.000 C 
BRANCH   8  10
ATOM     10  C   UNL     1      -1.055  11.720  20.843  0.00  0.00    +0.000 C 
BRANCH  10  11
ATOM     11  C   UNL     1      -2.287  12.311  20.143  0.00  0.00    +0.000 C 
BRANCH  11  12
ATOM     12  O   UNL     1      -2.759  13.545  20.691  0.00  0.00    +0.000 OA
BRANCH  12  13
ATOM     13  C   UNL     1      -3.909  13.377  21.437  0.00  0.00    +0.000 A 
ATOM     14  C   UNL     1      -3.840  13.727  22.785  0.00  0.00    +0.000 A 
ATOM     15  C   UNL     1      -4.952  13.550  23.621  0.00  0.00    +0.000 A 
ATOM     16  C   UNL     1      -6.151  13.032  23.114  0.00  0.00    +0.000 A 
ATOM     17  C   UNL     1      -7.355  12.825  23.984  0.00  0.00    +0.000 C 
ATOM     18  C   UNL     1      -6.226  12.711  21.759  0.00  0.00    +0.000 A 
ATOM     19  C   UNL     1      -5.120  12.889  20.928  0.00  0.00    +0.000 A 
ENDBRANCH  12  13
ENDBRANCH  11  12
ENDBRANCH  10  11
ENDBRANCH   8  10
ENDBRANCH   3   6
BRANCH   1  20
ATOM     20  C   UNL     1       2.666   5.394  19.685  0.00  0.00    +0.000 C 
BRANCH  20  21
ATOM     21  O   UNL     1       4.094   5.356  19.679  0.00  0.00    +0.000 OA
BRANCH  21  25
ATOM     22  C   UNL     1       6.030   4.963  15.993  0.00  0.00    +0.000 A 
ATOM     23  C   UNL     1       6.435   5.908  16.941  0.00  0.00    +0.000 A 
ATOM     24  C   UNL     1       5.759   6.012  18.162  0.00  0.00    +0.000 A 
ATOM     25  C   UNL     1       4.664   5.189  18.442  0.00  0.00    +0.000 A 
ATOM     26  C   UNL     1       4.268   4.237  17.501  0.00  0.00    +0.000 A 
ATOM     27  C   UNL     1       4.945   4.128  16.282  0.00  0.00    +0.000 A 
BRANCH  22  29
ATOM     28  C   UNL     1       6.147   3.833  13.674  0.00  0.00    +0.000 C 
ATOM     29  C   UNL     1       6.719   4.798  14.680  0.00  0.00    +0.000 C 
ATOM     30  O   UNL     1       7.733   5.447  14.432  0.00  0.00    +0.000 OA
ENDBRANCH  22  29
ENDBRANCH  21  25
ENDBRANCH  20  21
ENDBRANCH   1  20
TORSDOF 9
ENDMDL
MODEL 4
REMARK VINA RESULT:      -7.3      5.776      9.238
REMARK  Name = 
REMARK  12 active torsions:
REMARK  status: ('A' for Active; 'I' for Inactive)
REMARK    1  A    between atoms: C_1  and  C_2
REMARK    2  A    between atoms: C_2  and  C_4
REMARK    3  A    between atoms: C_7  and  O_8
REMARK    4  A    between atoms: O_8  and  C_9
REMARK    5  A    between atoms: C_9  and  C_10
REMARK    6  A    between atoms: C_12  and  C_13
REMARK    7  A    between atoms: N_15  and  C_16
REMARK    8  A    between atoms: N_15  and  C_17
REMARK    9  A    between atoms: C_17  and  C_18
REMARK   10  A    between atoms: C_18  and  O_19
REMARK   11  A    between atoms: O_19  and  C_20
REMARK   12  A    between atoms: C_23  and  C_24
REMARK                            x       y       z     vdW  Elec       q    Type
REMARK                         _______ _______ _______ _____ _____    ______ ____
ROOT
ATOM      1  C   UNL     1       1.161   8.224  21.388  0.00  0.00    +0.000 A 
ATOM      2  C   UNL     1       0.077   9.015  21.094  0.00  0.00    +0.000 A 
ATOM      3  C   UNL     1       0.112  10.066  22.049  0.00  0.00    +0.000 A 
ATOM      4  N   UNL     1       1.093   9.835  22.942  0.00  0.00    +0.000 NA
ATOM      5  O   UNL     1       1.765   8.708  22.504  0.00  0.00    +0.000 OA
ENDROOT
BRANCH   3   6
ATOM      6  C   UNL     1      -0.814  11.216  22.083  0.00  0.00    +0.000 C 
ATOM      7  O   UNL     1      -1.824  11.152  22.787  0.00  0.00    +0.000 OA
ATOM      8  N   UNL     1      -0.592  12.353  21.280  0.00  0.00    +0.000 N 
ATOM      9  C   UNL     1       0.454  12.460  20.264  0.00  0.00    +0.000 C 
BRANCH   8  10
ATOM     10  C   UNL     1      -1.570  13.465  21.404  0.00  0.00    +0.000 C 
BRANCH  10  11
ATOM     11  C   UNL     1      -2.616  13.517  20.282  0.00  0.00    +0.000 C 
BRANCH  11  12
ATOM     12  O   UNL     1      -3.400  12.330  20.131  0.00  0.00    +0.000 OA
BRANCH  12  13
ATOM     13  C   UNL     1      -3.287  11.791  18.864  0.00  0.00    +0.000 A 
ATOM     14  C   UNL     1      -4.380  11.954  18.012  0.00  0.00    +0.000 A 
ATOM     15  C   UNL     1      -4.361  11.403  16.723  0.00  0.00    +0.000 A 
ATOM     16  C   UNL     1      -3.244  10.693  16.266  0.00  0.00    +0.000 A 
ATOM     17  C   UNL     1      -3.197  10.086  14.895  0.00  0.00    +0.000 C 
ATOM     18  C   UNL     1      -2.141  10.556  17.109  0.00  0.00    +0.000 A 
ATOM     19  C   UNL     1      -2.160  11.107  18.391  0.00  0.00    +0.000 A 
ENDBRANCH  12  13
ENDBRANCH  11  12
ENDBRANCH  10  11
ENDBRANCH   8  10
ENDBRANCH   3   6
BRANCH   1  20
ATOM     20  C   UNL     1       1.798   7.069  20.713  0.00  0.00    +0.000 C 
BRANCH  20  21
ATOM     21  O   UNL     1       1.850   7.356  19.314  0.00  0.00    +0.000 OA
BRANCH  21  25
ATOM     22  C   UNL     1       5.332   5.913  17.502  0.00  0.00    +0.000 A 
ATOM     23  C   UNL     1       4.805   5.327  18.658  0.00  0.00    +0.000 A 
ATOM     24  C   UNL     1       3.640   5.842  19.237  0.00  0.00    +0.000 A 
ATOM     25  C   UNL     1       2.999   6.954  18.682  0.00  0.00    +0.000 A 
ATOM     26  C   UNL     1       3.517   7.529  17.522  0.00  0.00    +0.000 A 
ATOM     27  C   UNL     1       4.680   7.015  16.938  0.00  0.00    +0.000 A 
BRANCH  22  29
ATOM     28  C   UNL     1       7.576   4.643  17.653  0.00  0.00    +0.000 C 
ATOM     29  C   UNL     1       6.564   5.402  16.834  0.00  0.00    +0.000 C 
ATOM     30  O   UNL     1       6.737   5.599  15.633  0.00  0.00    +0.000 OA
ENDBRANCH  22  29
ENDBRANCH  21  25
ENDBRANCH  20  21
ENDBRANCH   1  20
TORSDOF 9
ENDMDL
MODEL 5
REMARK VINA RESULT:      -7.3      5.395      8.625
REMARK  Name = 
REMARK  12 active torsions:
REMARK  status: ('A' for Active; 'I' for Inactive)
REMARK    1  A    between atoms: C_1  and  C_2
REMARK    2  A    between atoms: C_2  and  C_4
REMARK    3  A    between atoms: C_7  and  O_8
REMARK    4  A    between atoms: O_8  and  C_9
REMARK    5  A    between atoms: C_9  and  C_10
REMARK    6  A    between atoms: C_12  and  C_13
REMARK    7  A    between atoms: N_15  and  C_16
REMARK    8  A    between atoms: N_15  and  C_17
REMARK    9  A    between atoms: C_17  and  C_18
REMARK   10  A    between atoms: C_18  and  O_19
REMARK   11  A    between atoms: O_19  and  C_20
REMARK   12  A    between atoms: C_23  and  C_24
REMARK                            x       y       z     vdW  Elec       q    Type
REMARK                         _______ _______ _______ _____ _____    ______ ____
ROOT
ATOM      1  C   UNL     1       2.320   6.608  19.138  0.00  0.00    +0.000 A 
ATOM      2  C   UNL     1       1.980   7.760  18.473  0.00  0.00    +0.000 A 
ATOM      3  C   UNL     1       1.658   8.698  19.490  0.00  0.00    +0.000 A 
ATOM      4  N   UNL     1       1.684   8.090  20.691  0.00  0.00    +0.000 NA
ATOM      5  O   UNL     1       2.132   6.801  20.469  0.00  0.00    +0.000 OA
ENDROOT
BRANCH   3   6
ATOM      6  C   UNL     1       1.307  10.115  19.261  0.00  0.00    +0.000 C 
ATOM      7  O   UNL     1       1.773  10.697  18.280  0.00  0.00    +0.000 OA
ATOM      8  N   UNL     1       0.501  10.821  20.176  0.00  0.00    +0.000 N 
ATOM      9  C   UNL     1       0.057  10.298  21.468  0.00  0.00    +0.000 C 
BRANCH   8  10
ATOM     10  C   UNL     1       0.187  12.235  19.844  0.00  0.00    +0.000 C 
BRANCH  10  11
ATOM     11  C   UNL     1      -1.250  12.468  19.359  0.00  0.00    +0.000 C 
BRANCH  11  12
ATOM     12  O   UNL     1      -2.077  11.301  19.333  0.00  0.00    +0.000 OA
BRANCH  12  13
ATOM     13  C   UNL     1      -2.454  10.959  18.049  0.00  0.00    +0.000 A 
ATOM     14  C   UNL     1      -3.579  11.603  17.533  0.00  0.00    +0.000 A 
ATOM     15  C   UNL     1      -4.051  11.285  16.251  0.00  0.00    +0.000 A 
ATOM     16  C   UNL     1      -3.396  10.329  15.466  0.00  0.00    +0.000 A 
ATOM     17  C   UNL     1      -3.880   9.962  14.094  0.00  0.00    +0.000 C 
ATOM     18  C   UNL     1      -2.253   9.708  15.973  0.00  0.00    +0.000 A 
ATOM     19  C   UNL     1      -1.783  10.027  17.247  0.00  0.00    +0.000 A 
ENDBRANCH  12  13
ENDBRANCH  11  12
ENDBRANCH  10  11
ENDBRANCH   8  10
ENDBRANCH   3   6
BRANCH   1  20
ATOM     20  C   UNL     1       2.895   5.311  18.710  0.00  0.00    +0.000 C 
BRANCH  20  21
ATOM     21  O   UNL     1       4.318   5.428  18.755  0.00  0.00    +0.000 OA
BRANCH  21  25
ATOM     22  C   UNL     1       6.456   5.062  15.180  0.00  0.00    +0.000 A 
ATOM     23  C   UNL     1       7.021   5.641  16.321  0.00  0.00    +0.000 A 
ATOM     24  C   UNL     1       6.271   5.750  17.498  0.00  0.00    +0.000 A 
ATOM     25  C   UNL     1       4.949   5.299  17.544  0.00  0.00    +0.000 A 
ATOM     26  C   UNL     1       4.390   4.709  16.410  0.00  0.00    +0.000 A 
ATOM     27  C   UNL     1       5.138   4.595  15.234  0.00  0.00    +0.000 A 
BRANCH  22  29
ATOM     28  C   UNL     1       6.743   3.883  12.900  0.00  0.00    +0.000 C 
ATOM     29  C   UNL     1       7.209   4.909  13.901  0.00  0.00    +0.000 C 
ATOM     30  O   UNL     1       8.190   5.616  13.678  0.00  0.00    +0.000 OA
ENDBRANCH  22  29
ENDBRANCH  21  25
ENDBRANCH  20  21
ENDBRANCH   1  20
TORSDOF 9
ENDMDL
MODEL 6
REMARK VINA RESULT:      -7.3      5.665      9.141
REMARK  Name = 
REMARK  12 active torsions:
REMARK  status: ('A' for Active; 'I' for Inactive)
REMARK    1  A    between atoms: C_1  and  C_2
REMARK    2  A    between atoms: C_2  and  C_4
REMARK    3  A    between atoms: C_7  and  O_8
REMARK    4  A    between atoms: O_8  and  C_9
REMARK    5  A    between atoms: C_9  and  C_10
REMARK    6  A    between atoms: C_12  and  C_13
REMARK    7  A    between atoms: N_15  and  C_16
REMARK    8  A    between atoms: N_15  and  C_17
REMARK    9  A    between atoms: C_17  and  C_18
REMARK   10  A    between atoms: C_18  and  O_19
REMARK   11  A    between atoms: O_19  and  C_20
REMARK   12  A    between atoms: C_23  and  C_24
REMARK                            x       y       z     vdW  Elec       q    Type
REMARK                         _______ _______ _______ _____ _____    ______ ____
ROOT
ATOM      1  C   UNL     1       1.473   8.744  19.603  0.00  0.00    +0.000 A 
ATOM      2  C   UNL     1       2.141   7.575  19.331  0.00  0.00    +0.000 A 
ATOM      3  C   UNL     1       1.738   6.670  20.349  0.00  0.00    +0.000 A 
ATOM      4  N   UNL     1       0.971   7.312  21.249  0.00  0.00    +0.000 NA
ATOM      5  O   UNL     1       0.779   8.591  20.760  0.00  0.00    +0.000 OA
ENDROOT
BRANCH   3   6
ATOM      6  C   UNL     1       2.136   5.250  20.430  0.00  0.00    +0.000 C 
ATOM      7  O   UNL     1       2.612   4.820  21.483  0.00  0.00    +0.000 OA
ATOM      8  N   UNL     1       2.036   4.401  19.309  0.00  0.00    +0.000 N 
ATOM      9  C   UNL     1       1.676   4.843  17.963  0.00  0.00    +0.000 C 
BRANCH   8  10
ATOM     10  C   UNL     1       2.440   2.984  19.501  0.00  0.00    +0.000 C 
BRANCH  10  11
ATOM     11  C   UNL     1       3.862   2.660  19.021  0.00  0.00    +0.000 C 
BRANCH  11  12
ATOM     12  O   UNL     1       4.783   3.753  19.080  0.00  0.00    +0.000 OA
BRANCH  12  13
ATOM     13  C   UNL     1       5.350   4.021  17.849  0.00  0.00    +0.000 A 
ATOM     14  C   UNL     1       6.644   4.544  17.854  0.00  0.00    +0.000 A 
ATOM     15  C   UNL     1       7.276   4.880  16.649  0.00  0.00    +0.000 A 
ATOM     16  C   UNL     1       6.628   4.684  15.423  0.00  0.00    +0.000 A 
ATOM     17  C   UNL     1       7.275   5.040  14.118  0.00  0.00    +0.000 C 
ATOM     18  C   UNL     1       5.346   4.134  15.419  0.00  0.00    +0.000 A 
ATOM     19  C   UNL     1       4.718   3.798  16.620  0.00  0.00    +0.000 A 
ENDBRANCH  12  13
ENDBRANCH  11  12
ENDBRANCH  10  11
ENDBRANCH   8  10
ENDBRANCH   3   6
BRANCH   1  20
ATOM     20  C   UNL     1       1.312  10.024  18.874  0.00  0.00    +0.000 C 
BRANCH  20  21
ATOM     21  O   UNL     1       0.386   9.806  17.808  0.00  0.00    +0.000 OA
BRANCH  21  25
ATOM     22  C   UNL     1      -3.481  11.337  18.249  0.00  0.00    +0.000 A 
ATOM     23  C   UNL     1      -3.182  10.347  17.307  0.00  0.00    +0.000 A 
ATOM     24  C   UNL     1      -1.875   9.864  17.187  0.00  0.00    +0.000 A 
ATOM     25  C   UNL     1      -0.850  10.373  17.990  0.00  0.00    +0.000 A 
ATOM     26  C   UNL     1      -1.150  11.350  18.939  0.00  0.00    +0.000 A 
ATOM     27  C   UNL     1      -2.457  11.833  19.064  0.00  0.00    +0.000 A 
BRANCH  22  29
ATOM     28  C   UNL     1      -5.667  12.238  17.210  0.00  0.00    +0.000 C 
ATOM     29  C   UNL     1      -4.857  11.884  18.430  0.00  0.00    +0.000 C 
ATOM     30  O   UNL     1      -5.313  12.035  19.562  0.00  0.00    +0.000 OA
ENDBRANCH  22  29
ENDBRANCH  21  25
ENDBRANCH  20  21
ENDBRANCH   1  20
TORSDOF 9
ENDMDL
MODEL 7
REMARK VINA RESULT:      -7.3      5.625      8.385
REMARK  Name = 
REMARK  12 active torsions:
REMARK  status: ('A' for Active; 'I' for Inactive)
REMARK    1  A    between atoms: C_1  and  C_2
REMARK    2  A    between atoms: C_2  and  C_4
REMARK    3  A    between atoms: C_7  and  O_8
REMARK    4  A    between atoms: O_8  and  C_9
REMARK    5  A    between atoms: C_9  and  C_10
REMARK    6  A    between atoms: C_12  and  C_13
REMARK    7  A    between atoms: N_15  and  C_16
REMARK    8  A    between atoms: N_15  and  C_17
REMARK    9  A    between atoms: C_17  and  C_18
REMARK   10  A    between atoms: C_18  and  O_19
REMARK   11  A    between atoms: O_19  and  C_20
REMARK   12  A    between atoms: C_23  and  C_24
REMARK                            x       y       z     vdW  Elec       q    Type
REMARK                         _______ _______ _______ _____ _____    ______ ____
ROOT
ATOM      1  C   UNL     1       4.027   5.908  19.059  0.00  0.00    +0.000 A 
ATOM      2  C   UNL     1       3.765   7.052  18.345  0.00  0.00    +0.000 A 
ATOM      3  C   UNL     1       2.541   7.548  18.869  0.00  0.00    +0.000 A 
ATOM      4  N   UNL     1       2.041   6.670  19.758  0.00  0.00    +0.000 NA
ATOM      5  O   UNL     1       2.987   5.672  19.900  0.00  0.00    +0.000 OA
ENDROOT
BRANCH   3   6
ATOM      6  C   UNL     1       1.894   8.813  18.467  0.00  0.00    +0.000 C 
ATOM      7  O   UNL     1       2.077   9.244  17.326  0.00  0.00    +0.000 OA
ATOM      8  N   UNL     1       1.126   9.560  19.382  0.00  0.00    +0.000 N 
ATOM      9  C   UNL     1       1.004   9.255  20.807  0.00  0.00    +0.000 C 
BRANCH   8  10
ATOM     10  C   UNL     1       0.499  10.807  18.873  0.00  0.00    +0.000 C 
BRANCH  10  11
ATOM     11  C   UNL     1       0.846  12.066  19.678  0.00  0.00    +0.000 C 
BRANCH  11  12
ATOM     12  O   UNL     1      -0.158  13.086  19.670  0.00  0.00    +0.000 OA
BRANCH  12  13
ATOM     13  C   UNL     1      -1.065  12.929  20.700  0.00  0.00    +0.000 A 
ATOM     14  C   UNL     1      -0.548  12.910  21.995  0.00  0.00    +0.000 A 
ATOM     15  C   UNL     1      -1.397  12.716  23.094  0.00  0.00    +0.000 A 
ATOM     16  C   UNL     1      -2.775  12.553  22.911  0.00  0.00    +0.000 A 
ATOM     17  C   UNL     1      -3.708  12.337  24.066  0.00  0.00    +0.000 C 
ATOM     18  C   UNL     1      -3.294  12.602  21.617  0.00  0.00    +0.000 A 
ATOM     19  C   UNL     1      -2.449  12.797  20.524  0.00  0.00    +0.000 A 
ENDBRANCH  12  13
ENDBRANCH  11  12
ENDBRANCH  10  11
ENDBRANCH   8  10
ENDBRANCH   3   6
BRANCH   1  20
ATOM     20  C   UNL     1       5.190   4.995  19.137  0.00  0.00    +0.000 C 
BRANCH  20  21
ATOM     21  O   UNL     1       5.009   3.972  18.156  0.00  0.00    +0.000 OA
BRANCH  21  25
ATOM     22  C   UNL     1       6.938   4.761  14.530  0.00  0.00    +0.000 A 
ATOM     23  C   UNL     1       7.590   4.906  15.759  0.00  0.00    +0.000 A 
ATOM     24  C   UNL     1       6.909   4.636  16.951  0.00  0.00    +0.000 A 
ATOM     25  C   UNL     1       5.569   4.238  16.933  0.00  0.00    +0.000 A 
ATOM     26  C   UNL     1       4.923   4.080  15.706  0.00  0.00    +0.000 A 
ATOM     27  C   UNL     1       5.602   4.344  14.512  0.00  0.00    +0.000 A 
BRANCH  22  29
ATOM     28  C   UNL     1       7.230   4.194  12.028  0.00  0.00    +0.000 C 
ATOM     29  C   UNL     1       7.614   5.022  13.227  0.00  0.00    +0.000 C 
ATOM     30  O   UNL     1       8.467   5.904  13.143  0.00  0.00    +0.000 OA
ENDBRANCH  22  29
ENDBRANCH  21  25
ENDBRANCH  20  21
ENDBRANCH   1  20
TORSDOF 9
ENDMDL
MODEL 8
REMARK VINA RESULT:      -7.2      4.233      8.348
REMARK  Name = 
REMARK  12 active torsions:
REMARK  status: ('A' for Active; 'I' for Inactive)
REMARK    1  A    between atoms: C_1  and  C_2
REMARK    2  A    between atoms: C_2  and  C_4
REMARK    3  A    between atoms: C_7  and  O_8
REMARK    4  A    between atoms: O_8  and  C_9
REMARK    5  A    between atoms: C_9  and  C_10
REMARK    6  A    between atoms: C_12  and  C_13
REMARK    7  A    between atoms: N_15  and  C_16
REMARK    8  A    between atoms: N_15  and  C_17
REMARK    9  A    between atoms: C_17  and  C_18
REMARK   10  A    between atoms: C_18  and  O_19
REMARK   11  A    between atoms: O_19  and  C_20
REMARK   12  A    between atoms: C_23  and  C_24
REMARK                            x       y       z     vdW  Elec       q    Type
REMARK                         _______ _______ _______ _____ _____    ______ ____
ROOT
ATOM      1  C   UNL     1       1.448   9.220  18.910  0.00  0.00    +0.000 A 
ATOM      2  C   UNL     1       1.492   8.034  19.601  0.00  0.00    +0.000 A 
ATOM      3  C   UNL     1       2.427   7.228  18.899  0.00  0.00    +0.000 A 
ATOM      4  N   UNL     1       2.817   7.859  17.777  0.00  0.00    +0.000 NA
ATOM      5  O   UNL     1       2.234   9.113  17.808  0.00  0.00    +0.000 OA
ENDROOT
BRANCH   3   6
ATOM      6  C   UNL     1       2.871   5.882  19.315  0.00  0.00    +0.000 C 
ATOM      7  O   UNL     1       3.767   5.779  20.155  0.00  0.00    +0.000 OA
ATOM      8  N   UNL     1       2.329   4.722  18.725  0.00  0.00    +0.000 N 
ATOM      9  C   UNL     1       1.411   4.722  17.587  0.00  0.00    +0.000 C 
BRANCH   8  10
ATOM     10  C   UNL     1       2.825   3.416  19.230  0.00  0.00    +0.000 C 
BRANCH  10  11
ATOM     11  C   UNL     1       4.234   3.045  18.748  0.00  0.00    +0.000 C 
BRANCH  11  12
ATOM     12  O   UNL     1       4.544   3.454  17.413  0.00  0.00    +0.000 OA
BRANCH  12  13
ATOM     13  C   UNL     1       5.347   4.579  17.388  0.00  0.00    +0.000 A 
ATOM     14  C   UNL     1       6.379   4.635  18.324  0.00  0.00    +0.000 A 
ATOM     15  C   UNL     1       7.214   5.759  18.391  0.00  0.00    +0.000 A 
ATOM     16  C   UNL     1       7.034   6.835  17.514  0.00  0.00    +0.000 A 
ATOM     17  C   UNL     1       7.907   8.054  17.565  0.00  0.00    +0.000 C 
ATOM     18  C   UNL     1       6.019   6.764  16.559  0.00  0.00    +0.000 A 
ATOM     19  C   UNL     1       5.190   5.644  16.492  0.00  0.00    +0.000 A 
ENDBRANCH  12  13
ENDBRANCH  11  12
ENDBRANCH  10  11
ENDBRANCH   8  10
ENDBRANCH   3   6
BRANCH   1  20
ATOM     20  C   UNL     1       0.812  10.533  19.170  0.00  0.00    +0.000 C 
BRANCH  20  21
ATOM     21  O   UNL     1       0.919  10.801  20.569  0.00  0.00    +0.000 OA
BRANCH  21  25
ATOM     22  C   UNL     1      -2.491  12.130  22.592  0.00  0.00    +0.000 A 
ATOM     23  C   UNL     1      -1.600  11.219  23.169  0.00  0.00    +0.000 A 
ATOM     24  C   UNL     1      -0.472  10.795  22.457  0.00  0.00    +0.000 A 
ATOM     25  C   UNL     1      -0.230  11.259  21.161  0.00  0.00    +0.000 A 
ATOM     26  C   UNL     1      -1.111  12.180  20.592  0.00  0.00    +0.000 A 
ATOM     27  C   UNL     1      -2.238  12.609  21.302  0.00  0.00    +0.000 A 
BRANCH  22  29
ATOM     28  C   UNL     1      -4.859  13.157  22.495  0.00  0.00    +0.000 C 
ATOM     29  C   UNL     1      -3.703  12.628  23.305  0.00  0.00    +0.000 C 
ATOM     30  O   UNL     1      -3.749  12.598  24.533  0.00  0.00    +0.000 OA
ENDBRANCH  22  29
ENDBRANCH  21  25
ENDBRANCH  20  21
ENDBRANCH   1  20
TORSDOF 9
ENDMDL
MODEL 9
REMARK VINA RESULT:      -7.2      4.866      8.912
REMARK  Name = 
REMARK  12 active torsions:
REMARK  status: ('A' for Active; 'I' for Inactive)
REMARK    1  A    between atoms: C_1  and  C_2
REMARK    2  A    between atoms: C_2  and  C_4
REMARK    3  A    between atoms: C_7  and  O_8
REMARK    4  A    between atoms: O_8  and  C_9
REMARK    5  A    between atoms: C_9  and  C_10
REMARK    6  A    between atoms: C_12  and  C_13
REMARK    7  A    between atoms: N_15  and  C_16
REMARK    8  A    between atoms: N_15  and  C_17
REMARK    9  A    between atoms: C_17  and  C_18
REMARK   10  A    between atoms: C_18  and  O_19
REMARK   11  A    between atoms: O_19  and  C_20
REMARK   12  A    between atoms: C_23  and  C_24
REMARK                            x       y       z     vdW  Elec       q    Type
REMARK                         _______ _______ _______ _____ _____    ______ ____
ROOT
ATOM      1  C   UNL     1       2.007   6.065  19.941  0.00  0.00    +0.000 A 
ATOM      2  C   UNL     1       1.571   6.750  21.049  0.00  0.00    +0.000 A 
ATOM      3  C   UNL     1       1.537   8.114  20.655  0.00  0.00    +0.000 A 
ATOM      4  N   UNL     1       2.051   8.241  19.418  0.00  0.00    +0.000 NA
ATOM      5  O   UNL     1       2.306   6.960  18.964  0.00  0.00    +0.000 OA
ENDROOT
BRANCH   3   6
ATOM      6  C   UNL     1       1.051   9.229  21.493  0.00  0.00    +0.000 C 
ATOM      7  O   UNL     1       1.485   9.350  22.640  0.00  0.00    +0.000 OA
ATOM      8  N   UNL     1       0.061  10.115  21.023  0.00  0.00    +0.000 N 
ATOM      9  C   UNL     1      -0.667   9.954  19.764  0.00  0.00    +0.000 C 
BRANCH   8  10
ATOM     10  C   UNL     1      -0.343  11.217  21.933  0.00  0.00    +0.000 C 
BRANCH  10  11
ATOM     11  C   UNL     1      -0.234  12.619  21.319  0.00  0.00    +0.000 C 
BRANCH  11  12
ATOM     12  O   UNL     1       0.872  13.399  21.785  0.00  0.00    +0.000 OA
BRANCH  12  13
ATOM     13  C   UNL     1       1.590  13.956  20.744  0.00  0.00    +0.000 A 
ATOM     14  C   UNL     1       1.458  13.349  19.495  0.00  0.00    +0.000 A 
ATOM     15  C   UNL     1       2.184  13.829  18.395  0.00  0.00    +0.000 A 
ATOM     16  C   UNL     1       3.039  14.929  18.529  0.00  0.00    +0.000 A 
ATOM     17  C   UNL     1       3.833  15.461  17.373  0.00  0.00    +0.000 C 
ATOM     18  C   UNL     1       3.146  15.553  19.773  0.00  0.00    +0.000 A 
ATOM     19  C   UNL     1       2.422  15.076  20.866  0.00  0.00    +0.000 A 
ENDBRANCH  12  13
ENDBRANCH  11  12
ENDBRANCH  10  11
ENDBRANCH   8  10
ENDBRANCH   3   6
BRANCH   1  20
ATOM     20  C   UNL     1       2.124   4.626  19.608  0.00  0.00    +0.000 C 
BRANCH  20  21
ATOM     21  O   UNL     1       3.473   4.228  19.855  0.00  0.00    +0.000 OA
BRANCH  21  25
ATOM     22  C   UNL     1       5.866   4.602  16.445  0.00  0.00    +0.000 A 
ATOM     23  C   UNL     1       4.593   4.023  16.394  0.00  0.00    +0.000 A 
ATOM     24  C   UNL     1       3.825   3.912  17.558  0.00  0.00    +0.000 A 
ATOM     25  C   UNL     1       4.322   4.360  18.785  0.00  0.00    +0.000 A 
ATOM     26  C   UNL     1       5.585   4.950  18.835  0.00  0.00    +0.000 A 
ATOM     27  C   UNL     1       6.354   5.066  17.672  0.00  0.00    +0.000 A 
BRANCH  22  29
ATOM     28  C   UNL     1       6.381   3.983  13.992  0.00  0.00    +0.000 C 
ATOM     29  C   UNL     1       6.726   4.758  15.237  0.00  0.00    +0.000 C 
ATOM     30  O   UNL     1       7.697   5.512  15.268  0.00  0.00    +0.000 OA
ENDBRANCH  22  29
ENDBRANCH  21  25
ENDBRANCH  20  21
ENDBRANCH   1  20
TORSDOF 9
ENDMDL
