MODEL 1
REMARK VINA RESULT:      -7.1      0.000      0.000
REMARK  Name = 
REMARK  8 active torsions:
REMARK  status: ('A' for Active; 'I' for Inactive)
REMARK    1  A    between atoms: N_2  and  C_3
REMARK    2  A    between atoms: C_4  and  C_5
REMARK    3  A    between atoms: C_13  and  C_14
REMARK    4  A    between atoms: C_20  and  C_21
REMARK    5  A    between atoms: C_24  and  O_25
REMARK    6  A    between atoms: O_25  and  C_26
REMARK    7  A    between atoms: C_26  and  C_27
REMARK    8  A    between atoms: C_26  and  C_28
REMARK                            x       y       z     vdW  Elec       q    Type
REMARK                         _______ _______ _______ _____ _____    ______ ____
ROOT
ATOM      1  C   UNL     1      -1.922  12.004  19.300  0.00  0.00    +0.000 A 
ATOM      2  C   UNL     1      -1.536  13.271  18.837  0.00  0.00    +0.000 A 
ATOM      3  C   UNL     1      -0.241  13.508  18.355  0.00  0.00    +0.000 A 
ATOM      4  C   UNL     1       0.656  12.436  18.376  0.00  0.00    +0.000 A 
ATOM      5  N   UNL     1       1.953  12.311  17.957  0.00  0.00    +0.000 N 
ATOM      6  N   UNL     1       2.486  11.089  18.142  0.00  0.00    +0.000 NA
ATOM      7  C   UNL     1       1.500  10.382  18.720  0.00  0.00    +0.000 A 
ATOM      8  C   UNL     1       0.323  11.180  18.860  0.00  0.00    +0.000 A 
ATOM      9  C   UNL     1      -0.988  10.960  19.311  0.00  0.00    +0.000 A 
ATOM     10  H   UNL     1       2.526  13.022  17.516  0.00  0.00    +0.000 HD
ENDROOT
BRANCH   1  21
ATOM     11  C   UNL     1      -4.360  11.483  18.626  0.00  0.00    +0.000 C 
ATOM     12  C   UNL     1      -5.451  12.560  18.566  0.00  0.00    +0.000 C 
ATOM     13  C   UNL     1      -6.419  12.513  17.407  0.00  0.00    +0.000 C 
ATOM     14  N   UNL     1      -5.665  13.473  19.474  0.00  0.00    +0.000 NA
ATOM     15  C   UNL     1      -4.850  13.475  20.566  0.00  0.00    +0.000 C 
ATOM     16  C   UNL     1      -3.804  12.685  20.744  0.00  0.00    +0.000 C 
ATOM     17  C   UNL     1      -3.242  12.989  22.051  0.00  0.00    +0.000 C 
ATOM     18  O   UNL     1      -2.316  12.401  22.577  0.00  0.00    +0.000 OA
ATOM     19  O   UNL     1      -3.945  14.022  22.601  0.00  0.00    +0.000 OA
ATOM     20  C   UNL     1      -5.012  14.392  21.715  0.00  0.00    +0.000 C 
ATOM     21  C   UNL     1      -3.332  11.686  19.769  0.00  0.00    +0.000 C 
BRANCH  11  23
ATOM     22  C   UNL     1      -3.267  11.163  16.274  0.00  0.00    +0.000 C 
ATOM     23  N   UNL     1      -3.748  11.330  17.329  0.00  0.00    +0.000 NA
ENDBRANCH  11  23
ENDBRANCH   1  21
BRANCH   7  24
ATOM     24  C   UNL     1       1.645   8.968  19.062  0.00  0.00    +0.000 A 
ATOM     25  C   UNL     1       1.351   8.490  20.339  0.00  0.00    +0.000 A 
ATOM     26  C   UNL     1       1.648   7.165  20.664  0.00  0.00    +0.000 A 
ATOM     27  C   UNL     1       2.245   6.364  19.703  0.00  0.00    +0.000 A 
ATOM     28  N   UNL     1       2.483   6.766  18.441  0.00  0.00    +0.000 NA
ATOM     29  C   UNL     1       2.156   8.047  18.148  0.00  0.00    +0.000 A 
BRANCH  27  30
ATOM     30  O   UNL     1       2.619   5.096  20.097  0.00  0.00    +0.000 OA
BRANCH  30  31
ATOM     31  C   UNL     1       1.547   4.296  20.620  0.00  0.00    +0.000 C 
ATOM     32  C   UNL     1       0.926   3.440  19.513  0.00  0.00    +0.000 C 
ATOM     33  C   UNL     1       2.156   3.387  21.684  0.00  0.00    +0.000 C 
ENDBRANCH  30  31
ENDBRANCH  27  30
ENDBRANCH   7  24
TORSDOF 5
ENDMDL
MODEL 2
REMARK VINA RESULT:      -7.1      1.194      1.423
REMARK  Name = 
REMARK  8 active torsions:
REMARK  status: ('A' for Active; 'I' for Inactive)
REMARK    1  A    between atoms: N_2  and  C_3
REMARK    2  A    between atoms: C_4  and  C_5
REMARK    3  A    between atoms: C_13  and  C_14
REMARK    4  A    between atoms: C_20  and  C_21
REMARK    5  A    between atoms: C_24  and  O_25
REMARK    6  A    between atoms: O_25  and  C_26
REMARK    7  A    between atoms: C_26  and  C_27
REMARK    8  A    between atoms: C_26  and  C_28
REMARK                            x       y       z     vdW  Elec       q    Type
REMARK                         _______ _______ _______ _____ _____    ______ ____
ROOT
ATOM      1  C   UNL     1      -1.099  12.416  20.100  0.00  0.00    +0.000 A 
ATOM      2  C   UNL     1      -0.720  13.600  19.449  0.00  0.00    +0.000 A 
ATOM      3  C   UNL     1       0.380  13.635  18.579  0.00  0.00    +0.000 A 
ATOM      4  C   UNL     1       1.096  12.446  18.406  0.00  0.00    +0.000 A 
ATOM      5  N   UNL     1       2.171  12.125  17.622  0.00  0.00    +0.000 N 
ATOM      6  N   UNL     1       2.577  10.846  17.727  0.00  0.00    +0.000 NA
ATOM      7  C   UNL     1       1.740  10.305  18.627  0.00  0.00    +0.000 A 
ATOM      8  C   UNL     1       0.775  11.267  19.059  0.00  0.00    +0.000 A 
ATOM      9  C   UNL     1      -0.347  11.250  19.903  0.00  0.00    +0.000 A 
ATOM     10  H   UNL     1       2.662  12.732  16.976  0.00  0.00    +0.000 HD
ENDROOT
BRANCH   1  21
ATOM     11  C   UNL     1      -3.666  12.180  20.240  0.00  0.00    +0.000 C 
ATOM     12  C   UNL     1      -4.601  13.385  20.401  0.00  0.00    +0.000 C 
ATOM     13  C   UNL     1      -5.879  13.393  19.594  0.00  0.00    +0.000 C 
ATOM     14  N   UNL     1      -4.427  14.374  21.235  0.00  0.00    +0.000 NA
ATOM     15  C   UNL     1      -3.319  14.337  22.028  0.00  0.00    +0.000 C 
ATOM     16  C   UNL     1      -2.360  13.429  21.964  0.00  0.00    +0.000 C 
ATOM     17  C   UNL     1      -1.393  13.738  23.006  0.00  0.00    +0.000 C 
ATOM     18  O   UNL     1      -0.418  13.067  23.287  0.00  0.00    +0.000 OA
ATOM     19  O   UNL     1      -1.778  14.888  23.634  0.00  0.00    +0.000 OA
ATOM     20  C   UNL     1      -3.019  15.338  23.075  0.00  0.00    +0.000 C 
ATOM     21  C   UNL     1      -2.321  12.316  20.997  0.00  0.00    +0.000 C 
BRANCH  11  23
ATOM     22  C   UNL     1      -3.329  11.624  17.709  0.00  0.00    +0.000 C 
ATOM     23  N   UNL     1      -3.504  11.866  18.842  0.00  0.00    +0.000 NA
ENDBRANCH  11  23
ENDBRANCH   1  21
BRANCH   7  24
ATOM     24  C   UNL     1       1.805   8.896  19.013  0.00  0.00    +0.000 A 
ATOM     25  C   UNL     1       1.462   8.472  20.297  0.00  0.00    +0.000 A 
ATOM     26  C   UNL     1       1.683   7.144  20.666  0.00  0.00    +0.000 A 
ATOM     27  C   UNL     1       2.258   6.286  19.741  0.00  0.00    +0.000 A 
ATOM     28  N   UNL     1       2.542   6.637  18.474  0.00  0.00    +0.000 NA
ATOM     29  C   UNL     1       2.287   7.924  18.138  0.00  0.00    +0.000 A 
BRANCH  27  30
ATOM     30  O   UNL     1       2.558   5.013  20.181  0.00  0.00    +0.000 OA
BRANCH  30  31
ATOM     31  C   UNL     1       1.411   4.200  20.476  0.00  0.00    +0.000 C 
ATOM     32  C   UNL     1       1.005   3.378  19.251  0.00  0.00    +0.000 C 
ATOM     33  C   UNL     1       1.820   3.259  21.607  0.00  0.00    +0.000 C 
ENDBRANCH  30  31
ENDBRANCH  27  30
ENDBRANCH   7  24
TORSDOF 5
ENDMDL
MODEL 3
REMARK VINA RESULT:      -6.9      2.849      5.773
REMARK  Name = 
REMARK  8 active torsions:
REMARK  status: ('A' for Active; 'I' for Inactive)
REMARK    1  A    between atoms: N_2  and  C_3
REMARK    2  A    between atoms: C_4  and  C_5
REMARK    3  A    between atoms: C_13  and  C_14
REMARK    4  A    between atoms: C_20  and  C_21
REMARK    5  A    between atoms: C_24  and  O_25
REMARK    6  A    between atoms: O_25  and  C_26
REMARK    7  A    between atoms: C_26  and  C_27
REMARK    8  A    between atoms: C_26  and  C_28
REMARK                            x       y       z     vdW  Elec       q    Type
REMARK                         _______ _______ _______ _____ _____    ______ ____
ROOT
ATOM      1  C   UNL     1      -6.482  13.980  20.849  0.00  0.00    +0.000 A 
ATOM      2  C   UNL     1      -7.674  14.007  20.108  0.00  0.00    +0.000 A 
ATOM      3  C   UNL     1      -7.786  13.335  18.882  0.00  0.00    +0.000 A 
ATOM      4  C   UNL     1      -6.654  12.656  18.418  0.00  0.00    +0.000 A 
ATOM      5  N   UNL     1      -6.432  11.886  17.309  0.00  0.00    +0.000 N 
ATOM      6  N   UNL     1      -5.185  11.387  17.216  0.00  0.00    +0.000 NA
ATOM      7  C   UNL     1      -4.557  11.859  18.304  0.00  0.00    +0.000 A 
ATOM      8  C   UNL     1      -5.449  12.638  19.104  0.00  0.00    +0.000 A 
ATOM      9  C   UNL     1      -5.370  13.295  20.342  0.00  0.00    +0.000 A 
ATOM     10  H   UNL     1      -7.100  11.646  16.586  0.00  0.00    +0.000 HD
ENDROOT
BRANCH   1  21
ATOM     11  C   UNL     1      -5.584  15.993  22.194  0.00  0.00    +0.000 C 
ATOM     12  C   UNL     1      -4.233  15.968  22.919  0.00  0.00    +0.000 C 
ATOM     13  C   UNL     1      -3.374  17.210  22.842  0.00  0.00    +0.000 C 
ATOM     14  N   UNL     1      -3.791  14.993  23.665  0.00  0.00    +0.000 NA
ATOM     15  C   UNL     1      -4.592  13.900  23.809  0.00  0.00    +0.000 C 
ATOM     16  C   UNL     1      -5.744  13.707  23.188  0.00  0.00    +0.000 C 
ATOM     17  C   UNL     1      -6.287  12.440  23.655  0.00  0.00    +0.000 C 
ATOM     18  O   UNL     1      -7.372  11.981  23.351  0.00  0.00    +0.000 OA
ATOM     19  O   UNL     1      -5.390  11.868  24.511  0.00  0.00    +0.000 OA
ATOM     20  C   UNL     1      -4.270  12.749  24.679  0.00  0.00    +0.000 C 
ATOM     21  C   UNL     1      -6.337  14.638  22.211  0.00  0.00    +0.000 C 
BRANCH  11  23
ATOM     22  C   UNL     1      -5.254  16.955  19.787  0.00  0.00    +0.000 C 
ATOM     23  N   UNL     1      -5.422  16.539  20.869  0.00  0.00    +0.000 NA
ENDBRANCH  11  23
ENDBRANCH   1  21
BRANCH   7  24
ATOM     24  C   UNL     1      -3.169  11.521  18.618  0.00  0.00    +0.000 A 
ATOM     25  C   UNL     1      -2.496  10.499  17.948  0.00  0.00    +0.000 A 
ATOM     26  C   UNL     1      -1.228  10.110  18.383  0.00  0.00    +0.000 A 
ATOM     27  C   UNL     1      -0.680  10.745  19.487  0.00  0.00    +0.000 A 
ATOM     28  N   UNL     1      -1.267  11.778  20.119  0.00  0.00    +0.000 NA
ATOM     29  C   UNL     1      -2.483  12.152  19.654  0.00  0.00    +0.000 A 
BRANCH  27  30
ATOM     30  O   UNL     1       0.525  10.258  19.948  0.00  0.00    +0.000 OA
BRANCH  30  31
ATOM     31  C   UNL     1       0.412   9.127  20.828  0.00  0.00    +0.000 C 
ATOM     32  C   UNL     1       1.531   8.120  20.557  0.00  0.00    +0.000 C 
ATOM     33  C   UNL     1       0.544   9.665  22.251  0.00  0.00    +0.000 C 
ENDBRANCH  30  31
ENDBRANCH  27  30
ENDBRANCH   7  24
TORSDOF 5
ENDMDL
MODEL 4
REMARK VINA RESULT:      -6.7      0.952      1.162
REMARK  Name = 
REMARK  8 active torsions:
REMARK  status: ('A' for Active; 'I' for Inactive)
REMARK    1  A    between atoms: N_2  and  C_3
REMARK    2  A    between atoms: C_4  and  C_5
REMARK    3  A    between atoms: C_13  and  C_14
REMARK    4  A    between atoms: C_20  and  C_21
REMARK    5  A    between atoms: C_24  and  O_25
REMARK    6  A    between atoms: O_25  and  C_26
REMARK    7  A    between atoms: C_26  and  C_27
REMARK    8  A    between atoms: C_26  and  C_28
REMARK                            x       y       z     vdW  Elec       q    Type
REMARK                         _______ _______ _______ _____ _____    ______ ____
ROOT
ATOM      1  C   UNL     1      -1.909  12.057  19.228  0.00  0.00    +0.000 A 
ATOM      2  C   UNL     1      -1.539  13.362  18.866  0.00  0.00    +0.000 A 
ATOM      3  C   UNL     1      -0.239  13.656  18.428  0.00  0.00    +0.000 A 
ATOM      4  C   UNL     1       0.678  12.601  18.389  0.00  0.00    +0.000 A 
ATOM      5  N   UNL     1       1.984  12.531  17.987  0.00  0.00    +0.000 N 
ATOM      6  N   UNL     1       2.536  11.307  18.093  0.00  0.00    +0.000 NA
ATOM      7  C   UNL     1       1.554  10.543  18.599  0.00  0.00    +0.000 A 
ATOM      8  C   UNL     1       0.359  11.308  18.773  0.00  0.00    +0.000 A 
ATOM      9  C   UNL     1      -0.956  11.032  19.181  0.00  0.00    +0.000 A 
ATOM     10  H   UNL     1       2.551  13.282  17.610  0.00  0.00    +0.000 HD
ENDROOT
BRANCH   1  21
ATOM     11  C   UNL     1      -4.304  11.465  18.465  0.00  0.00    +0.000 C 
ATOM     12  C   UNL     1      -5.430  12.504  18.390  0.00  0.00    +0.000 C 
ATOM     13  C   UNL     1      -6.358  12.446  17.198  0.00  0.00    +0.000 C 
ATOM     14  N   UNL     1      -5.705  13.390  19.307  0.00  0.00    +0.000 NA
ATOM     15  C   UNL     1      -4.926  13.400  20.425  0.00  0.00    +0.000 C 
ATOM     16  C   UNL     1      -3.859  12.643  20.622  0.00  0.00    +0.000 C 
ATOM     17  C   UNL     1      -3.350  12.941  21.952  0.00  0.00    +0.000 C 
ATOM     18  O   UNL     1      -2.421  12.375  22.497  0.00  0.00    +0.000 OA
ATOM     19  O   UNL     1      -4.107  13.938  22.498  0.00  0.00    +0.000 OA
ATOM     20  C   UNL     1      -5.157  14.287  21.585  0.00  0.00    +0.000 C 
ATOM     21  C   UNL     1      -3.321  11.681  19.644  0.00  0.00    +0.000 C 
BRANCH  11  23
ATOM     22  C   UNL     1      -3.137  11.237  16.138  0.00  0.00    +0.000 C 
ATOM     23  N   UNL     1      -3.645  11.359  17.186  0.00  0.00    +0.000 NA
ENDBRANCH  11  23
ENDBRANCH   1  21
BRANCH   7  24
ATOM     24  C   UNL     1       1.719   9.110  18.839  0.00  0.00    +0.000 A 
ATOM     25  C   UNL     1       1.533   8.555  20.105  0.00  0.00    +0.000 A 
ATOM     26  C   UNL     1       1.848   7.212  20.321  0.00  0.00    +0.000 A 
ATOM     27  C   UNL     1       2.358   6.472  19.266  0.00  0.00    +0.000 A 
ATOM     28  N   UNL     1       2.490   6.951  18.015  0.00  0.00    +0.000 NA
ATOM     29  C   UNL     1       2.146   8.248  17.831  0.00  0.00    +0.000 A 
BRANCH  27  30
ATOM     30  O   UNL     1       2.757   5.182  19.549  0.00  0.00    +0.000 OA
BRANCH  30  31
ATOM     31  C   UNL     1       3.843   4.705  18.738  0.00  0.00    +0.000 C 
ATOM     32  C   UNL     1       5.178   5.249  19.251  0.00  0.00    +0.000 C 
ATOM     33  C   UNL     1       3.837   3.182  18.851  0.00  0.00    +0.000 C 
ENDBRANCH  30  31
ENDBRANCH  27  30
ENDBRANCH   7  24
TORSDOF 5
ENDMDL
MODEL 5
REMARK VINA RESULT:      -6.6      3.830      5.787
REMARK  Name = 
REMARK  8 active torsions:
REMARK  status: ('A' for Active; 'I' for Inactive)
REMARK    1  A    between atoms: N_2  and  C_3
REMARK    2  A    between atoms: C_4  and  C_5
REMARK    3  A    between atoms: C_13  and  C_14
REMARK    4  A    between atoms: C_20  and  C_21
REMARK    5  A    between atoms: C_24  and  O_25
REMARK    6  A    between atoms: O_25  and  C_26
REMARK    7  A    between atoms: C_26  and  C_27
REMARK    8  A    between atoms: C_26  and  C_28
REMARK                            x       y       z     vdW  Elec       q    Type
REMARK                         _______ _______ _______ _____ _____    ______ ____
ROOT
ATOM      1  C   UNL     1       1.534  13.685  19.829  0.00  0.00    +0.000 A 
ATOM      2  C   UNL     1       0.500  14.399  19.205  0.00  0.00    +0.000 A 
ATOM      3  C   UNL     1      -0.485  13.746  18.449  0.00  0.00    +0.000 A 
ATOM      4  C   UNL     1      -0.380  12.357  18.325  0.00  0.00    +0.000 A 
ATOM      5  N   UNL     1      -1.169  11.426  17.707  0.00  0.00    +0.000 N 
ATOM      6  N   UNL     1      -0.731  10.157  17.820  0.00  0.00    +0.000 NA
ATOM      7  C   UNL     1       0.403  10.261  18.532  0.00  0.00    +0.000 A 
ATOM      8  C   UNL     1       0.647  11.622  18.896  0.00  0.00    +0.000 A 
ATOM      9  C   UNL     1       1.605  12.295  19.671  0.00  0.00    +0.000 A 
ATOM     10  H   UNL     1      -2.035  11.590  17.207  0.00  0.00    +0.000 HD
ENDROOT
BRANCH   1  21
ATOM     11  C   UNL     1       2.039  14.900  22.050  0.00  0.00    +0.000 C 
ATOM     12  C   UNL     1       2.097  16.429  22.163  0.00  0.00    +0.000 C 
ATOM     13  C   UNL     1       1.471  17.066  23.383  0.00  0.00    +0.000 C 
ATOM     14  N   UNL     1       2.711  17.227  21.334  0.00  0.00    +0.000 NA
ATOM     15  C   UNL     1       3.351  16.658  20.273  0.00  0.00    +0.000 C 
ATOM     16  C   UNL     1       3.330  15.372  19.965  0.00  0.00    +0.000 C 
ATOM     17  C   UNL     1       4.169  15.189  18.790  0.00  0.00    +0.000 C 
ATOM     18  O   UNL     1       4.440  14.121  18.275  0.00  0.00    +0.000 OA
ATOM     19  O   UNL     1       4.623  16.410  18.382  0.00  0.00    +0.000 OA
ATOM     20  C   UNL     1       4.154  17.416  19.290  0.00  0.00    +0.000 C 
ATOM     21  C   UNL     1       2.582  14.343  20.710  0.00  0.00    +0.000 C 
BRANCH  11  23
ATOM     22  C   UNL     1      -0.377  14.097  22.638  0.00  0.00    +0.000 C 
ATOM     23  N   UNL     1       0.711  14.434  22.365  0.00  0.00    +0.000 NA
ENDBRANCH  11  23
ENDBRANCH   1  21
BRANCH   7  24
ATOM     24  C   UNL     1       1.195   9.095  18.923  0.00  0.00    +0.000 A 
ATOM     25  C   UNL     1       1.900   8.343  17.984  0.00  0.00    +0.000 A 
ATOM     26  C   UNL     1       2.516   7.153  18.377  0.00  0.00    +0.000 A 
ATOM     27  C   UNL     1       2.391   6.746  19.697  0.00  0.00    +0.000 A 
ATOM     28  N   UNL     1       1.777   7.475  20.647  0.00  0.00    +0.000 NA
ATOM     29  C   UNL     1       1.217   8.639  20.239  0.00  0.00    +0.000 A 
BRANCH  27  30
ATOM     30  O   UNL     1       2.922   5.514  20.018  0.00  0.00    +0.000 OA
BRANCH  30  31
ATOM     31  C   UNL     1       2.383   4.419  19.261  0.00  0.00    +0.000 C 
ATOM     32  C   UNL     1       3.387   3.266  19.193  0.00  0.00    +0.000 C 
ATOM     33  C   UNL     1       1.126   3.956  19.993  0.00  0.00    +0.000 C 
ENDBRANCH  30  31
ENDBRANCH  27  30
ENDBRANCH   7  24
TORSDOF 5
ENDMDL
MODEL 6
REMARK VINA RESULT:      -6.5      3.679      5.490
REMARK  Name = 
REMARK  8 active torsions:
REMARK  status: ('A' for Active; 'I' for Inactive)
REMARK    1  A    between atoms: N_2  and  C_3
REMARK    2  A    between atoms: C_4  and  C_5
REMARK    3  A    between atoms: C_13  and  C_14
REMARK    4  A    between atoms: C_20  and  C_21
REMARK    5  A    between atoms: C_24  and  O_25
REMARK    6  A    between atoms: O_25  and  C_26
REMARK    7  A    between atoms: C_26  and  C_27
REMARK    8  A    between atoms: C_26  and  C_28
REMARK                            x       y       z     vdW  Elec       q    Type
REMARK                         _______ _______ _______ _____ _____    ______ ____
ROOT
ATOM      1  C   UNL     1       0.981  13.619  19.738  0.00  0.00    +0.000 A 
ATOM      2  C   UNL     1      -0.166  14.188  19.164  0.00  0.00    +0.000 A 
ATOM      3  C   UNL     1      -1.072  13.415  18.424  0.00  0.00    +0.000 A 
ATOM      4  C   UNL     1      -0.773  12.058  18.263  0.00  0.00    +0.000 A 
ATOM      5  N   UNL     1      -1.442  11.035  17.648  0.00  0.00    +0.000 N 
ATOM      6  N   UNL     1      -0.822   9.841  17.716  0.00  0.00    +0.000 NA
ATOM      7  C   UNL     1       0.309  10.094  18.395  0.00  0.00    +0.000 A 
ATOM      8  C   UNL     1       0.368  11.468  18.783  0.00  0.00    +0.000 A 
ATOM      9  C   UNL     1       1.245  12.257  19.544  0.00  0.00    +0.000 A 
ATOM     10  H   UNL     1      -2.339  11.083  17.179  0.00  0.00    +0.000 HD
ENDROOT
BRANCH   1  21
ATOM     11  C   UNL     1       1.431  14.736  22.022  0.00  0.00    +0.000 C 
ATOM     12  C   UNL     1       1.202  16.232  22.271  0.00  0.00    +0.000 C 
ATOM     13  C   UNL     1       0.571  16.635  23.584  0.00  0.00    +0.000 C 
ATOM     14  N   UNL     1       1.575  17.199  21.478  0.00  0.00    +0.000 NA
ATOM     15  C   UNL     1       2.219  16.853  20.328  0.00  0.00    +0.000 C 
ATOM     16  C   UNL     1       2.421  15.616  19.905  0.00  0.00    +0.000 C 
ATOM     17  C   UNL     1       3.175  15.696  18.662  0.00  0.00    +0.000 C 
ATOM     18  O   UNL     1       3.603  14.746  18.033  0.00  0.00    +0.000 OA
ATOM     19  O   UNL     1       3.348  17.010  18.338  0.00  0.00    +0.000 OA
ATOM     20  C   UNL     1       2.773  17.830  19.365  0.00  0.00    +0.000 C 
ATOM     21  C   UNL     1       1.954  14.404  20.601  0.00  0.00    +0.000 C 
BRANCH  11  23
ATOM     22  C   UNL     1      -0.713  13.411  22.714  0.00  0.00    +0.000 C 
ATOM     23  N   UNL     1       0.250  13.991  22.383  0.00  0.00    +0.000 NA
ENDBRANCH  11  23
ENDBRANCH   1  21
BRANCH   7  24
ATOM     24  C   UNL     1       1.273   9.047  18.732  0.00  0.00    +0.000 A 
ATOM     25  C   UNL     1       2.149   8.525  17.780  0.00  0.00    +0.000 A 
ATOM     26  C   UNL     1       2.944   7.425  18.105  0.00  0.00    +0.000 A 
ATOM     27  C   UNL     1       2.824   6.871  19.370  0.00  0.00    +0.000 A 
ATOM     28  N   UNL     1       2.041   7.383  20.337  0.00  0.00    +0.000 NA
ATOM     29  C   UNL     1       1.306   8.469  20.000  0.00  0.00    +0.000 A 
BRANCH  27  30
ATOM     30  O   UNL     1       3.547   5.721  19.615  0.00  0.00    +0.000 OA
BRANCH  30  31
ATOM     31  C   UNL     1       4.442   5.346  18.556  0.00  0.00    +0.000 C 
ATOM     32  C   UNL     1       5.882   5.276  19.068  0.00  0.00    +0.000 C 
ATOM     33  C   UNL     1       4.003   3.963  18.080  0.00  0.00    +0.000 C 
ENDBRANCH  30  31
ENDBRANCH  27  30
ENDBRANCH   7  24
TORSDOF 5
ENDMDL
MODEL 7
REMARK VINA RESULT:      -6.4      1.366      1.805
REMARK  Name = 
REMARK  8 active torsions:
REMARK  status: ('A' for Active; 'I' for Inactive)
REMARK    1  A    between atoms: N_2  and  C_3
REMARK    2  A    between atoms: C_4  and  C_5
REMARK    3  A    between atoms: C_13  and  C_14
REMARK    4  A    between atoms: C_20  and  C_21
REMARK    5  A    between atoms: C_24  and  O_25
REMARK    6  A    between atoms: O_25  and  C_26
REMARK    7  A    between atoms: C_26  and  C_27
REMARK    8  A    between atoms: C_26  and  C_28
REMARK                            x       y       z     vdW  Elec       q    Type
REMARK                         _______ _______ _______ _____ _____    ______ ____
ROOT
ATOM      1  C   UNL     1      -1.059  12.326  19.983  0.00  0.00    +0.000 A 
ATOM      2  C   UNL     1      -0.730  13.541  19.361  0.00  0.00    +0.000 A 
ATOM      3  C   UNL     1       0.378  13.646  18.507  0.00  0.00    +0.000 A 
ATOM      4  C   UNL     1       1.152  12.497  18.318  0.00  0.00    +0.000 A 
ATOM      5  N   UNL     1       2.250  12.244  17.542  0.00  0.00    +0.000 N 
ATOM      6  N   UNL     1       2.716  10.983  17.626  0.00  0.00    +0.000 NA
ATOM      7  C   UNL     1       1.895  10.385  18.505  0.00  0.00    +0.000 A 
ATOM      8  C   UNL     1       0.880  11.290  18.944  0.00  0.00    +0.000 A 
ATOM      9  C   UNL     1      -0.250  11.202  19.772  0.00  0.00    +0.000 A 
ATOM     10  H   UNL     1       2.720  12.887  16.915  0.00  0.00    +0.000 HD
ENDROOT
BRANCH   1  21
ATOM     11  C   UNL     1      -3.620  12.017  20.086  0.00  0.00    +0.000 C 
ATOM     12  C   UNL     1      -4.588  13.188  20.298  0.00  0.00    +0.000 C 
ATOM     13  C   UNL     1      -5.859  13.203  19.480  0.00  0.00    +0.000 C 
ATOM     14  N   UNL     1      -4.447  14.138  21.182  0.00  0.00    +0.000 NA
ATOM     15  C   UNL     1      -3.345  14.090  21.983  0.00  0.00    +0.000 C 
ATOM     16  C   UNL     1      -2.362  13.212  21.883  0.00  0.00    +0.000 C 
ATOM     17  C   UNL     1      -1.412  13.494  22.949  0.00  0.00    +0.000 C 
ATOM     18  O   UNL     1      -0.422  12.835  23.205  0.00  0.00    +0.000 OA
ATOM     19  O   UNL     1      -1.833  14.600  23.629  0.00  0.00    +0.000 OA
ATOM     20  C   UNL     1      -3.081  15.045  23.081  0.00  0.00    +0.000 C 
ATOM     21  C   UNL     1      -2.285  12.151  20.862  0.00  0.00    +0.000 C 
BRANCH  11  23
ATOM     22  C   UNL     1      -3.297  11.539  17.538  0.00  0.00    +0.000 C 
ATOM     23  N   UNL     1      -3.438  11.778  18.676  0.00  0.00    +0.000 NA
ENDBRANCH  11  23
ENDBRANCH   1  21
BRANCH   7  24
ATOM     24  C   UNL     1       2.023   8.973  18.862  0.00  0.00    +0.000 A 
ATOM     25  C   UNL     1       2.423   8.015  17.930  0.00  0.00    +0.000 A 
ATOM     26  C   UNL     1       2.384   6.662  18.272  0.00  0.00    +0.000 A 
ATOM     27  C   UNL     1       1.929   6.310  19.534  0.00  0.00    +0.000 A 
ATOM     28  N   UNL     1       1.598   7.204  20.483  0.00  0.00    +0.000 NA
ATOM     29  C   UNL     1       1.675   8.509  20.130  0.00  0.00    +0.000 A 
BRANCH  27  30
ATOM     30  O   UNL     1       1.805   4.961  19.793  0.00  0.00    +0.000 OA
BRANCH  30  31
ATOM     31  C   UNL     1       2.435   4.109  18.822  0.00  0.00    +0.000 C 
ATOM     32  C   UNL     1       3.629   3.379  19.442  0.00  0.00    +0.000 C 
ATOM     33  C   UNL     1       1.386   3.089  18.388  0.00  0.00    +0.000 C 
ENDBRANCH  30  31
ENDBRANCH  27  30
ENDBRANCH   7  24
TORSDOF 5
ENDMDL
MODEL 8
REMARK VINA RESULT:      -6.4      0.988      1.357
REMARK  Name = 
REMARK  8 active torsions:
REMARK  status: ('A' for Active; 'I' for Inactive)
REMARK    1  A    between atoms: N_2  and  C_3
REMARK    2  A    between atoms: C_4  and  C_5
REMARK    3  A    between atoms: C_13  and  C_14
REMARK    4  A    between atoms: C_20  and  C_21
REMARK    5  A    between atoms: C_24  and  O_25
REMARK    6  A    between atoms: O_25  and  C_26
REMARK    7  A    between atoms: C_26  and  C_27
REMARK    8  A    between atoms: C_26  and  C_28
REMARK                            x       y       z     vdW  Elec       q    Type
REMARK                         _______ _______ _______ _____ _____    ______ ____
ROOT
ATOM      1  C   UNL     1      -1.812  12.069  19.233  0.00  0.00    +0.000 A 
ATOM      2  C   UNL     1      -1.510  13.392  18.874  0.00  0.00    +0.000 A 
ATOM      3  C   UNL     1      -0.231  13.754  18.428  0.00  0.00    +0.000 A 
ATOM      4  C   UNL     1       0.738  12.746  18.376  0.00  0.00    +0.000 A 
ATOM      5  N   UNL     1       2.042  12.743  17.963  0.00  0.00    +0.000 N 
ATOM      6  N   UNL     1       2.656  11.549  18.059  0.00  0.00    +0.000 NA
ATOM      7  C   UNL     1       1.718  10.734  18.568  0.00  0.00    +0.000 A 
ATOM      8  C   UNL     1       0.488  11.437  18.756  0.00  0.00    +0.000 A 
ATOM      9  C   UNL     1      -0.808  11.093  19.173  0.00  0.00    +0.000 A 
ATOM     10  H   UNL     1       2.568  13.523  17.585  0.00  0.00    +0.000 HD
ENDROOT
BRANCH   1  21
ATOM     11  C   UNL     1      -4.181  11.365  18.486  0.00  0.00    +0.000 C 
ATOM     12  C   UNL     1      -5.357  12.347  18.428  0.00  0.00    +0.000 C 
ATOM     13  C   UNL     1      -6.292  12.251  17.244  0.00  0.00    +0.000 C 
ATOM     14  N   UNL     1      -5.668  13.212  19.354  0.00  0.00    +0.000 NA
ATOM     15  C   UNL     1      -4.880  13.253  20.465  0.00  0.00    +0.000 C 
ATOM     16  C   UNL     1      -3.776  12.549  20.648  0.00  0.00    +0.000 C 
ATOM     17  C   UNL     1      -3.271  12.863  21.976  0.00  0.00    +0.000 C 
ATOM     18  O   UNL     1      -2.309  12.340  22.508  0.00  0.00    +0.000 OA
ATOM     19  O   UNL     1      -4.071  13.817  22.535  0.00  0.00    +0.000 OA
ATOM     20  C   UNL     1      -5.145  14.120  21.634  0.00  0.00    +0.000 C 
ATOM     21  C   UNL     1      -3.199  11.621  19.658  0.00  0.00    +0.000 C 
BRANCH  11  23
ATOM     22  C   UNL     1      -3.032  11.276  16.141  0.00  0.00    +0.000 C 
ATOM     23  N   UNL     1      -3.529  11.300  17.201  0.00  0.00    +0.000 NA
ENDBRANCH  11  23
ENDBRANCH   1  21
BRANCH   7  24
ATOM     24  C   UNL     1       1.957   9.310  18.801  0.00  0.00    +0.000 A 
ATOM     25  C   UNL     1       2.398   8.467  17.781  0.00  0.00    +0.000 A 
ATOM     26  C   UNL     1       2.467   7.091  18.007  0.00  0.00    +0.000 A 
ATOM     27  C   UNL     1       2.074   6.601  19.243  0.00  0.00    +0.000 A 
ATOM     28  N   UNL     1       1.706   7.385  20.273  0.00  0.00    +0.000 NA
ATOM     29  C   UNL     1       1.680   8.717  20.031  0.00  0.00    +0.000 A 
BRANCH  27  30
ATOM     30  O   UNL     1       2.055   5.229  19.388  0.00  0.00    +0.000 OA
BRANCH  30  31
ATOM     31  C   UNL     1       2.897   4.522  18.464  0.00  0.00    +0.000 C 
ATOM     32  C   UNL     1       4.011   3.782  19.209  0.00  0.00    +0.000 C 
ATOM     33  C   UNL     1       2.007   3.511  17.746  0.00  0.00    +0.000 C 
ENDBRANCH  30  31
ENDBRANCH  27  30
ENDBRANCH   7  24
TORSDOF 5
ENDMDL
MODEL 9
REMARK VINA RESULT:      -6.4      3.963      7.429
REMARK  Name = 
REMARK  8 active torsions:
REMARK  status: ('A' for Active; 'I' for Inactive)
REMARK    1  A    between atoms: N_2  and  C_3
REMARK    2  A    between atoms: C_4  and  C_5
REMARK    3  A    between atoms: C_13  and  C_14
REMARK    4  A    between atoms: C_20  and  C_21
REMARK    5  A    between atoms: C_24  and  O_25
REMARK    6  A    between atoms: O_25  and  C_26
REMARK    7  A    between atoms: C_26  and  C_27
REMARK    8  A    between atoms: C_26  and  C_28
REMARK                            x       y       z     vdW  Elec       q    Type
REMARK                         _______ _______ _______ _____ _____    ______ ____
ROOT
ATOM      1  C   UNL     1      -2.522  13.409  23.296  0.00  0.00    +0.000 A 
ATOM      2  C   UNL     1      -3.235  13.534  24.498  0.00  0.00    +0.000 A 
ATOM      3  C   UNL     1      -4.610  13.260  24.563  0.00  0.00    +0.000 A 
ATOM      4  C   UNL     1      -5.243  12.881  23.375  0.00  0.00    +0.000 A 
ATOM      5  N   UNL     1      -6.531  12.515  23.096  0.00  0.00    +0.000 N 
ATOM      6  N   UNL     1      -6.757  12.204  21.805  0.00  0.00    +0.000 NA
ATOM      7  C   UNL     1      -5.567  12.385  21.208  0.00  0.00    +0.000 A 
ATOM      8  C   UNL     1      -4.580  12.783  22.162  0.00  0.00    +0.000 A 
ATOM      9  C   UNL     1      -3.199  13.034  22.128  0.00  0.00    +0.000 A 
ATOM     10  H   UNL     1      -7.303  12.437  23.748  0.00  0.00    +0.000 HD
ENDROOT
BRANCH   1  21
ATOM     11  C   UNL     1      -0.610  15.073  22.805  0.00  0.00    +0.000 C 
ATOM     12  C   UNL     1       0.059  15.184  21.429  0.00  0.00    +0.000 C 
ATOM     13  C   UNL     1       0.377  16.570  20.915  0.00  0.00    +0.000 C 
ATOM     14  N   UNL     1       0.449  14.180  20.693  0.00  0.00    +0.000 NA
ATOM     15  C   UNL     1       0.242  12.926  21.183  0.00  0.00    +0.000 C 
ATOM     16  C   UNL     1      -0.399  12.636  22.303  0.00  0.00    +0.000 C 
ATOM     17  C   UNL     1      -0.358  11.191  22.470  0.00  0.00    +0.000 C 
ATOM     18  O   UNL     1      -0.785  10.579  23.431  0.00  0.00    +0.000 OA
ATOM     19  O   UNL     1       0.263  10.642  21.385  0.00  0.00    +0.000 OA
ATOM     20  C   UNL     1       0.695  11.690  20.508  0.00  0.00    +0.000 C 
ATOM     21  C   UNL     1      -1.022  13.631  23.194  0.00  0.00    +0.000 C 
BRANCH  11  23
ATOM     22  C   UNL     1      -2.592  16.770  22.952  0.00  0.00    +0.000 C 
ATOM     23  N   UNL     1      -1.692  16.022  22.905  0.00  0.00    +0.000 NA
ENDBRANCH  11  23
ENDBRANCH   1  21
BRANCH   7  24
ATOM     24  C   UNL     1      -5.353  12.117  19.786  0.00  0.00    +0.000 A 
ATOM     25  C   UNL     1      -6.360  11.581  18.983  0.00  0.00    +0.000 A 
ATOM     26  C   UNL     1      -6.066  11.201  17.673  0.00  0.00    +0.000 A 
ATOM     27  C   UNL     1      -4.767  11.352  17.213  0.00  0.00    +0.000 A 
ATOM     28  N   UNL     1      -3.784  11.925  17.932  0.00  0.00    +0.000 NA
ATOM     29  C   UNL     1      -4.109  12.312  19.189  0.00  0.00    +0.000 A 
BRANCH  27  30
ATOM     30  O   UNL     1      -4.495  10.865  15.952  0.00  0.00    +0.000 OA
BRANCH  30  31
ATOM     31  C   UNL     1      -3.101  10.630  15.693  0.00  0.00    +0.000 C 
ATOM     32  C   UNL     1      -2.555   9.550  16.629  0.00  0.00    +0.000 C 
ATOM     33  C   UNL     1      -2.999  10.150  14.247  0.00  0.00    +0.000 C 
ENDBRANCH  30  31
ENDBRANCH  27  30
ENDBRANCH   7  24
TORSDOF 5
ENDMDL
