MODEL 1
REMARK VINA RESULT:      -8.4      0.000      0.000
REMARK  Name = 
REMARK  10 active torsions:
REMARK  status: ('A' for Active; 'I' for Inactive)
REMARK    1  A    between atoms: C_1  and  O_2
REMARK    2  A    between atoms: O_2  and  C_3
REMARK    3  A    between atoms: C_14  and  C_15
REMARK    4  A    between atoms: C_15  and  N_16
REMARK    5  A    between atoms: N_16  and  C_30
REMARK    6  A    between atoms: C_17  and  C_19
REMARK    7  A    between atoms: C_20  and  C_21
REMARK    8  A    between atoms: C_24  and  O_25
REMARK    9  A    between atoms: C_26  and  O_27
REMARK   10  A    between atoms: O_27  and  C_28
REMARK                            x       y       z     vdW  Elec       q    Type
REMARK                         _______ _______ _______ _____ _____    ______ ____
ROOT
ATOM      1  N   UNL     1      -0.050  10.985  18.958  0.00  0.00    +0.000 N 
ATOM      2  C   UNL     1       1.237  10.665  18.457  0.00  0.00    +0.000 C 
ATOM      3  O   UNL     1       2.146  11.500  18.449  0.00  0.00    +0.000 OA
ENDROOT
BRANCH   1   4
ATOM      4  C   UNL     1      -0.426  12.385  19.325  0.00  0.00    +0.000 C 
ATOM      5  C   UNL     1       0.178  12.975  20.598  0.00  0.00    +0.000 C 
ATOM      6  C   UNL     1      -0.267  14.440  20.559  0.00  0.00    +0.000 C 
ATOM      7  C   UNL     1      -0.447  14.793  19.081  0.00  0.00    +0.000 C 
ATOM      8  C   UNL     1      -0.206  13.497  18.292  0.00  0.00    +0.000 C 
ENDBRANCH   1   4
BRANCH   2   9
ATOM      9  C   UNL     1       1.523   9.273  17.817  0.00  0.00    +0.000 C 
ATOM     10  C   UNL     1       2.364   8.375  18.412  0.00  0.00    +0.000 C 
BRANCH  10  11
ATOM     11  C   UNL     1       2.976   7.077  17.923  0.00  0.00    +0.000 A 
ATOM     12  C   UNL     1       2.237   5.901  18.172  0.00  0.00    +0.000 A 
ATOM     13  C   UNL     1       2.776   4.615  17.974  0.00  0.00    +0.000 A 
ATOM     14  C   UNL     1       4.057   4.463  17.462  0.00  0.00    +0.000 A 
ATOM     15  C   UNL     1       4.755   5.600  17.021  0.00  0.00    +0.000 A 
ATOM     16  C   UNL     1       4.218   6.894  17.290  0.00  0.00    +0.000 A 
BRANCH  14  17
ATOM     17  O   UNL     1       4.601   3.211  17.422  0.00  0.00    +0.000 OA
ATOM     18  H   UNL     1       4.079   2.623  17.997  0.00  0.00    +0.000 HD
ENDBRANCH  14  17
BRANCH  15  19
ATOM     19  O   UNL     1       5.960   5.582  16.351  0.00  0.00    +0.000 OA
ATOM     20  C   UNL     1       7.087   6.207  16.977  0.00  0.00    +0.000 C 
ENDBRANCH  15  19
ENDBRANCH  10  11
ENDBRANCH   2   9
BRANCH   1  21
ATOM     21  C   UNL     1      -1.199  10.050  19.041  0.00  0.00    +0.000 C 
BRANCH  21  33
ATOM     22  C   UNL     1      -5.740  13.966  20.477  0.00  0.00    +0.000 A 
ATOM     23  C   UNL     1      -4.704  13.336  21.162  0.00  0.00    +0.000 A 
ATOM     24  C   UNL     1      -3.877  12.368  20.519  0.00  0.00    +0.000 A 
ATOM     25  C   UNL     1      -4.078  12.038  19.152  0.00  0.00    +0.000 A 
ATOM     26  C   UNL     1      -5.162  12.672  18.542  0.00  0.00    +0.000 A 
ATOM     27  C   UNL     1      -5.999  13.603  19.162  0.00  0.00    +0.000 A 
ATOM     28  N   UNL     1      -5.228  12.237  17.256  0.00  0.00    +0.000 N 
ATOM     29  C   UNL     1      -4.187  11.405  16.961  0.00  0.00    +0.000 A 
ATOM     30  C   UNL     1      -3.897  10.858  15.711  0.00  0.00    +0.000 A 
ATOM     31  C   UNL     1      -2.780  10.068  15.591  0.00  0.00    +0.000 A 
ATOM     32  C   UNL     1      -2.007   9.818  16.705  0.00  0.00    +0.000 A 
ATOM     33  C   UNL     1      -2.262  10.373  17.993  0.00  0.00    +0.000 A 
ATOM     34  C   UNL     1      -3.422  11.215  18.126  0.00  0.00    +0.000 A 
ATOM     35  H   UNL     1      -5.915  12.547  16.582  0.00  0.00    +0.000 HD
BRANCH  22  37
ATOM     36  C   UNL     1      -6.148  16.302  20.840  0.00  0.00    +0.000 C 
ATOM     37  O   UNL     1      -6.577  14.952  20.916  0.00  0.00    +0.000 OA
ENDBRANCH  22  37
ENDBRANCH  21  33
ENDBRANCH   1  21
TORSDOF 8
ENDMDL
MODEL 2
REMARK VINA RESULT:      -8.4      2.356      3.764
REMARK  Name = 
REMARK  10 active torsions:
REMARK  status: ('A' for Active; 'I' for Inactive)
REMARK    1  A    between atoms: C_1  and  O_2
REMARK    2  A    between atoms: O_2  and  C_3
REMARK    3  A    between atoms: C_14  and  C_15
REMARK    4  A    between atoms: C_15  and  N_16
REMARK    5  A    between atoms: N_16  and  C_30
REMARK    6  A    between atoms: C_17  and  C_19
REMARK    7  A    between atoms: C_20  and  C_21
REMARK    8  A    between atoms: C_24  and  O_25
REMARK    9  A    between atoms: C_26  and  O_27
REMARK   10  A    between atoms: O_27  and  C_28
REMARK                            x       y       z     vdW  Elec       q    Type
REMARK                         _______ _______ _______ _____ _____    ______ ____
ROOT
ATOM      1  N   UNL     1       0.876  10.907  18.537  0.00  0.00    +0.000 N 
ATOM      2  C   UNL     1       1.969  10.220  17.950  0.00  0.00    +0.000 C 
ATOM      3  O   UNL     1       2.965  10.829  17.547  0.00  0.00    +0.000 OA
ENDROOT
BRANCH   1   4
ATOM      4  C   UNL     1       0.789  12.400  18.530  0.00  0.00    +0.000 C 
ATOM      5  C   UNL     1      -0.572  13.033  18.249  0.00  0.00    +0.000 C 
ATOM      6  C   UNL     1      -0.330  14.526  18.499  0.00  0.00    +0.000 C 
ATOM      7  C   UNL     1       0.809  14.609  19.519  0.00  0.00    +0.000 C 
ATOM      8  C   UNL     1       1.279  13.167  19.764  0.00  0.00    +0.000 C 
ENDBRANCH   1   4
BRANCH   2   9
ATOM      9  C   UNL     1       1.912   8.681  17.712  0.00  0.00    +0.000 C 
ATOM     10  C   UNL     1       2.639   7.815  18.479  0.00  0.00    +0.000 C 
BRANCH  10  11
ATOM     11  C   UNL     1       2.936   6.335  18.337  0.00  0.00    +0.000 A 
ATOM     12  C   UNL     1       4.294   5.958  18.396  0.00  0.00    +0.000 A 
ATOM     13  C   UNL     1       4.734   4.663  18.064  0.00  0.00    +0.000 A 
ATOM     14  C   UNL     1       3.818   3.680  17.718  0.00  0.00    +0.000 A 
ATOM     15  C   UNL     1       2.444   3.955  17.831  0.00  0.00    +0.000 A 
ATOM     16  C   UNL     1       2.023   5.290  18.107  0.00  0.00    +0.000 A 
BRANCH  14  17
ATOM     17  O   UNL     1       4.287   2.481  17.260  0.00  0.00    +0.000 OA
ATOM     18  H   UNL     1       3.598   2.063  16.712  0.00  0.00    +0.000 HD
ENDBRANCH  14  17
BRANCH  15  19
ATOM     19  O   UNL     1       1.433   3.031  17.674  0.00  0.00    +0.000 OA
ATOM     20  C   UNL     1       0.808   2.511  18.854  0.00  0.00    +0.000 C 
ENDBRANCH  15  19
ENDBRANCH  10  11
ENDBRANCH   2   9
BRANCH   1  21
ATOM     21  C   UNL     1      -0.351  10.271  19.077  0.00  0.00    +0.000 C 
BRANCH  21  33
ATOM     22  C   UNL     1      -4.393  13.773  22.145  0.00  0.00    +0.000 A 
ATOM     23  C   UNL     1      -4.002  13.620  20.817  0.00  0.00    +0.000 A 
ATOM     24  C   UNL     1      -2.916  12.767  20.462  0.00  0.00    +0.000 A 
ATOM     25  C   UNL     1      -2.218  12.032  21.457  0.00  0.00    +0.000 A 
ATOM     26  C   UNL     1      -2.632  12.269  22.769  0.00  0.00    +0.000 A 
ATOM     27  C   UNL     1      -3.676  13.120  23.139  0.00  0.00    +0.000 A 
ATOM     28  N   UNL     1      -1.859  11.512  23.592  0.00  0.00    +0.000 N 
ATOM     29  C   UNL     1      -1.005  10.721  22.879  0.00  0.00    +0.000 A 
ATOM     30  C   UNL     1      -0.143   9.757  23.402  0.00  0.00    +0.000 A 
ATOM     31  C   UNL     1       0.621   9.025  22.527  0.00  0.00    +0.000 A 
ATOM     32  C   UNL     1       0.535   9.285  21.176  0.00  0.00    +0.000 A 
ATOM     33  C   UNL     1      -0.346  10.249  20.604  0.00  0.00    +0.000 A 
ATOM     34  C   UNL     1      -1.162  11.011  21.512  0.00  0.00    +0.000 A 
ATOM     35  H   UNL     1      -1.954  11.482  24.598  0.00  0.00    +0.000 HD
BRANCH  22  37
ATOM     36  C   UNL     1      -5.187  15.758  23.233  0.00  0.00    +0.000 C 
ATOM     37  O   UNL     1      -5.440  14.491  22.649  0.00  0.00    +0.000 OA
ENDBRANCH  22  37
ENDBRANCH  21  33
ENDBRANCH   1  21
TORSDOF 8
ENDMDL
MODEL 3
REMARK VINA RESULT:      -8.3      2.324      3.394
REMARK  Name = 
REMARK  10 active torsions:
REMARK  status: ('A' for Active; 'I' for Inactive)
REMARK    1  A    between atoms: C_1  and  O_2
REMARK    2  A    between atoms: O_2  and  C_3
REMARK    3  A    between atoms: C_14  and  C_15
REMARK    4  A    between atoms: C_15  and  N_16
REMARK    5  A    between atoms: N_16  and  C_30
REMARK    6  A    between atoms: C_17  and  C_19
REMARK    7  A    between atoms: C_20  and  C_21
REMARK    8  A    between atoms: C_24  and  O_25
REMARK    9  A    between atoms: C_26  and  O_27
REMARK   10  A    between atoms: O_27  and  C_28
REMARK                            x       y       z     vdW  Elec       q    Type
REMARK                         _______ _______ _______ _____ _____    ______ ____
ROOT
ATOM      1  N   UNL     1       0.871  11.059  18.558  0.00  0.00    +0.000 N 
ATOM      2  C   UNL     1       1.933  10.325  17.972  0.00  0.00    +0.000 C 
ATOM      3  O   UNL     1       2.967  10.886  17.596  0.00  0.00    +0.000 OA
ENDROOT
BRANCH   1   4
ATOM      4  C   UNL     1       0.866  12.554  18.580  0.00  0.00    +0.000 C 
ATOM      5  C   UNL     1      -0.453  13.267  18.286  0.00  0.00    +0.000 C 
ATOM      6  C   UNL     1      -0.135  14.739  18.571  0.00  0.00    +0.000 C 
ATOM      7  C   UNL     1       0.986  14.739  19.614  0.00  0.00    +0.000 C 
ATOM      8  C   UNL     1       1.372  13.270  19.838  0.00  0.00    +0.000 C 
ENDBRANCH   1   4
BRANCH   2   9
ATOM      9  C   UNL     1       1.796   8.796  17.703  0.00  0.00    +0.000 C 
ATOM     10  C   UNL     1       2.768   7.916  18.087  0.00  0.00    +0.000 C 
BRANCH  10  11
ATOM     11  C   UNL     1       2.994   6.450  17.771  0.00  0.00    +0.000 A 
ATOM     12  C   UNL     1       1.918   5.577  18.038  0.00  0.00    +0.000 A 
ATOM     13  C   UNL     1       2.057   4.176  18.003  0.00  0.00    +0.000 A 
ATOM     14  C   UNL     1       3.265   3.600  17.639  0.00  0.00    +0.000 A 
ATOM     15  C   UNL     1       4.305   4.427  17.180  0.00  0.00    +0.000 A 
ATOM     16  C   UNL     1       4.165   5.843  17.286  0.00  0.00    +0.000 A 
BRANCH  14  17
ATOM     17  O   UNL     1       3.408   2.246  17.758  0.00  0.00    +0.000 OA
ATOM     18  H   UNL     1       3.792   1.898  16.935  0.00  0.00    +0.000 HD
ENDBRANCH  14  17
BRANCH  15  19
ATOM     19  O   UNL     1       5.494   3.983  16.642  0.00  0.00    +0.000 OA
ATOM     20  C   UNL     1       6.017   4.677  15.502  0.00  0.00    +0.000 C 
ENDBRANCH  15  19
ENDBRANCH  10  11
ENDBRANCH   2   9
BRANCH   1  21
ATOM     21  C   UNL     1      -0.397  10.481  19.068  0.00  0.00    +0.000 C 
BRANCH  21  33
ATOM     22  C   UNL     1      -4.308  13.977  22.309  0.00  0.00    +0.000 A 
ATOM     23  C   UNL     1      -3.921  13.876  20.975  0.00  0.00    +0.000 A 
ATOM     24  C   UNL     1      -2.867  13.000  20.577  0.00  0.00    +0.000 A 
ATOM     25  C   UNL     1      -2.200  12.190  21.534  0.00  0.00    +0.000 A 
ATOM     26  C   UNL     1      -2.606  12.377  22.857  0.00  0.00    +0.000 A 
ATOM     27  C   UNL     1      -3.618  13.248  23.269  0.00  0.00    +0.000 A 
ATOM     28  N   UNL     1      -1.864  11.551  23.640  0.00  0.00    +0.000 N 
ATOM     29  C   UNL     1      -1.040  10.764  22.888  0.00  0.00    +0.000 A 
ATOM     30  C   UNL     1      -0.216   9.743  23.362  0.00  0.00    +0.000 A 
ATOM     31  C   UNL     1       0.521   9.027  22.451  0.00  0.00    +0.000 A 
ATOM     32  C   UNL     1       0.447   9.358  21.114  0.00  0.00    +0.000 A 
ATOM     33  C   UNL     1      -0.396  10.382  20.592  0.00  0.00    +0.000 A 
ATOM     34  C   UNL     1      -1.183  11.129  21.538  0.00  0.00    +0.000 A 
ATOM     35  H   UNL     1      -1.963  11.474  24.644  0.00  0.00    +0.000 HD
BRANCH  22  37
ATOM     36  C   UNL     1      -5.020  15.881  23.582  0.00  0.00    +0.000 C 
ATOM     37  O   UNL     1      -5.328  14.707  22.849  0.00  0.00    +0.000 OA
ENDBRANCH  22  37
ENDBRANCH  21  33
ENDBRANCH   1  21
TORSDOF 8
ENDMDL
MODEL 4
REMARK VINA RESULT:      -8.1      0.927      1.207
REMARK  Name = 
REMARK  10 active torsions:
REMARK  status: ('A' for Active; 'I' for Inactive)
REMARK    1  A    between atoms: C_1  and  O_2
REMARK    2  A    between atoms: O_2  and  C_3
REMARK    3  A    between atoms: C_14  and  C_15
REMARK    4  A    between atoms: C_15  and  N_16
REMARK    5  A    between atoms: N_16  and  C_30
REMARK    6  A    between atoms: C_17  and  C_19
REMARK    7  A    between atoms: C_20  and  C_21
REMARK    8  A    between atoms: C_24  and  O_25
REMARK    9  A    between atoms: C_26  and  O_27
REMARK   10  A    between atoms: O_27  and  C_28
REMARK                            x       y       z     vdW  Elec       q    Type
REMARK                         _______ _______ _______ _____ _____    ______ ____
ROOT
ATOM      1  N   UNL     1       0.765  11.076  18.962  0.00  0.00    +0.000 N 
ATOM      2  C   UNL     1       1.809  10.468  18.221  0.00  0.00    +0.000 C 
ATOM      3  O   UNL     1       2.771  11.126  17.814  0.00  0.00    +0.000 OA
ENDROOT
BRANCH   1   4
ATOM      4  C   UNL     1       0.677  12.561  19.125  0.00  0.00    +0.000 C 
ATOM      5  C   UNL     1      -0.272  13.325  18.205  0.00  0.00    +0.000 C 
ATOM      6  C   UNL     1      -0.243  14.751  18.764  0.00  0.00    +0.000 C 
ATOM      7  C   UNL     1       0.084  14.618  20.254  0.00  0.00    +0.000 C 
ATOM      8  C   UNL     1       0.343  13.126  20.511  0.00  0.00    +0.000 C 
ENDBRANCH   1   4
BRANCH   2   9
ATOM      9  C   UNL     1       1.735   8.964  17.821  0.00  0.00    +0.000 C 
ATOM     10  C   UNL     1       2.684   8.071  18.231  0.00  0.00    +0.000 C 
BRANCH  10  11
ATOM     11  C   UNL     1       2.974   6.638  17.827  0.00  0.00    +0.000 A 
ATOM     12  C   UNL     1       1.909   5.721  17.954  0.00  0.00    +0.000 A 
ATOM     13  C   UNL     1       2.090   4.331  17.827  0.00  0.00    +0.000 A 
ATOM     14  C   UNL     1       3.338   3.814  17.507  0.00  0.00    +0.000 A 
ATOM     15  C   UNL     1       4.382   4.697  17.184  0.00  0.00    +0.000 A 
ATOM     16  C   UNL     1       4.193   6.098  17.382  0.00  0.00    +0.000 A 
BRANCH  14  17
ATOM     17  O   UNL     1       3.511   2.458  17.538  0.00  0.00    +0.000 OA
ATOM     18  H   UNL     1       3.574   2.171  18.466  0.00  0.00    +0.000 HD
ENDBRANCH  14  17
BRANCH  15  19
ATOM     19  O   UNL     1       5.617   4.324  16.700  0.00  0.00    +0.000 OA
ATOM     20  C   UNL     1       6.522   5.359  16.297  0.00  0.00    +0.000 C 
ENDBRANCH  15  19
ENDBRANCH  10  11
ENDBRANCH   2   9
BRANCH   1  21
ATOM     21  C   UNL     1      -0.417  10.375  19.521  0.00  0.00    +0.000 C 
BRANCH  21  33
ATOM     22  C   UNL     1      -4.891  14.188  21.381  0.00  0.00    +0.000 A 
ATOM     23  C   UNL     1      -3.724  13.665  21.932  0.00  0.00    +0.000 A 
ATOM     24  C   UNL     1      -2.955  12.685  21.238  0.00  0.00    +0.000 A 
ATOM     25  C   UNL     1      -3.352  12.233  19.951  0.00  0.00    +0.000 A 
ATOM     26  C   UNL     1      -4.554  12.764  19.481  0.00  0.00    +0.000 A 
ATOM     27  C   UNL     1      -5.334  13.705  20.157  0.00  0.00    +0.000 A 
ATOM     28  N   UNL     1      -4.799  12.220  18.259  0.00  0.00    +0.000 N 
ATOM     29  C   UNL     1      -3.771  11.415  17.861  0.00  0.00    +0.000 A 
ATOM     30  C   UNL     1      -3.652  10.778  16.626  0.00  0.00    +0.000 A 
ATOM     31  C   UNL     1      -2.525  10.032  16.385  0.00  0.00    +0.000 A 
ATOM     32  C   UNL     1      -1.572   9.911  17.374  0.00  0.00    +0.000 A 
ATOM     33  C   UNL     1      -1.650  10.561  18.640  0.00  0.00    +0.000 A 
ATOM     34  C   UNL     1      -2.821  11.358  18.897  0.00  0.00    +0.000 A 
ATOM     35  H   UNL     1      -5.601  12.442  17.685  0.00  0.00    +0.000 HD
BRANCH  22  37
ATOM     36  C   UNL     1      -7.048  14.853  22.193  0.00  0.00    +0.000 C 
ATOM     37  O   UNL     1      -5.703  15.169  21.875  0.00  0.00    +0.000 OA
ENDBRANCH  22  37
ENDBRANCH  21  33
ENDBRANCH   1  21
TORSDOF 8
ENDMDL
MODEL 5
REMARK VINA RESULT:      -8.1      1.024      1.857
REMARK  Name = 
REMARK  10 active torsions:
REMARK  status: ('A' for Active; 'I' for Inactive)
REMARK    1  A    between atoms: C_1  and  O_2
REMARK    2  A    between atoms: O_2  and  C_3
REMARK    3  A    between atoms: C_14  and  C_15
REMARK    4  A    between atoms: C_15  and  N_16
REMARK    5  A    between atoms: N_16  and  C_30
REMARK    6  A    between atoms: C_17  and  C_19
REMARK    7  A    between atoms: C_20  and  C_21
REMARK    8  A    between atoms: C_24  and  O_25
REMARK    9  A    between atoms: C_26  and  O_27
REMARK   10  A    between atoms: O_27  and  C_28
REMARK                            x       y       z     vdW  Elec       q    Type
REMARK                         _______ _______ _______ _____ _____    ______ ____
ROOT
ATOM      1  N   UNL     1      -0.023  11.330  19.112  0.00  0.00    +0.000 N 
ATOM      2  C   UNL     1       1.292  11.019  18.683  0.00  0.00    +0.000 C 
ATOM      3  O   UNL     1       2.165  11.889  18.614  0.00  0.00    +0.000 OA
ENDROOT
BRANCH   1   4
ATOM      4  C   UNL     1      -0.469  12.742  19.320  0.00  0.00    +0.000 C 
ATOM      5  C   UNL     1      -0.132  13.407  20.654  0.00  0.00    +0.000 C 
ATOM      6  C   UNL     1      -0.566  14.862  20.448  0.00  0.00    +0.000 C 
ATOM      7  C   UNL     1      -0.450  15.133  18.946  0.00  0.00    +0.000 C 
ATOM      8  C   UNL     1      -0.053  13.801  18.292  0.00  0.00    +0.000 C 
ENDBRANCH   1   4
BRANCH   2   9
ATOM      9  C   UNL     1       1.657   9.584  18.200  0.00  0.00    +0.000 C 
ATOM     10  C   UNL     1       1.941   8.584  19.088  0.00  0.00    +0.000 C 
BRANCH  10  11
ATOM     11  C   UNL     1       2.521   7.195  18.904  0.00  0.00    +0.000 A 
ATOM     12  C   UNL     1       3.391   7.018  17.808  0.00  0.00    +0.000 A 
ATOM     13  C   UNL     1       3.826   5.746  17.388  0.00  0.00    +0.000 A 
ATOM     14  C   UNL     1       3.452   4.610  18.091  0.00  0.00    +0.000 A 
ATOM     15  C   UNL     1       2.746   4.754  19.297  0.00  0.00    +0.000 A 
ATOM     16  C   UNL     1       2.260   6.044  19.668  0.00  0.00    +0.000 A 
BRANCH  14  17
ATOM     17  O   UNL     1       3.768   3.386  17.572  0.00  0.00    +0.000 OA
ATOM     18  H   UNL     1       4.706   3.388  17.312  0.00  0.00    +0.000 HD
ENDBRANCH  14  17
BRANCH  15  19
ATOM     19  O   UNL     1       2.449   3.731  20.171  0.00  0.00    +0.000 OA
ATOM     20  C   UNL     1       1.085   3.301  20.266  0.00  0.00    +0.000 C 
ENDBRANCH  15  19
ENDBRANCH  10  11
ENDBRANCH   2   9
BRANCH   1  21
ATOM     21  C   UNL     1      -1.134  10.358  19.259  0.00  0.00    +0.000 C 
BRANCH  21  33
ATOM     22  C   UNL     1      -5.922  14.059  20.442  0.00  0.00    +0.000 A 
ATOM     23  C   UNL     1      -4.858  13.531  21.168  0.00  0.00    +0.000 A 
ATOM     24  C   UNL     1      -3.965  12.582  20.586  0.00  0.00    +0.000 A 
ATOM     25  C   UNL     1      -4.129  12.168  19.237  0.00  0.00    +0.000 A 
ATOM     26  C   UNL     1      -5.243  12.701  18.584  0.00  0.00    +0.000 A 
ATOM     27  C   UNL     1      -6.142  13.611  19.146  0.00  0.00    +0.000 A 
ATOM     28  N   UNL     1      -5.266  12.196  17.323  0.00  0.00    +0.000 N 
ATOM     29  C   UNL     1      -4.173  11.415  17.082  0.00  0.00    +0.000 A 
ATOM     30  C   UNL     1      -3.835  10.821  15.866  0.00  0.00    +0.000 A 
ATOM     31  C   UNL     1      -2.671  10.095  15.799  0.00  0.00    +0.000 A 
ATOM     32  C   UNL     1      -1.898   9.953  16.932  0.00  0.00    +0.000 A 
ATOM     33  C   UNL     1      -2.202  10.559  18.186  0.00  0.00    +0.000 A 
ATOM     34  C   UNL     1      -3.413  11.334  18.262  0.00  0.00    +0.000 A 
ATOM     35  H   UNL     1      -5.963  12.427  16.628  0.00  0.00    +0.000 HD
BRANCH  22  37
ATOM     36  C   UNL     1      -7.617  15.640  19.826  0.00  0.00    +0.000 C 
ATOM     37  O   UNL     1      -6.822  15.014  20.819  0.00  0.00    +0.000 OA
ENDBRANCH  22  37
ENDBRANCH  21  33
ENDBRANCH   1  21
TORSDOF 8
ENDMDL
MODEL 6
REMARK VINA RESULT:      -8.0      2.174      3.016
REMARK  Name = 
REMARK  10 active torsions:
REMARK  status: ('A' for Active; 'I' for Inactive)
REMARK    1  A    between atoms: C_1  and  O_2
REMARK    2  A    between atoms: O_2  and  C_3
REMARK    3  A    between atoms: C_14  and  C_15
REMARK    4  A    between atoms: C_15  and  N_16
REMARK    5  A    between atoms: N_16  and  C_30
REMARK    6  A    between atoms: C_17  and  C_19
REMARK    7  A    between atoms: C_20  and  C_21
REMARK    8  A    between atoms: C_24  and  O_25
REMARK    9  A    between atoms: C_26  and  O_27
REMARK   10  A    between atoms: O_27  and  C_28
REMARK                            x       y       z     vdW  Elec       q    Type
REMARK                         _______ _______ _______ _____ _____    ______ ____
ROOT
ATOM      1  N   UNL     1      -0.493  11.189  21.533  0.00  0.00    +0.000 N 
ATOM      2  C   UNL     1      -0.049   9.875  21.823  0.00  0.00    +0.000 C 
ATOM      3  O   UNL     1      -0.179   9.390  22.951  0.00  0.00    +0.000 OA
ENDROOT
BRANCH   1   4
ATOM      4  C   UNL     1      -0.965  12.116  22.608  0.00  0.00    +0.000 C 
ATOM      5  C   UNL     1      -0.819  13.617  22.370  0.00  0.00    +0.000 C 
ATOM      6  C   UNL     1      -1.554  14.242  23.560  0.00  0.00    +0.000 C 
ATOM      7  C   UNL     1      -2.616  13.225  23.987  0.00  0.00    +0.000 C 
ATOM      8  C   UNL     1      -2.410  11.985  23.106  0.00  0.00    +0.000 C 
ENDBRANCH   1   4
BRANCH   2   9
ATOM      9  C   UNL     1       0.699   9.028  20.750  0.00  0.00    +0.000 C 
ATOM     10  C   UNL     1       1.003   7.713  20.966  0.00  0.00    +0.000 C 
BRANCH  10  11
ATOM     11  C   UNL     1       1.888   6.737  20.214  0.00  0.00    +0.000 A 
ATOM     12  C   UNL     1       2.506   7.224  19.043  0.00  0.00    +0.000 A 
ATOM     13  C   UNL     1       3.170   6.379  18.133  0.00  0.00    +0.000 A 
ATOM     14  C   UNL     1       3.290   5.022  18.397  0.00  0.00    +0.000 A 
ATOM     15  C   UNL     1       2.858   4.526  19.639  0.00  0.00    +0.000 A 
ATOM     16  C   UNL     1       2.131   5.386  20.516  0.00  0.00    +0.000 A 
BRANCH  14  17
ATOM     17  O   UNL     1       3.807   4.210  17.426  0.00  0.00    +0.000 OA
ATOM     18  H   UNL     1       3.351   3.351  17.460  0.00  0.00    +0.000 HD
ENDBRANCH  14  17
BRANCH  15  19
ATOM     19  O   UNL     1       3.057   3.241  20.094  0.00  0.00    +0.000 OA
ATOM     20  C   UNL     1       2.508   2.885  21.368  0.00  0.00    +0.000 C 
ENDBRANCH  15  19
ENDBRANCH  10  11
ENDBRANCH   2   9
BRANCH   1  21
ATOM     21  C   UNL     1      -0.412  11.854  20.209  0.00  0.00    +0.000 C 
BRANCH  21  33
ATOM     22  C   UNL     1      -6.168  14.055  20.033  0.00  0.00    +0.000 A 
ATOM     23  C   UNL     1      -5.052  14.229  20.847  0.00  0.00    +0.000 A 
ATOM     24  C   UNL     1      -3.874  13.446  20.659  0.00  0.00    +0.000 A 
ATOM     25  C   UNL     1      -3.804  12.482  19.618  0.00  0.00    +0.000 A 
ATOM     26  C   UNL     1      -4.974  12.329  18.873  0.00  0.00    +0.000 A 
ATOM     27  C   UNL     1      -6.145  13.067  19.058  0.00  0.00    +0.000 A 
ATOM     28  N   UNL     1      -4.749  11.365  17.941  0.00  0.00    +0.000 N 
ATOM     29  C   UNL     1      -3.456  10.929  17.981  0.00  0.00    +0.000 A 
ATOM     30  C   UNL     1      -2.865  10.019  17.106  0.00  0.00    +0.000 A 
ATOM     31  C   UNL     1      -1.534   9.725  17.276  0.00  0.00    +0.000 A 
ATOM     32  C   UNL     1      -0.841  10.308  18.315  0.00  0.00    +0.000 A 
ATOM     33  C   UNL     1      -1.407  11.255  19.218  0.00  0.00    +0.000 A 
ATOM     34  C   UNL     1      -2.797  11.582  19.039  0.00  0.00    +0.000 A 
ATOM     35  H   UNL     1      -5.429  11.062  17.257  0.00  0.00    +0.000 HD
BRANCH  22  37
ATOM     36  C   UNL     1      -7.782  15.357  18.826  0.00  0.00    +0.000 C 
ATOM     37  O   UNL     1      -7.341  14.756  20.032  0.00  0.00    +0.000 OA
ENDBRANCH  22  37
ENDBRANCH  21  33
ENDBRANCH   1  21
TORSDOF 8
ENDMDL
MODEL 7
REMARK VINA RESULT:      -7.9      2.099      3.739
REMARK  Name = 
REMARK  10 active torsions:
REMARK  status: ('A' for Active; 'I' for Inactive)
REMARK    1  A    between atoms: C_1  and  O_2
REMARK    2  A    between atoms: O_2  and  C_3
REMARK    3  A    between atoms: C_14  and  C_15
REMARK    4  A    between atoms: C_15  and  N_16
REMARK    5  A    between atoms: N_16  and  C_30
REMARK    6  A    between atoms: C_17  and  C_19
REMARK    7  A    between atoms: C_20  and  C_21
REMARK    8  A    between atoms: C_24  and  O_25
REMARK    9  A    between atoms: C_26  and  O_27
REMARK   10  A    between atoms: O_27  and  C_28
REMARK                            x       y       z     vdW  Elec       q    Type
REMARK                         _______ _______ _______ _____ _____    ______ ____
ROOT
ATOM      1  N   UNL     1       1.129  11.210  19.462  0.00  0.00    +0.000 N 
ATOM      2  C   UNL     1       1.908  10.546  18.481  0.00  0.00    +0.000 C 
ATOM      3  O   UNL     1       2.743  11.156  17.807  0.00  0.00    +0.000 OA
ENDROOT
BRANCH   1   4
ATOM      4  C   UNL     1       1.141  12.699  19.601  0.00  0.00    +0.000 C 
ATOM      5  C   UNL     1       2.356  13.343  20.265  0.00  0.00    +0.000 C 
ATOM      6  C   UNL     1       2.116  14.844  20.073  0.00  0.00    +0.000 C 
ATOM      7  C   UNL     1       1.268  14.981  18.806  0.00  0.00    +0.000 C 
ATOM      8  C   UNL     1       0.943  13.553  18.343  0.00  0.00    +0.000 C 
ENDBRANCH   1   4
BRANCH   2   9
ATOM      9  C   UNL     1       1.675   9.039  18.159  0.00  0.00    +0.000 C 
ATOM     10  C   UNL     1       2.582   8.085  18.524  0.00  0.00    +0.000 C 
BRANCH  10  11
ATOM     11  C   UNL     1       2.715   6.618  18.162  0.00  0.00    +0.000 A 
ATOM     12  C   UNL     1       1.767   5.742  18.730  0.00  0.00    +0.000 A 
ATOM     13  C   UNL     1       1.897   4.341  18.662  0.00  0.00    +0.000 A 
ATOM     14  C   UNL     1       2.953   3.769  17.968  0.00  0.00    +0.000 A 
ATOM     15  C   UNL     1       3.813   4.597  17.227  0.00  0.00    +0.000 A 
ATOM     16  C   UNL     1       3.702   6.013  17.363  0.00  0.00    +0.000 A 
BRANCH  14  17
ATOM     17  O   UNL     1       3.131   2.416  18.047  0.00  0.00    +0.000 OA
ATOM     18  H   UNL     1       2.499   1.981  17.448  0.00  0.00    +0.000 HD
ENDBRANCH  14  17
BRANCH  15  19
ATOM     19  O   UNL     1       4.799   4.156  16.372  0.00  0.00    +0.000 OA
ATOM     20  C   UNL     1       5.730   5.119  15.864  0.00  0.00    +0.000 C 
ENDBRANCH  15  19
ENDBRANCH  10  11
ENDBRANCH   2   9
BRANCH   1  21
ATOM     21  C   UNL     1       0.123  10.567  20.343  0.00  0.00    +0.000 C 
BRANCH  21  33
ATOM     22  C   UNL     1      -3.624  10.319  15.453  0.00  0.00    +0.000 A 
ATOM     23  C   UNL     1      -2.338   9.877  15.756  0.00  0.00    +0.000 A 
ATOM     24  C   UNL     1      -1.714  10.219  16.992  0.00  0.00    +0.000 A 
ATOM     25  C   UNL     1      -2.400  11.003  17.958  0.00  0.00    +0.000 A 
ATOM     26  C   UNL     1      -3.664  11.450  17.568  0.00  0.00    +0.000 A 
ATOM     27  C   UNL     1      -4.282  11.147  16.352  0.00  0.00    +0.000 A 
ATOM     28  N   UNL     1      -4.173  12.195  18.585  0.00  0.00    +0.000 N 
ATOM     29  C   UNL     1      -3.337  12.196  19.664  0.00  0.00    +0.000 A 
ATOM     30  C   UNL     1      -3.593  12.778  20.905  0.00  0.00    +0.000 A 
ATOM     31  C   UNL     1      -2.647  12.646  21.892  0.00  0.00    +0.000 A 
ATOM     32  C   UNL     1      -1.474  11.976  21.618  0.00  0.00    +0.000 A 
ATOM     33  C   UNL     1      -1.186  11.353  20.368  0.00  0.00    +0.000 A 
ATOM     34  C   UNL     1      -2.177  11.473  19.332  0.00  0.00    +0.000 A 
ATOM     35  H   UNL     1      -5.085  12.632  18.573  0.00  0.00    +0.000 HD
BRANCH  22  37
ATOM     36  C   UNL     1      -3.751   9.863  13.102  0.00  0.00    +0.000 C 
ATOM     37  O   UNL     1      -4.388  10.034  14.357  0.00  0.00    +0.000 OA
ENDBRANCH  22  37
ENDBRANCH  21  33
ENDBRANCH   1  21
TORSDOF 8
ENDMDL
MODEL 8
REMARK VINA RESULT:      -7.8      2.074      3.895
REMARK  Name = 
REMARK  10 active torsions:
REMARK  status: ('A' for Active; 'I' for Inactive)
REMARK    1  A    between atoms: C_1  and  O_2
REMARK    2  A    between atoms: O_2  and  C_3
REMARK    3  A    between atoms: C_14  and  C_15
REMARK    4  A    between atoms: C_15  and  N_16
REMARK    5  A    between atoms: N_16  and  C_30
REMARK    6  A    between atoms: C_17  and  C_19
REMARK    7  A    between atoms: C_20  and  C_21
REMARK    8  A    between atoms: C_24  and  O_25
REMARK    9  A    between atoms: C_26  and  O_27
REMARK   10  A    between atoms: O_27  and  C_28
REMARK                            x       y       z     vdW  Elec       q    Type
REMARK                         _______ _______ _______ _____ _____    ______ ____
ROOT
ATOM      1  N   UNL     1       0.572  11.821  20.004  0.00  0.00    +0.000 N 
ATOM      2  C   UNL     1       1.301  10.994  19.113  0.00  0.00    +0.000 C 
ATOM      3  O   UNL     1       2.102  11.473  18.305  0.00  0.00    +0.000 OA
ENDROOT
BRANCH   1   4
ATOM      4  C   UNL     1       0.591  13.312  19.887  0.00  0.00    +0.000 C 
ATOM      5  C   UNL     1       1.912  14.031  20.154  0.00  0.00    +0.000 C 
ATOM      6  C   UNL     1       1.612  15.484  19.772  0.00  0.00    +0.000 C 
ATOM      7  C   UNL     1       0.507  15.428  18.714  0.00  0.00    +0.000 C 
ATOM      8  C   UNL     1       0.110  13.951  18.578  0.00  0.00    +0.000 C 
ENDBRANCH   1   4
BRANCH   2   9
ATOM      9  C   UNL     1       1.052   9.457  19.064  0.00  0.00    +0.000 C 
ATOM     10  C   UNL     1       1.963   8.571  19.568  0.00  0.00    +0.000 C 
BRANCH  10  11
ATOM     11  C   UNL     1       2.079   7.062  19.464  0.00  0.00    +0.000 A 
ATOM     12  C   UNL     1       1.757   6.326  20.623  0.00  0.00    +0.000 A 
ATOM     13  C   UNL     1       2.027   4.949  20.742  0.00  0.00    +0.000 A 
ATOM     14  C   UNL     1       2.575   4.249  19.678  0.00  0.00    +0.000 A 
ATOM     15  C   UNL     1       2.735   4.898  18.442  0.00  0.00    +0.000 A 
ATOM     16  C   UNL     1       2.516   6.306  18.363  0.00  0.00    +0.000 A 
BRANCH  14  17
ATOM     17  O   UNL     1       2.961   2.952  19.877  0.00  0.00    +0.000 OA
ATOM     18  H   UNL     1       2.768   2.441  19.071  0.00  0.00    +0.000 HD
ENDBRANCH  14  17
BRANCH  15  19
ATOM     19  O   UNL     1       3.116   4.287  17.267  0.00  0.00    +0.000 OA
ATOM     20  C   UNL     1       4.510   4.279  16.934  0.00  0.00    +0.000 C 
ENDBRANCH  15  19
ENDBRANCH  10  11
ENDBRANCH   2   9
BRANCH   1  21
ATOM     21  C   UNL     1      -0.389  11.347  21.029  0.00  0.00    +0.000 C 
BRANCH  21  33
ATOM     22  C   UNL     1      -3.549  10.315  15.837  0.00  0.00    +0.000 A 
ATOM     23  C   UNL     1      -2.267  10.036  16.304  0.00  0.00    +0.000 A 
ATOM     24  C   UNL     1      -1.814  10.540  17.559  0.00  0.00    +0.000 A 
ATOM     25  C   UNL     1      -2.672  11.323  18.377  0.00  0.00    +0.000 A 
ATOM     26  C   UNL     1      -3.924  11.603  17.825  0.00  0.00    +0.000 A 
ATOM     27  C   UNL     1      -4.376  11.140  16.587  0.00  0.00    +0.000 A 
ATOM     28  N   UNL     1      -4.607  12.370  18.715  0.00  0.00    +0.000 N 
ATOM     29  C   UNL     1      -3.896  12.545  19.867  0.00  0.00    +0.000 A 
ATOM     30  C   UNL     1      -4.339  13.196  21.018  0.00  0.00    +0.000 A 
ATOM     31  C   UNL     1      -3.496  13.243  22.102  0.00  0.00    +0.000 A 
ATOM     32  C   UNL     1      -2.241  12.680  22.007  0.00  0.00    +0.000 A 
ATOM     33  C   UNL     1      -1.763  11.991  20.854  0.00  0.00    +0.000 A 
ATOM     34  C   UNL     1      -2.644  11.923  19.718  0.00  0.00    +0.000 A 
ATOM     35  H   UNL     1      -5.550  12.706  18.573  0.00  0.00    +0.000 HD
BRANCH  22  37
ATOM     36  C   UNL     1      -3.517  10.057  13.452  0.00  0.00    +0.000 C 
ATOM     37  O   UNL     1      -4.160   9.865  14.701  0.00  0.00    +0.000 OA
ENDBRANCH  22  37
ENDBRANCH  21  33
ENDBRANCH   1  21
TORSDOF 8
ENDMDL
MODEL 9
REMARK VINA RESULT:      -7.8      2.545      4.294
REMARK  Name = 
REMARK  10 active torsions:
REMARK  status: ('A' for Active; 'I' for Inactive)
REMARK    1  A    between atoms: C_1  and  O_2
REMARK    2  A    between atoms: O_2  and  C_3
REMARK    3  A    between atoms: C_14  and  C_15
REMARK    4  A    between atoms: C_15  and  N_16
REMARK    5  A    between atoms: N_16  and  C_30
REMARK    6  A    between atoms: C_17  and  C_19
REMARK    7  A    between atoms: C_20  and  C_21
REMARK    8  A    between atoms: C_24  and  O_25
REMARK    9  A    between atoms: C_26  and  O_27
REMARK   10  A    between atoms: O_27  and  C_28
REMARK                            x       y       z     vdW  Elec       q    Type
REMARK                         _______ _______ _______ _____ _____    ______ ____
ROOT
ATOM      1  N   UNL     1       1.413  10.647  19.495  0.00  0.00    +0.000 N 
ATOM      2  C   UNL     1       1.988   9.765  18.547  0.00  0.00    +0.000 C 
ATOM      3  O   UNL     1       2.694  10.187  17.627  0.00  0.00    +0.000 OA
ENDROOT
BRANCH   1   4
ATOM      4  C   UNL     1       1.474  12.132  19.327  0.00  0.00    +0.000 C 
ATOM      5  C   UNL     1       2.101  12.952  20.454  0.00  0.00    +0.000 C 
ATOM      6  C   UNL     1       2.161  14.369  19.874  0.00  0.00    +0.000 C 
ATOM      7  C   UNL     1       2.259  14.205  18.355  0.00  0.00    +0.000 C 
ATOM      8  C   UNL     1       2.148  12.700  18.072  0.00  0.00    +0.000 C 
ENDBRANCH   1   4
BRANCH   2   9
ATOM      9  C   UNL     1       1.675   8.239  18.581  0.00  0.00    +0.000 C 
ATOM     10  C   UNL     1       2.653   7.317  18.828  0.00  0.00    +0.000 C 
BRANCH  10  11
ATOM     11  C   UNL     1       2.679   5.805  18.711  0.00  0.00    +0.000 A 
ATOM     12  C   UNL     1       3.369   5.273  17.601  0.00  0.00    +0.000 A 
ATOM     13  C   UNL     1       3.291   3.913  17.245  0.00  0.00    +0.000 A 
ATOM     14  C   UNL     1       2.566   3.025  18.026  0.00  0.00    +0.000 A 
ATOM     15  C   UNL     1       2.021   3.471  19.242  0.00  0.00    +0.000 A 
ATOM     16  C   UNL     1       2.057   4.864  19.550  0.00  0.00    +0.000 A 
BRANCH  14  17
ATOM     17  O   UNL     1       2.389   1.748  17.572  0.00  0.00    +0.000 OA
ATOM     18  H   UNL     1       1.572   1.713  17.045  0.00  0.00    +0.000 HD
ENDBRANCH  14  17
BRANCH  15  19
ATOM     19  O   UNL     1       1.418   2.668  20.185  0.00  0.00    +0.000 OA
ATOM     20  C   UNL     1       1.332   3.155  21.530  0.00  0.00    +0.000 C 
ENDBRANCH  15  19
ENDBRANCH  10  11
ENDBRANCH   2   9
BRANCH   1  21
ATOM     21  C   UNL     1       0.576  10.243  20.652  0.00  0.00    +0.000 C 
BRANCH  21  33
ATOM     22  C   UNL     1      -3.431  10.545  15.975  0.00  0.00    +0.000 A 
ATOM     23  C   UNL     1      -2.172   9.988  16.184  0.00  0.00    +0.000 A 
ATOM     24  C   UNL     1      -1.457  10.215  17.398  0.00  0.00    +0.000 A 
ATOM     25  C   UNL     1      -2.025  11.001  18.436  0.00  0.00    +0.000 A 
ATOM     26  C   UNL     1      -3.266  11.567  18.139  0.00  0.00    +0.000 A 
ATOM     27  C   UNL     1      -3.970  11.377  16.948  0.00  0.00    +0.000 A 
ATOM     28  N   UNL     1      -3.657  12.297  19.217  0.00  0.00    +0.000 N 
ATOM     29  C   UNL     1      -2.769  12.176  20.246  0.00  0.00    +0.000 A 
ATOM     30  C   UNL     1      -2.910  12.713  21.526  0.00  0.00    +0.000 A 
ATOM     31  C   UNL     1      -1.928  12.455  22.450  0.00  0.00    +0.000 A 
ATOM     32  C   UNL     1      -0.830  11.708  22.079  0.00  0.00    +0.000 A 
ATOM     33  C   UNL     1      -0.661  11.129  20.788  0.00  0.00    +0.000 A 
ATOM     34  C   UNL     1      -1.692  11.381  19.816  0.00  0.00    +0.000 A 
ATOM     35  H   UNL     1      -4.529  12.805  19.277  0.00  0.00    +0.000 HD
BRANCH  22  37
ATOM     36  C   UNL     1      -3.738   9.937  13.675  0.00  0.00    +0.000 C 
ATOM     37  O   UNL     1      -4.272  10.379  14.912  0.00  0.00    +0.000 OA
ENDBRANCH  22  37
ENDBRANCH  21  33
ENDBRANCH   1  21
TORSDOF 8
ENDMDL
