MODEL 1
REMARK VINA RESULT:      -7.8      0.000      0.000
REMARK  Name = 
REMARK  6 active torsions:
REMARK  status: ('A' for Active; 'I' for Inactive)
REMARK    1  A    between atoms: C_1  and  C_2
REMARK    2  A    between atoms: C_6  and  C_7
REMARK    3  A    between atoms: C_7  and  C_8
REMARK    4  A    between atoms: C_8  and  C_9
REMARK    5  A    between atoms: N_14  and  C_15
REMARK    6  A    between atoms: C_15  and  C_16
REMARK                            x       y       z     vdW  Elec       q    Type
REMARK                         _______ _______ _______ _____ _____    ______ ____
ROOT
ATOM      1  C   UNL     1       3.320   5.440  17.632  0.00  0.00    +0.000 C 
ATOM      2  O   UNL     1       3.246   6.521  18.212  0.00  0.00    +0.000 OA
ATOM      3  N   UNL     1       4.489   4.999  16.985  0.00  0.00    +0.000 N 
ATOM      4  C   UNL     1       4.384   3.916  15.991  0.00  0.00    +0.000 C 
ATOM      5  C   UNL     1       5.709   3.211  15.697  0.00  0.00    +0.000 C 
ATOM      6  N   UNL     1       6.809   4.124  15.334  0.00  0.00    +0.000 NA
ATOM      7  C   UNL     1       6.932   5.195  16.348  0.00  0.00    +0.000 C 
ATOM      8  C   UNL     1       7.507   4.651  17.668  0.00  0.00    +0.000 C 
ATOM      9  S   UNL     1       7.308   5.996  18.808  0.00  0.00    +0.000 S 
ATOM     10  O   UNL     1       8.522   6.781  18.805  0.00  0.00    +0.000 OA
ATOM     11  O   UNL     1       6.732   5.478  20.036  0.00  0.00    +0.000 OA
ATOM     12  C   UNL     1       6.065   6.875  17.893  0.00  0.00    +0.000 C 
ATOM     13  C   UNL     1       5.617   5.949  16.748  0.00  0.00    +0.000 C 
ENDROOT
BRANCH   1  14
ATOM     14  C   UNL     1       2.131   4.484  17.618  0.00  0.00    +0.000 C 
BRANCH  14  15
ATOM     15  C   UNL     1       2.486   3.070  18.071  0.00  0.00    +0.000 C 
BRANCH  15  21
ATOM     16  C   UNL     1       4.676   2.102  20.279  0.00  0.00    +0.000 C 
ATOM     17  C   UNL     1       3.272   2.530  20.514  0.00  0.00    +0.000 A 
ATOM     18  N   UNL     1       2.797   2.510  21.817  0.00  0.00    +0.000 NA
ATOM     19  C   UNL     1       1.550   2.917  21.845  0.00  0.00    +0.000 A 
ATOM     20  S   UNL     1       0.860   3.328  20.336  0.00  0.00    +0.000 S 
ATOM     21  C   UNL     1       2.351   2.946  19.564  0.00  0.00    +0.000 A 
ENDBRANCH  15  21
ENDBRANCH  14  15
ENDBRANCH   1  14
BRANCH   6  22
ATOM     22  C   UNL     1       6.602   4.630  13.968  0.00  0.00    +0.000 C 
BRANCH  22  23
ATOM     23  C   UNL     1       6.486   3.514  12.975  0.00  0.00    +0.000 C 
ATOM     24  C   UNL     1       5.334   3.502  12.001  0.00  0.00    +0.000 C 
ATOM     25  C   UNL     1       6.726   3.774  11.507  0.00  0.00    +0.000 C 
ENDBRANCH  22  23
ENDBRANCH   6  22
TORSDOF 5
ENDMDL
MODEL 2
REMARK VINA RESULT:      -7.3      0.986      1.318
REMARK  Name = 
REMARK  6 active torsions:
REMARK  status: ('A' for Active; 'I' for Inactive)
REMARK    1  A    between atoms: C_1  and  C_2
REMARK    2  A    between atoms: C_6  and  C_7
REMARK    3  A    between atoms: C_7  and  C_8
REMARK    4  A    between atoms: C_8  and  C_9
REMARK    5  A    between atoms: N_14  and  C_15
REMARK    6  A    between atoms: C_15  and  C_16
REMARK                            x       y       z     vdW  Elec       q    Type
REMARK                         _______ _______ _______ _____ _____    ______ ____
ROOT
ATOM      1  C   UNL     1       3.484   5.139  17.403  0.00  0.00    +0.000 C 
ATOM      2  O   UNL     1       3.264   6.173  18.030  0.00  0.00    +0.000 OA
ATOM      3  N   UNL     1       4.720   4.869  16.787  0.00  0.00    +0.000 N 
ATOM      4  C   UNL     1       4.778   3.834  15.739  0.00  0.00    +0.000 C 
ATOM      5  C   UNL     1       6.187   3.302  15.469  0.00  0.00    +0.000 C 
ATOM      6  N   UNL     1       7.186   4.352  15.197  0.00  0.00    +0.000 NA
ATOM      7  C   UNL     1       7.146   5.376  16.266  0.00  0.00    +0.000 C 
ATOM      8  C   UNL     1       7.730   4.833  17.582  0.00  0.00    +0.000 C 
ATOM      9  S   UNL     1       7.333   6.085  18.775  0.00  0.00    +0.000 S 
ATOM     10  O   UNL     1       8.447   7.003  18.862  0.00  0.00    +0.000 OA
ATOM     11  O   UNL     1       6.776   5.441  19.951  0.00  0.00    +0.000 OA
ATOM     12  C   UNL     1       6.032   6.863  17.851  0.00  0.00    +0.000 C 
ATOM     13  C   UNL     1       5.738   5.952  16.644  0.00  0.00    +0.000 C 
ENDROOT
BRANCH   1  14
ATOM     14  C   UNL     1       2.416   4.056  17.292  0.00  0.00    +0.000 C 
BRANCH  14  15
ATOM     15  C   UNL     1       1.240   4.265  18.242  0.00  0.00    +0.000 C 
BRANCH  15  21
ATOM     16  C   UNL     1       1.627   5.953  21.001  0.00  0.00    +0.000 C 
ATOM     17  C   UNL     1       1.759   4.486  20.803  0.00  0.00    +0.000 A 
ATOM     18  N   UNL     1       2.106   3.712  21.900  0.00  0.00    +0.000 NA
ATOM     19  C   UNL     1       2.176   2.448  21.553  0.00  0.00    +0.000 A 
ATOM     20  S   UNL     1       1.856   2.102  19.910  0.00  0.00    +0.000 S 
ATOM     21  C   UNL     1       1.585   3.778  19.622  0.00  0.00    +0.000 A 
ENDBRANCH  15  21
ENDBRANCH  14  15
ENDBRANCH   1  14
BRANCH   6  22
ATOM     22  C   UNL     1       6.973   4.902  13.849  0.00  0.00    +0.000 C 
BRANCH  22  23
ATOM     23  C   UNL     1       7.048   3.838  12.798  0.00  0.00    +0.000 C 
ATOM     24  C   UNL     1       5.802   3.451  12.040  0.00  0.00    +0.000 C 
ATOM     25  C   UNL     1       6.900   4.198  11.339  0.00  0.00    +0.000 C 
ENDBRANCH  22  23
ENDBRANCH   6  22
TORSDOF 5
ENDMDL
MODEL 3
REMARK VINA RESULT:      -7.2      5.226      7.556
REMARK  Name = 
REMARK  6 active torsions:
REMARK  status: ('A' for Active; 'I' for Inactive)
REMARK    1  A    between atoms: C_1  and  C_2
REMARK    2  A    between atoms: C_6  and  C_7
REMARK    3  A    between atoms: C_7  and  C_8
REMARK    4  A    between atoms: C_8  and  C_9
REMARK    5  A    between atoms: N_14  and  C_15
REMARK    6  A    between atoms: C_15  and  C_16
REMARK                            x       y       z     vdW  Elec       q    Type
REMARK                         _______ _______ _______ _____ _____    ______ ____
ROOT
ATOM      1  C   UNL     1       2.077   6.900  19.896  0.00  0.00    +0.000 C 
ATOM      2  O   UNL     1       1.642   6.178  20.791  0.00  0.00    +0.000 OA
ATOM      3  N   UNL     1       1.539   8.168  19.610  0.00  0.00    +0.000 N 
ATOM      4  C   UNL     1       1.830   8.783  18.302  0.00  0.00    +0.000 C 
ATOM      5  C   UNL     1       1.605  10.296  18.262  0.00  0.00    +0.000 C 
ATOM      6  N   UNL     1       0.273  10.719  18.733  0.00  0.00    +0.000 NA
ATOM      7  C   UNL     1      -0.006  10.124  20.060  0.00  0.00    +0.000 C 
ATOM      8  C   UNL     1       0.850  10.781  21.158  0.00  0.00    +0.000 C 
ATOM      9  S   UNL     1       0.580   9.755  22.581  0.00  0.00    +0.000 S 
ATOM     10  O   UNL     1      -0.514  10.311  23.344  0.00  0.00    +0.000 OA
ATOM     11  O   UNL     1       1.867   9.461  23.186  0.00  0.00    +0.000 OA
ATOM     12  C   UNL     1      -0.008   8.324  21.710  0.00  0.00    +0.000 C 
ATOM     13  C   UNL     1       0.236   8.583  20.212  0.00  0.00    +0.000 C 
ENDROOT
BRANCH   1  14
ATOM     14  C   UNL     1       3.274   6.463  19.059  0.00  0.00    +0.000 C 
BRANCH  14  15
ATOM     15  C   UNL     1       3.995   5.242  19.625  0.00  0.00    +0.000 C 
BRANCH  15  21
ATOM     16  C   UNL     1       2.553   2.821  21.259  0.00  0.00    +0.000 C 
ATOM     17  C   UNL     1       2.759   2.935  19.792  0.00  0.00    +0.000 A 
ATOM     18  N   UNL     1       2.312   1.894  18.992  0.00  0.00    +0.000 NA
ATOM     19  C   UNL     1       2.568   2.155  17.732  0.00  0.00    +0.000 A 
ATOM     20  S   UNL     1       3.369   3.633  17.420  0.00  0.00    +0.000 S 
ATOM     21  C   UNL     1       3.370   3.975  19.107  0.00  0.00    +0.000 A 
ENDBRANCH  15  21
ENDBRANCH  14  15
ENDBRANCH   1  14
BRANCH   6  22
ATOM     22  C   UNL     1      -0.739  10.391  17.717  0.00  0.00    +0.000 C 
BRANCH  22  23
ATOM     23  C   UNL     1      -2.130  10.558  18.247  0.00  0.00    +0.000 C 
ATOM     24  C   UNL     1      -3.154  11.304  17.427  0.00  0.00    +0.000 C 
ATOM     25  C   UNL     1      -3.281   9.819  17.609  0.00  0.00    +0.000 C 
ENDBRANCH  22  23
ENDBRANCH   6  22
TORSDOF 5
ENDMDL
MODEL 4
REMARK VINA RESULT:      -7.2      5.085      7.844
REMARK  Name = 
REMARK  6 active torsions:
REMARK  status: ('A' for Active; 'I' for Inactive)
REMARK    1  A    between atoms: C_1  and  C_2
REMARK    2  A    between atoms: C_6  and  C_7
REMARK    3  A    between atoms: C_7  and  C_8
REMARK    4  A    between atoms: C_8  and  C_9
REMARK    5  A    between atoms: N_14  and  C_15
REMARK    6  A    between atoms: C_15  and  C_16
REMARK                            x       y       z     vdW  Elec       q    Type
REMARK                         _______ _______ _______ _____ _____    ______ ____
ROOT
ATOM      1  C   UNL     1       2.437   6.929  19.602  0.00  0.00    +0.000 C 
ATOM      2  O   UNL     1       2.124   6.175  20.521  0.00  0.00    +0.000 OA
ATOM      3  N   UNL     1       1.796   8.161  19.376  0.00  0.00    +0.000 N 
ATOM      4  C   UNL     1       1.937   8.802  18.056  0.00  0.00    +0.000 C 
ATOM      5  C   UNL     1       1.614  10.297  18.053  0.00  0.00    +0.000 C 
ATOM      6  N   UNL     1       0.301  10.630  18.636  0.00  0.00    +0.000 NA
ATOM      7  C   UNL     1       0.172  10.010  19.975  0.00  0.00    +0.000 C 
ATOM      8  C   UNL     1       1.072  10.714  21.006  0.00  0.00    +0.000 C 
ATOM      9  S   UNL     1       0.988   9.664  22.434  0.00  0.00    +0.000 S 
ATOM     10  O   UNL     1      -0.072  10.143  23.292  0.00  0.00    +0.000 OA
ATOM     11  O   UNL     1       2.337   9.450  22.928  0.00  0.00    +0.000 OA
ATOM     12  C   UNL     1       0.422   8.203  21.598  0.00  0.00    +0.000 C 
ATOM     13  C   UNL     1       0.524   8.487  20.088  0.00  0.00    +0.000 C 
ENDROOT
BRANCH   1  14
ATOM     14  C   UNL     1       3.585   6.576  18.664  0.00  0.00    +0.000 C 
BRANCH  14  15
ATOM     15  C   UNL     1       4.507   5.491  19.216  0.00  0.00    +0.000 C 
BRANCH  15  21
ATOM     16  C   UNL     1       7.752   5.749  19.320  0.00  0.00    +0.000 C 
ATOM     17  C   UNL     1       6.915   5.209  18.217  0.00  0.00    +0.000 A 
ATOM     18  N   UNL     1       7.559   4.768  17.071  0.00  0.00    +0.000 NA
ATOM     19  C   UNL     1       6.678   4.323  16.205  0.00  0.00    +0.000 A 
ATOM     20  S   UNL     1       5.041   4.417  16.686  0.00  0.00    +0.000 S 
ATOM     21  C   UNL     1       5.532   5.098  18.189  0.00  0.00    +0.000 A 
ENDBRANCH  15  21
ENDBRANCH  14  15
ENDBRANCH   1  14
BRANCH   6  22
ATOM     22  C   UNL     1      -0.769  10.243  17.704  0.00  0.00    +0.000 C 
BRANCH  22  23
ATOM     23  C   UNL     1      -2.116  10.289  18.357  0.00  0.00    +0.000 C 
ATOM     24  C   UNL     1      -3.079  11.395  18.001  0.00  0.00    +0.000 C 
ATOM     25  C   UNL     1      -3.360   9.988  17.557  0.00  0.00    +0.000 C 
ENDBRANCH  22  23
ENDBRANCH   6  22
TORSDOF 5
ENDMDL
MODEL 5
REMARK VINA RESULT:      -7.1      4.023      5.893
REMARK  Name = 
REMARK  6 active torsions:
REMARK  status: ('A' for Active; 'I' for Inactive)
REMARK    1  A    between atoms: C_1  and  C_2
REMARK    2  A    between atoms: C_6  and  C_7
REMARK    3  A    between atoms: C_7  and  C_8
REMARK    4  A    between atoms: C_8  and  C_9
REMARK    5  A    between atoms: N_14  and  C_15
REMARK    6  A    between atoms: C_15  and  C_16
REMARK                            x       y       z     vdW  Elec       q    Type
REMARK                         _______ _______ _______ _____ _____    ______ ____
ROOT
ATOM      1  C   UNL     1       2.830   7.301  18.486  0.00  0.00    +0.000 C 
ATOM      2  O   UNL     1       2.322   7.020  19.570  0.00  0.00    +0.000 OA
ATOM      3  N   UNL     1       3.692   6.428  17.799  0.00  0.00    +0.000 N 
ATOM      4  C   UNL     1       4.562   6.975  16.742  0.00  0.00    +0.000 C 
ATOM      5  C   UNL     1       5.098   5.922  15.771  0.00  0.00    +0.000 C 
ATOM      6  N   UNL     1       5.761   4.780  16.426  0.00  0.00    +0.000 NA
ATOM      7  C   UNL     1       4.875   4.212  17.468  0.00  0.00    +0.000 C 
ATOM      8  C   UNL     1       3.685   3.465  16.842  0.00  0.00    +0.000 C 
ATOM      9  S   UNL     1       2.623   3.120  18.221  0.00  0.00    +0.000 S 
ATOM     10  O   UNL     1       2.952   1.810  18.735  0.00  0.00    +0.000 OA
ATOM     11  O   UNL     1       1.264   3.483  17.858  0.00  0.00    +0.000 OA
ATOM     12  C   UNL     1       3.291   4.342  19.322  0.00  0.00    +0.000 C 
ATOM     13  C   UNL     1       4.241   5.221  18.487  0.00  0.00    +0.000 C 
ENDROOT
BRANCH   1  14
ATOM     14  C   UNL     1       2.511   8.625  17.800  0.00  0.00    +0.000 C 
BRANCH  14  15
ATOM     15  C   UNL     1       1.105   9.139  18.097  0.00  0.00    +0.000 C 
BRANCH  15  21
ATOM     16  C   UNL     1       0.234   9.086  21.235  0.00  0.00    +0.000 C 
ATOM     17  C   UNL     1       0.779  10.230  20.459  0.00  0.00    +0.000 A 
ATOM     18  N   UNL     1       0.932  11.444  21.114  0.00  0.00    +0.000 NA
ATOM     19  C   UNL     1       1.424  12.339  20.289  0.00  0.00    +0.000 A 
ATOM     20  S   UNL     1       1.716  11.806  18.691  0.00  0.00    +0.000 S 
ATOM     21  C   UNL     1       1.152  10.237  19.123  0.00  0.00    +0.000 A 
ENDBRANCH  15  21
ENDBRANCH  14  15
ENDBRANCH   1  14
BRANCH   6  22
ATOM     22  C   UNL     1       7.076   5.197  16.938  0.00  0.00    +0.000 C 
BRANCH  22  23
ATOM     23  C   UNL     1       6.966   5.861  18.275  0.00  0.00    +0.000 C 
ATOM     24  C   UNL     1       7.993   5.565  19.340  0.00  0.00    +0.000 C 
ATOM     25  C   UNL     1       7.966   6.916  18.685  0.00  0.00    +0.000 C 
ENDBRANCH  22  23
ENDBRANCH   6  22
TORSDOF 5
ENDMDL
MODEL 6
REMARK VINA RESULT:      -7.1      4.223      5.987
REMARK  Name = 
REMARK  6 active torsions:
REMARK  status: ('A' for Active; 'I' for Inactive)
REMARK    1  A    between atoms: C_1  and  C_2
REMARK    2  A    between atoms: C_6  and  C_7
REMARK    3  A    between atoms: C_7  and  C_8
REMARK    4  A    between atoms: C_8  and  C_9
REMARK    5  A    between atoms: N_14  and  C_15
REMARK    6  A    between atoms: C_15  and  C_16
REMARK                            x       y       z     vdW  Elec       q    Type
REMARK                         _______ _______ _______ _____ _____    ______ ____
ROOT
ATOM      1  C   UNL     1       2.892   7.793  17.944  0.00  0.00    +0.000 C 
ATOM      2  O   UNL     1       3.003   8.365  16.861  0.00  0.00    +0.000 OA
ATOM      3  N   UNL     1       3.537   6.577  18.233  0.00  0.00    +0.000 N 
ATOM      4  C   UNL     1       3.047   5.766  19.362  0.00  0.00    +0.000 C 
ATOM      5  C   UNL     1       4.058   4.738  19.875  0.00  0.00    +0.000 C 
ATOM      6  N   UNL     1       4.608   3.860  18.825  0.00  0.00    +0.000 NA
ATOM      7  C   UNL     1       5.127   4.677  17.704  0.00  0.00    +0.000 C 
ATOM      8  C   UNL     1       6.421   5.410  18.099  0.00  0.00    +0.000 C 
ATOM      9  S   UNL     1       6.709   6.526  16.750  0.00  0.00    +0.000 S 
ATOM     10  O   UNL     1       7.576   5.875  15.795  0.00  0.00    +0.000 OA
ATOM     11  O   UNL     1       7.015   7.837  17.295  0.00  0.00    +0.000 OA
ATOM     12  C   UNL     1       5.054   6.522  16.107  0.00  0.00    +0.000 C 
ATOM     13  C   UNL     1       4.177   5.788  17.138  0.00  0.00    +0.000 C 
ENDROOT
BRANCH   1  14
ATOM     14  C   UNL     1       2.062   8.408  19.065  0.00  0.00    +0.000 C 
BRANCH  14  15
ATOM     15  C   UNL     1       1.082   9.473  18.579  0.00  0.00    +0.000 C 
BRANCH  15  21
ATOM     16  C   UNL     1      -0.142   9.319  21.594  0.00  0.00    +0.000 C 
ATOM     17  C   UNL     1       0.407  10.509  20.892  0.00  0.00    +0.000 A 
ATOM     18  N   UNL     1       0.397  11.721  21.565  0.00  0.00    +0.000 NA
ATOM     19  C   UNL     1       0.917  12.659  20.808  0.00  0.00    +0.000 A 
ATOM     20  S   UNL     1       1.429  12.169  19.253  0.00  0.00    +0.000 S 
ATOM     21  C   UNL     1       0.932  10.559  19.608  0.00  0.00    +0.000 A 
ENDBRANCH  15  21
ENDBRANCH  14  15
ENDBRANCH   1  14
BRANCH   6  22
ATOM     22  C   UNL     1       3.592   2.879  18.415  0.00  0.00    +0.000 C 
BRANCH  22  23
ATOM     23  C   UNL     1       2.334   3.016  19.216  0.00  0.00    +0.000 C 
ATOM     24  C   UNL     1       0.997   2.927  18.523  0.00  0.00    +0.000 C 
ATOM     25  C   UNL     1       1.439   1.821  19.438  0.00  0.00    +0.000 C 
ENDBRANCH  22  23
ENDBRANCH   6  22
TORSDOF 5
ENDMDL
MODEL 7
REMARK VINA RESULT:      -7.0      5.257      7.654
REMARK  Name = 
REMARK  6 active torsions:
REMARK  status: ('A' for Active; 'I' for Inactive)
REMARK    1  A    between atoms: C_1  and  C_2
REMARK    2  A    between atoms: C_6  and  C_7
REMARK    3  A    between atoms: C_7  and  C_8
REMARK    4  A    between atoms: C_8  and  C_9
REMARK    5  A    between atoms: N_14  and  C_15
REMARK    6  A    between atoms: C_15  and  C_16
REMARK                            x       y       z     vdW  Elec       q    Type
REMARK                         _______ _______ _______ _____ _____    ______ ____
ROOT
ATOM      1  C   UNL     1       2.086   7.098  19.753  0.00  0.00    +0.000 C 
ATOM      2  O   UNL     1       1.664   6.320  20.607  0.00  0.00    +0.000 OA
ATOM      3  N   UNL     1       1.526   8.370  19.536  0.00  0.00    +0.000 N 
ATOM      4  C   UNL     1       1.805   9.060  18.264  0.00  0.00    +0.000 C 
ATOM      5  C   UNL     1       1.555  10.569  18.307  0.00  0.00    +0.000 C 
ATOM      6  N   UNL     1       0.216  10.943  18.800  0.00  0.00    +0.000 NA
ATOM      7  C   UNL     1      -0.051  10.272  20.093  0.00  0.00    +0.000 C 
ATOM      8  C   UNL     1       0.794  10.882  21.224  0.00  0.00    +0.000 C 
ATOM      9  S   UNL     1       0.543   9.776  22.589  0.00  0.00    +0.000 S 
ATOM     10  O   UNL     1      -0.560  10.271  23.382  0.00  0.00    +0.000 OA
ATOM     11  O   UNL     1       1.835   9.471  23.178  0.00  0.00    +0.000 OA
ATOM     12  C   UNL     1      -0.022   8.385  21.642  0.00  0.00    +0.000 C 
ATOM     13  C   UNL     1       0.217   8.729  20.160  0.00  0.00    +0.000 C 
ENDROOT
BRANCH   1  14
ATOM     14  C   UNL     1       3.290   6.727  18.894  0.00  0.00    +0.000 C 
BRANCH  14  15
ATOM     15  C   UNL     1       3.015   5.575  17.930  0.00  0.00    +0.000 C 
BRANCH  15  21
ATOM     16  C   UNL     1       1.044   3.064  18.579  0.00  0.00    +0.000 C 
ATOM     17  C   UNL     1       2.496   3.183  18.872  0.00  0.00    +0.000 A 
ATOM     18  N   UNL     1       3.118   2.122  19.515  0.00  0.00    +0.000 NA
ATOM     19  C   UNL     1       4.390   2.389  19.692  0.00  0.00    +0.000 A 
ATOM     20  S   UNL     1       4.923   3.913  19.129  0.00  0.00    +0.000 S 
ATOM     21  C   UNL     1       3.326   4.257  18.584  0.00  0.00    +0.000 A 
ENDBRANCH  15  21
ENDBRANCH  14  15
ENDBRANCH   1  14
BRANCH   6  22
ATOM     22  C   UNL     1      -0.791  10.653  17.768  0.00  0.00    +0.000 C 
BRANCH  22  23
ATOM     23  C   UNL     1      -2.177  10.636  18.336  0.00  0.00    +0.000 C 
ATOM     24  C   UNL     1      -3.306  11.273  17.563  0.00  0.00    +0.000 C 
ATOM     25  C   UNL     1      -3.248   9.779  17.704  0.00  0.00    +0.000 C 
ENDBRANCH  22  23
ENDBRANCH   6  22
TORSDOF 5
ENDMDL
MODEL 8
REMARK VINA RESULT:      -7.0      5.355      7.951
REMARK  Name = 
REMARK  6 active torsions:
REMARK  status: ('A' for Active; 'I' for Inactive)
REMARK    1  A    between atoms: C_1  and  C_2
REMARK    2  A    between atoms: C_6  and  C_7
REMARK    3  A    between atoms: C_7  and  C_8
REMARK    4  A    between atoms: C_8  and  C_9
REMARK    5  A    between atoms: N_14  and  C_15
REMARK    6  A    between atoms: C_15  and  C_16
REMARK                            x       y       z     vdW  Elec       q    Type
REMARK                         _______ _______ _______ _____ _____    ______ ____
ROOT
ATOM      1  C   UNL     1       2.374   7.521  19.141  0.00  0.00    +0.000 C 
ATOM      2  O   UNL     1       2.396   6.610  19.967  0.00  0.00    +0.000 OA
ATOM      3  N   UNL     1       1.489   8.610  19.232  0.00  0.00    +0.000 N 
ATOM      4  C   UNL     1       1.242   9.424  18.028  0.00  0.00    +0.000 C 
ATOM      5  C   UNL     1       0.658  10.808  18.322  0.00  0.00    +0.000 C 
ATOM      6  N   UNL     1      -0.547  10.785  19.171  0.00  0.00    +0.000 NA
ATOM      7  C   UNL     1      -0.289   9.991  20.394  0.00  0.00    +0.000 C 
ATOM      8  C   UNL     1       0.659  10.734  21.353  0.00  0.00    +0.000 C 
ATOM      9  S   UNL     1       1.057   9.521  22.585  0.00  0.00    +0.000 S 
ATOM     10  O   UNL     1       0.123   9.658  23.680  0.00  0.00    +0.000 OA
ATOM     11  O   UNL     1       2.494   9.534  22.796  0.00  0.00    +0.000 OA
ATOM     12  C   UNL     1       0.608   8.089  21.636  0.00  0.00    +0.000 C 
ATOM     13  C   UNL     1       0.349   8.573  20.197  0.00  0.00    +0.000 C 
ENDROOT
BRANCH   1  14
ATOM     14  C   UNL     1       3.354   7.534  17.974  0.00  0.00    +0.000 C 
BRANCH  14  15
ATOM     15  C   UNL     1       3.695   6.140  17.453  0.00  0.00    +0.000 C 
BRANCH  15  21
ATOM     16  C   UNL     1       4.708   3.669  19.317  0.00  0.00    +0.000 C 
ATOM     17  C   UNL     1       5.536   4.710  18.654  0.00  0.00    +0.000 A 
ATOM     18  N   UNL     1       6.909   4.665  18.844  0.00  0.00    +0.000 NA
ATOM     19  C   UNL     1       7.484   5.647  18.191  0.00  0.00    +0.000 A 
ATOM     20  S   UNL     1       6.438   6.690  17.331  0.00  0.00    +0.000 S 
ATOM     21  C   UNL     1       5.091   5.754  17.856  0.00  0.00    +0.000 A 
ENDBRANCH  15  21
ENDBRANCH  14  15
ENDBRANCH   1  14
BRANCH   6  22
ATOM     22  C   UNL     1      -1.696  10.301  18.389  0.00  0.00    +0.000 C 
BRANCH  22  23
ATOM     23  C   UNL     1      -2.183  11.335  17.421  0.00  0.00    +0.000 C 
ATOM     24  C   UNL     1      -2.646  10.911  16.050  0.00  0.00    +0.000 C 
ATOM     25  C   UNL     1      -3.646  11.406  17.055  0.00  0.00    +0.000 C 
ENDBRANCH  22  23
ENDBRANCH   6  22
TORSDOF 5
ENDMDL
MODEL 9
REMARK VINA RESULT:      -7.0      4.180      6.242
REMARK  Name = 
REMARK  6 active torsions:
REMARK  status: ('A' for Active; 'I' for Inactive)
REMARK    1  A    between atoms: C_1  and  C_2
REMARK    2  A    between atoms: C_6  and  C_7
REMARK    3  A    between atoms: C_7  and  C_8
REMARK    4  A    between atoms: C_8  and  C_9
REMARK    5  A    between atoms: N_14  and  C_15
REMARK    6  A    between atoms: C_15  and  C_16
REMARK                            x       y       z     vdW  Elec       q    Type
REMARK                         _______ _______ _______ _____ _____    ______ ____
ROOT
ATOM      1  C   UNL     1       2.896   7.792  17.696  0.00  0.00    +0.000 C 
ATOM      2  O   UNL     1       3.164   8.230  16.579  0.00  0.00    +0.000 OA
ATOM      3  N   UNL     1       3.420   6.581  18.185  0.00  0.00    +0.000 N 
ATOM      4  C   UNL     1       2.755   5.932  19.330  0.00  0.00    +0.000 C 
ATOM      5  C   UNL     1       3.630   4.913  20.062  0.00  0.00    +0.000 C 
ATOM      6  N   UNL     1       4.230   3.893  19.183  0.00  0.00    +0.000 NA
ATOM      7  C   UNL     1       4.923   4.547  18.049  0.00  0.00    +0.000 C 
ATOM      8  C   UNL     1       6.214   5.245  18.512  0.00  0.00    +0.000 C 
ATOM      9  S   UNL     1       6.724   6.183  17.094  0.00  0.00    +0.000 S 
ATOM     10  O   UNL     1       7.643   5.379  16.321  0.00  0.00    +0.000 OA
ATOM     11  O   UNL     1       7.059   7.528  17.529  0.00  0.00    +0.000 OA
ATOM     12  C   UNL     1       5.153   6.200  16.267  0.00  0.00    +0.000 C 
ATOM     13  C   UNL     1       4.120   5.639  17.262  0.00  0.00    +0.000 C 
ENDROOT
BRANCH   1  14
ATOM     14  C   UNL     1       1.993   8.576  18.641  0.00  0.00    +0.000 C 
BRANCH  14  15
ATOM     15  C   UNL     1       1.657   9.976  18.135  0.00  0.00    +0.000 C 
BRANCH  15  21
ATOM     16  C   UNL     1      -1.527  10.030  17.452  0.00  0.00    +0.000 C 
ATOM     17  C   UNL     1      -0.840  10.596  18.641  0.00  0.00    +0.000 A 
ATOM     18  N   UNL     1      -1.616  11.250  19.587  0.00  0.00    +0.000 NA
ATOM     19  C   UNL     1      -0.857  11.684  20.566  0.00  0.00    +0.000 A 
ATOM     20  S   UNL     1       0.816  11.362  20.418  0.00  0.00    +0.000 S 
ATOM     21  C   UNL     1       0.518  10.561  18.924  0.00  0.00    +0.000 A 
ENDBRANCH  15  21
ENDBRANCH  14  15
ENDBRANCH   1  14
BRANCH   6  22
ATOM     22  C   UNL     1       3.198   2.931  18.764  0.00  0.00    +0.000 C 
BRANCH  22  23
ATOM     23  C   UNL     1       1.849   3.294  19.304  0.00  0.00    +0.000 C 
ATOM     24  C   UNL     1       0.645   2.477  18.908  0.00  0.00    +0.000 C 
ATOM     25  C   UNL     1       1.168   2.401  20.313  0.00  0.00    +0.000 C 
ENDBRANCH  22  23
ENDBRANCH   6  22
TORSDOF 5
ENDMDL
