MODEL 1
REMARK VINA RESULT:      -7.0      0.000      0.000
REMARK  Name = 
REMARK  16 active torsions:
REMARK  status: ('A' for Active; 'I' for Inactive)
REMARK    1  A    between atoms: C_1  and  C_2
REMARK    2  A    between atoms: C_2  and  C_3
REMARK    3  A    between atoms: C_3  and  C_4
REMARK    4  A    between atoms: C_3  and  O_6
REMARK    5  A    between atoms: C_4  and  C_5
REMARK    6  A    between atoms: O_6  and  C_7
REMARK    7  A    between atoms: C_9  and  C_10
REMARK    8  A    between atoms: C_10  and  O_12
REMARK    9  A    between atoms: C_14  and  N_15
REMARK   10  A    between atoms: C_16  and  C_18
REMARK   11  A    between atoms: C_18  and  O_19
REMARK   12  A    between atoms: C_18  and  C_20
REMARK   13  A    between atoms: C_20  and  C_21
REMARK   14  A    between atoms: C_21  and  C_22
REMARK   15  A    between atoms: C_28  and  N_29
REMARK   16  A    between atoms: C_30  and  C_31
REMARK                            x       y       z     vdW  Elec       q    Type
REMARK                         _______ _______ _______ _____ _____    ______ ____
ROOT
ATOM      1  C   UNL     1      -1.344  11.593  19.162  0.00  0.00    +0.000 C 
ATOM      2  C   UNL     1      -0.312  12.428  18.433  0.00  0.00    +0.000 C 
ATOM      3  C   UNL     1       0.902  12.723  18.936  0.00  0.00    +0.000 C 
ATOM      4  C   UNL     1       1.363  12.185  20.272  0.00  0.00    +0.000 C 
ATOM      5  C   UNL     1       0.534  11.001  20.811  0.00  0.00    +0.000 C 
ATOM      6  C   UNL     1      -0.984  11.337  20.667  0.00  0.00    +0.000 C 
ENDROOT
BRANCH   6   7
ATOM      7  N   UNL     1      -1.389  12.499  21.506  0.00  0.00    +0.000 N 
ATOM      8  C   UNL     1      -1.840  12.350  22.810  0.00  0.00    +0.000 C 
ATOM      9  C   UNL     1      -2.274  13.624  23.480  0.00  0.00    +0.000 C 
ATOM     10  O   UNL     1      -1.890  11.275  23.375  0.00  0.00    +0.000 OA
ATOM     11  H   UNL     1      -1.500  13.404  21.072  0.00  0.00    +0.000 HD
ENDBRANCH   6   7
BRANCH   5  12
ATOM     12  N   UNL     1       0.941   9.730  20.177  0.00  0.00    +0.000 N 
ATOM     13  C   UNL     1       1.286   8.603  20.904  0.00  0.00    +0.000 C 
ATOM     14  O   UNL     1       1.236   8.561  22.130  0.00  0.00    +0.000 OA
ATOM     15  H   UNL     1       1.134   9.728  19.183  0.00  0.00    +0.000 HD
BRANCH  13  16
ATOM     16  C   UNL     1       1.612   7.347  20.051  0.00  0.00    +0.000 C 
BRANCH  16  17
ATOM     17  O   UNL     1       2.297   6.391  20.856  0.00  0.00    +0.000 OA
ATOM     18  H   UNL     1       1.873   5.529  20.688  0.00  0.00    +0.000 HD
ENDBRANCH  16  17
BRANCH  16  19
ATOM     19  C   UNL     1       2.467   7.659  18.817  0.00  0.00    +0.000 C 
BRANCH  19  20
ATOM     20  C   UNL     1       2.871   6.379  18.066  0.00  0.00    +0.000 C 
BRANCH  20  21
ATOM     21  C   UNL     1       4.371   6.185  18.041  0.00  0.00    +0.000 A 
ATOM     22  C   UNL     1       5.146   6.709  16.996  0.00  0.00    +0.000 A 
ATOM     23  C   UNL     1       6.530   6.514  16.978  0.00  0.00    +0.000 A 
ATOM     24  C   UNL     1       7.148   5.792  17.997  0.00  0.00    +0.000 A 
ATOM     25  C   UNL     1       6.384   5.263  19.036  0.00  0.00    +0.000 A 
ATOM     26  C   UNL     1       5.003   5.459  19.058  0.00  0.00    +0.000 A 
ENDBRANCH  20  21
ENDBRANCH  19  20
ENDBRANCH  16  19
ENDBRANCH  13  16
ENDBRANCH   5  12
BRANCH   3  27
ATOM     27  C   UNL     1       1.881  13.651  18.298  0.00  0.00    +0.000 C 
ATOM     28  O   UNL     1       1.838  14.859  18.482  0.00  0.00    +0.000 OA
BRANCH  27  29
ATOM     29  O   UNL     1       2.814  13.082  17.521  0.00  0.00    +0.000 OA
ATOM     30  H   UNL     1       2.656  12.155  17.268  0.00  0.00    +0.000 HD
ENDBRANCH  27  29
ENDBRANCH   3  27
BRANCH   1  31
ATOM     31  O   UNL     1      -1.521  10.422  18.354  0.00  0.00    +0.000 OA
BRANCH  31  32
ATOM     32  C   UNL     1      -2.808  10.242  17.740  0.00  0.00    +0.000 C 
BRANCH  32  34
ATOM     33  C   UNL     1      -5.149  11.092  18.376  0.00  0.00    +0.000 C 
ATOM     34  C   UNL     1      -3.734  11.456  17.950  0.00  0.00    +0.000 C 
ENDBRANCH  32  34
BRANCH  32  35
ATOM     35  C   UNL     1      -2.583   9.909  16.255  0.00  0.00    +0.000 C 
ATOM     36  C   UNL     1      -3.146  10.928  15.277  0.00  0.00    +0.000 C 
ENDBRANCH  32  35
ENDBRANCH  31  32
ENDBRANCH   1  31
TORSDOF 13
ENDMDL
MODEL 2
REMARK VINA RESULT:      -7.0      2.173      3.323
REMARK  Name = 
REMARK  16 active torsions:
REMARK  status: ('A' for Active; 'I' for Inactive)
REMARK    1  A    between atoms: C_1  and  C_2
REMARK    2  A    between atoms: C_2  and  C_3
REMARK    3  A    between atoms: C_3  and  C_4
REMARK    4  A    between atoms: C_3  and  O_6
REMARK    5  A    between atoms: C_4  and  C_5
REMARK    6  A    between atoms: O_6  and  C_7
REMARK    7  A    between atoms: C_9  and  C_10
REMARK    8  A    between atoms: C_10  and  O_12
REMARK    9  A    between atoms: C_14  and  N_15
REMARK   10  A    between atoms: C_16  and  C_18
REMARK   11  A    between atoms: C_18  and  O_19
REMARK   12  A    between atoms: C_18  and  C_20
REMARK   13  A    between atoms: C_20  and  C_21
REMARK   14  A    between atoms: C_21  and  C_22
REMARK   15  A    between atoms: C_28  and  N_29
REMARK   16  A    between atoms: C_30  and  C_31
REMARK                            x       y       z     vdW  Elec       q    Type
REMARK                         _______ _______ _______ _____ _____    ______ ____
ROOT
ATOM      1  C   UNL     1      -1.689  12.657  18.952  0.00  0.00    +0.000 C 
ATOM      2  C   UNL     1      -0.336  12.759  18.280  0.00  0.00    +0.000 C 
ATOM      3  C   UNL     1       0.763  13.254  18.883  0.00  0.00    +0.000 C 
ATOM      4  C   UNL     1       0.745  13.705  20.326  0.00  0.00    +0.000 C 
ATOM      5  C   UNL     1      -0.465  13.206  21.142  0.00  0.00    +0.000 C 
ATOM      6  C   UNL     1      -1.768  13.436  20.311  0.00  0.00    +0.000 C 
ENDROOT
BRANCH   6   7
ATOM      7  N   UNL     1      -2.038  14.881  20.071  0.00  0.00    +0.000 N 
ATOM      8  C   UNL     1      -2.803  15.646  20.940  0.00  0.00    +0.000 C 
ATOM      9  C   UNL     1      -3.033  17.065  20.502  0.00  0.00    +0.000 C 
ATOM     10  O   UNL     1      -3.263  15.209  21.978  0.00  0.00    +0.000 OA
ATOM     11  H   UNL     1      -1.805  15.283  19.175  0.00  0.00    +0.000 HD
ENDBRANCH   6   7
BRANCH   5  12
ATOM     12  N   UNL     1      -0.269  11.813  21.596  0.00  0.00    +0.000 N 
ATOM     13  C   UNL     1      -0.897  11.291  22.714  0.00  0.00    +0.000 C 
ATOM     14  O   UNL     1      -1.701  11.930  23.385  0.00  0.00    +0.000 OA
ATOM     15  H   UNL     1       0.475  11.271  21.176  0.00  0.00    +0.000 HD
BRANCH  13  16
ATOM     16  C   UNL     1      -0.616   9.786  22.979  0.00  0.00    +0.000 C 
BRANCH  16  17
ATOM     17  O   UNL     1       0.557   9.657  23.779  0.00  0.00    +0.000 OA
ATOM     18  H   UNL     1       1.213  10.282  23.417  0.00  0.00    +0.000 HD
ENDBRANCH  16  17
BRANCH  16  19
ATOM     19  C   UNL     1      -0.432   8.969  21.695  0.00  0.00    +0.000 C 
BRANCH  19  20
ATOM     20  C   UNL     1       0.976   8.357  21.606  0.00  0.00    +0.000 C 
BRANCH  20  21
ATOM     21  C   UNL     1       1.497   8.334  20.186  0.00  0.00    +0.000 A 
ATOM     22  C   UNL     1       1.194   9.370  19.292  0.00  0.00    +0.000 A 
ATOM     23  C   UNL     1       1.671   9.333  17.980  0.00  0.00    +0.000 A 
ATOM     24  C   UNL     1       2.449   8.259  17.549  0.00  0.00    +0.000 A 
ATOM     25  C   UNL     1       2.750   7.221  18.430  0.00  0.00    +0.000 A 
ATOM     26  C   UNL     1       2.277   7.259  19.742  0.00  0.00    +0.000 A 
ENDBRANCH  20  21
ENDBRANCH  19  20
ENDBRANCH  16  19
ENDBRANCH  13  16
ENDBRANCH   5  12
BRANCH   3  27
ATOM     27  C   UNL     1       2.070  13.488  18.202  0.00  0.00    +0.000 C 
ATOM     28  O   UNL     1       2.712  14.514  18.375  0.00  0.00    +0.000 OA
BRANCH  27  29
ATOM     29  O   UNL     1       2.502  12.504  17.400  0.00  0.00    +0.000 OA
ATOM     30  H   UNL     1       2.935  11.750  17.838  0.00  0.00    +0.000 HD
ENDBRANCH  27  29
ENDBRANCH   3  27
BRANCH   1  31
ATOM     31  O   UNL     1      -1.974  11.254  19.019  0.00  0.00    +0.000 OA
BRANCH  31  32
ATOM     32  C   UNL     1      -3.309  10.843  18.681  0.00  0.00    +0.000 C 
BRANCH  32  34
ATOM     33  C   UNL     1      -5.548  12.030  19.108  0.00  0.00    +0.000 C 
ATOM     34  C   UNL     1      -4.227  12.037  18.354  0.00  0.00    +0.000 C 
ENDBRANCH  32  34
BRANCH  32  35
ATOM     35  C   UNL     1      -3.215   9.825  17.531  0.00  0.00    +0.000 C 
ATOM     36  C   UNL     1      -1.860   9.755  16.847  0.00  0.00    +0.000 C 
ENDBRANCH  32  35
ENDBRANCH  31  32
ENDBRANCH   1  31
TORSDOF 13
ENDMDL
MODEL 3
REMARK VINA RESULT:      -6.9      1.903      2.664
REMARK  Name = 
REMARK  16 active torsions:
REMARK  status: ('A' for Active; 'I' for Inactive)
REMARK    1  A    between atoms: C_1  and  C_2
REMARK    2  A    between atoms: C_2  and  C_3
REMARK    3  A    between atoms: C_3  and  C_4
REMARK    4  A    between atoms: C_3  and  O_6
REMARK    5  A    between atoms: C_4  and  C_5
REMARK    6  A    between atoms: O_6  and  C_7
REMARK    7  A    between atoms: C_9  and  C_10
REMARK    8  A    between atoms: C_10  and  O_12
REMARK    9  A    between atoms: C_14  and  N_15
REMARK   10  A    between atoms: C_16  and  C_18
REMARK   11  A    between atoms: C_18  and  O_19
REMARK   12  A    between atoms: C_18  and  C_20
REMARK   13  A    between atoms: C_20  and  C_21
REMARK   14  A    between atoms: C_21  and  C_22
REMARK   15  A    between atoms: C_28  and  N_29
REMARK   16  A    between atoms: C_30  and  C_31
REMARK                            x       y       z     vdW  Elec       q    Type
REMARK                         _______ _______ _______ _____ _____    ______ ____
ROOT
ATOM      1  C   UNL     1      -1.534  11.883  18.873  0.00  0.00    +0.000 C 
ATOM      2  C   UNL     1      -0.828  13.152  18.445  0.00  0.00    +0.000 C 
ATOM      3  C   UNL     1       0.277  13.633  19.048  0.00  0.00    +0.000 C 
ATOM      4  C   UNL     1       0.946  12.898  20.188  0.00  0.00    +0.000 C 
ATOM      5  C   UNL     1       0.524  11.423  20.340  0.00  0.00    +0.000 C 
ATOM      6  C   UNL     1      -1.033  11.329  20.253  0.00  0.00    +0.000 C 
ENDROOT
BRANCH   6   7
ATOM      7  N   UNL     1      -1.707  12.037  21.377  0.00  0.00    +0.000 N 
ATOM      8  C   UNL     1      -1.723  11.530  22.668  0.00  0.00    +0.000 C 
ATOM      9  C   UNL     1      -2.511  12.342  23.658  0.00  0.00    +0.000 C 
ATOM     10  O   UNL     1      -1.150  10.505  22.985  0.00  0.00    +0.000 OA
ATOM     11  H   UNL     1      -2.311  12.820  21.172  0.00  0.00    +0.000 HD
ENDBRANCH   6   7
BRANCH   5  12
ATOM     12  N   UNL     1       1.242  10.557  19.382  0.00  0.00    +0.000 N 
ATOM     13  C   UNL     1       1.432   9.201  19.588  0.00  0.00    +0.000 C 
ATOM     14  O   UNL     1       0.977   8.606  20.560  0.00  0.00    +0.000 OA
ATOM     15  H   UNL     1       1.757  10.997  18.629  0.00  0.00    +0.000 HD
BRANCH  13  16
ATOM     16  C   UNL     1       2.146   8.456  18.428  0.00  0.00    +0.000 C 
BRANCH  16  17
ATOM     17  O   UNL     1       1.201   8.156  17.403  0.00  0.00    +0.000 OA
ATOM     18  H   UNL     1       1.714   7.977  16.593  0.00  0.00    +0.000 HD
ENDBRANCH  16  17
BRANCH  16  19
ATOM     19  C   UNL     1       2.825   7.155  18.870  0.00  0.00    +0.000 C 
BRANCH  19  20
ATOM     20  C   UNL     1       2.359   5.954  18.030  0.00  0.00    +0.000 C 
BRANCH  20  21
ATOM     21  C   UNL     1       1.953   4.780  18.893  0.00  0.00    +0.000 A 
ATOM     22  C   UNL     1       1.422   3.616  18.319  0.00  0.00    +0.000 A 
ATOM     23  C   UNL     1       1.040   2.541  19.127  0.00  0.00    +0.000 A 
ATOM     24  C   UNL     1       1.181   2.623  20.511  0.00  0.00    +0.000 A 
ATOM     25  C   UNL     1       1.702   3.779  21.090  0.00  0.00    +0.000 A 
ATOM     26  C   UNL     1       2.087   4.852  20.285  0.00  0.00    +0.000 A 
ENDBRANCH  20  21
ENDBRANCH  19  20
ENDBRANCH  16  19
ENDBRANCH  13  16
ENDBRANCH   5  12
BRANCH   3  27
ATOM     27  C   UNL     1       0.911  14.946  18.732  0.00  0.00    +0.000 C 
ATOM     28  O   UNL     1       0.263  15.982  18.693  0.00  0.00    +0.000 OA
BRANCH  27  29
ATOM     29  O   UNL     1       2.233  14.923  18.502  0.00  0.00    +0.000 OA
ATOM     30  H   UNL     1       2.804  14.847  19.287  0.00  0.00    +0.000 HD
ENDBRANCH  27  29
ENDBRANCH   3  27
BRANCH   1  31
ATOM     31  O   UNL     1      -1.413  10.988  17.760  0.00  0.00    +0.000 OA
BRANCH  31  32
ATOM     32  C   UNL     1      -2.634  10.499  17.181  0.00  0.00    +0.000 C 
BRANCH  32  34
ATOM     33  C   UNL     1      -4.902  11.701  17.286  0.00  0.00    +0.000 C 
ATOM     34  C   UNL     1      -3.871  10.861  18.025  0.00  0.00    +0.000 C 
ENDBRANCH  32  34
BRANCH  32  35
ATOM     35  C   UNL     1      -2.717  11.023  15.737  0.00  0.00    +0.000 C 
ATOM     36  C   UNL     1      -2.918   9.952  14.677  0.00  0.00    +0.000 C 
ENDBRANCH  32  35
ENDBRANCH  31  32
ENDBRANCH   1  31
TORSDOF 13
ENDMDL
MODEL 4
REMARK VINA RESULT:      -6.9      1.202      1.828
REMARK  Name = 
REMARK  16 active torsions:
REMARK  status: ('A' for Active; 'I' for Inactive)
REMARK    1  A    between atoms: C_1  and  C_2
REMARK    2  A    between atoms: C_2  and  C_3
REMARK    3  A    between atoms: C_3  and  C_4
REMARK    4  A    between atoms: C_3  and  O_6
REMARK    5  A    between atoms: C_4  and  C_5
REMARK    6  A    between atoms: O_6  and  C_7
REMARK    7  A    between atoms: C_9  and  C_10
REMARK    8  A    between atoms: C_10  and  O_12
REMARK    9  A    between atoms: C_14  and  N_15
REMARK   10  A    between atoms: C_16  and  C_18
REMARK   11  A    between atoms: C_18  and  O_19
REMARK   12  A    between atoms: C_18  and  C_20
REMARK   13  A    between atoms: C_20  and  C_21
REMARK   14  A    between atoms: C_21  and  C_22
REMARK   15  A    between atoms: C_28  and  N_29
REMARK   16  A    between atoms: C_30  and  C_31
REMARK                            x       y       z     vdW  Elec       q    Type
REMARK                         _______ _______ _______ _____ _____    ______ ____
ROOT
ATOM      1  C   UNL     1      -1.402  11.489  19.085  0.00  0.00    +0.000 C 
ATOM      2  C   UNL     1      -0.258  12.265  18.466  0.00  0.00    +0.000 C 
ATOM      3  C   UNL     1       0.911  12.500  19.093  0.00  0.00    +0.000 C 
ATOM      4  C   UNL     1       1.202  11.946  20.470  0.00  0.00    +0.000 C 
ATOM      5  C   UNL     1       0.262  10.809  20.919  0.00  0.00    +0.000 C 
ATOM      6  C   UNL     1      -1.214  11.223  20.619  0.00  0.00    +0.000 C 
ENDROOT
BRANCH   6   7
ATOM      7  N   UNL     1      -1.643  12.409  21.412  0.00  0.00    +0.000 N 
ATOM      8  C   UNL     1      -2.046  12.309  22.735  0.00  0.00    +0.000 C 
ATOM      9  C   UNL     1      -2.513  13.597  23.355  0.00  0.00    +0.000 C 
ATOM     10  O   UNL     1      -2.032  11.263  23.355  0.00  0.00    +0.000 OA
ATOM     11  H   UNL     1      -1.806  13.285  20.936  0.00  0.00    +0.000 HD
ENDBRANCH   6   7
BRANCH   5  12
ATOM     12  N   UNL     1       0.665   9.515  20.331  0.00  0.00    +0.000 N 
ATOM     13  C   UNL     1       1.363   8.551  21.040  0.00  0.00    +0.000 C 
ATOM     14  O   UNL     1       1.658   8.680  22.224  0.00  0.00    +0.000 OA
ATOM     15  H   UNL     1       0.575   9.393  19.330  0.00  0.00    +0.000 HD
BRANCH  13  16
ATOM     16  C   UNL     1       1.626   7.232  20.265  0.00  0.00    +0.000 C 
BRANCH  16  17
ATOM     17  O   UNL     1       2.057   6.224  21.177  0.00  0.00    +0.000 OA
ATOM     18  H   UNL     1       1.373   6.162  21.869  0.00  0.00    +0.000 HD
ENDBRANCH  16  17
BRANCH  16  19
ATOM     19  C   UNL     1       2.676   7.378  19.158  0.00  0.00    +0.000 C 
BRANCH  19  20
ATOM     20  C   UNL     1       2.244   6.667  17.864  0.00  0.00    +0.000 C 
BRANCH  20  21
ATOM     21  C   UNL     1       2.590   5.195  17.882  0.00  0.00    +0.000 A 
ATOM     22  C   UNL     1       3.923   4.769  17.810  0.00  0.00    +0.000 A 
ATOM     23  C   UNL     1       4.231   3.406  17.817  0.00  0.00    +0.000 A 
ATOM     24  C   UNL     1       3.210   2.460  17.891  0.00  0.00    +0.000 A 
ATOM     25  C   UNL     1       1.881   2.874  17.957  0.00  0.00    +0.000 A 
ATOM     26  C   UNL     1       1.572   4.235  17.954  0.00  0.00    +0.000 A 
ENDBRANCH  20  21
ENDBRANCH  19  20
ENDBRANCH  16  19
ENDBRANCH  13  16
ENDBRANCH   5  12
BRANCH   3  27
ATOM     27  C   UNL     1       1.998  13.372  18.560  0.00  0.00    +0.000 C 
ATOM     28  O   UNL     1       2.973  12.908  17.986  0.00  0.00    +0.000 OA
BRANCH  27  29
ATOM     29  O   UNL     1       1.838  14.692  18.739  0.00  0.00    +0.000 OA
ATOM     30  H   UNL     1       2.605  15.173  19.097  0.00  0.00    +0.000 HD
ENDBRANCH  27  29
ENDBRANCH   3  27
BRANCH   1  31
ATOM     31  O   UNL     1      -1.556  10.324  18.263  0.00  0.00    +0.000 OA
BRANCH  31  32
ATOM     32  C   UNL     1      -2.808  10.174  17.573  0.00  0.00    +0.000 C 
BRANCH  32  34
ATOM     33  C   UNL     1      -5.089  11.168  18.211  0.00  0.00    +0.000 C 
ATOM     34  C   UNL     1      -3.690  11.432  17.676  0.00  0.00    +0.000 C 
ENDBRANCH  32  34
BRANCH  32  35
ATOM     35  C   UNL     1      -2.503   9.771  16.120  0.00  0.00    +0.000 C 
ATOM     36  C   UNL     1      -3.208  10.605  15.063  0.00  0.00    +0.000 C 
ENDBRANCH  32  35
ENDBRANCH  31  32
ENDBRANCH   1  31
TORSDOF 13
ENDMDL
MODEL 5
REMARK VINA RESULT:      -6.8      0.858      1.271
REMARK  Name = 
REMARK  16 active torsions:
REMARK  status: ('A' for Active; 'I' for Inactive)
REMARK    1  A    between atoms: C_1  and  C_2
REMARK    2  A    between atoms: C_2  and  C_3
REMARK    3  A    between atoms: C_3  and  C_4
REMARK    4  A    between atoms: C_3  and  O_6
REMARK    5  A    between atoms: C_4  and  C_5
REMARK    6  A    between atoms: O_6  and  C_7
REMARK    7  A    between atoms: C_9  and  C_10
REMARK    8  A    between atoms: C_10  and  O_12
REMARK    9  A    between atoms: C_14  and  N_15
REMARK   10  A    between atoms: C_16  and  C_18
REMARK   11  A    between atoms: C_18  and  O_19
REMARK   12  A    between atoms: C_18  and  C_20
REMARK   13  A    between atoms: C_20  and  C_21
REMARK   14  A    between atoms: C_21  and  C_22
REMARK   15  A    between atoms: C_28  and  N_29
REMARK   16  A    between atoms: C_30  and  C_31
REMARK                            x       y       z     vdW  Elec       q    Type
REMARK                         _______ _______ _______ _____ _____    ______ ____
ROOT
ATOM      1  C   UNL     1      -1.473  11.435  19.092  0.00  0.00    +0.000 C 
ATOM      2  C   UNL     1      -0.384  12.206  18.376  0.00  0.00    +0.000 C 
ATOM      3  C   UNL     1       0.834  12.442  18.900  0.00  0.00    +0.000 C 
ATOM      4  C   UNL     1       1.240  11.894  20.250  0.00  0.00    +0.000 C 
ATOM      5  C   UNL     1       0.339  10.761  20.783  0.00  0.00    +0.000 C 
ATOM      6  C   UNL     1      -1.157  11.177  20.607  0.00  0.00    +0.000 C 
ENDROOT
BRANCH   6   7
ATOM      7  N   UNL     1      -1.515  12.367  21.426  0.00  0.00    +0.000 N 
ATOM      8  C   UNL     1      -1.883  12.265  22.760  0.00  0.00    +0.000 C 
ATOM      9  C   UNL     1      -2.281  13.562  23.409  0.00  0.00    +0.000 C 
ATOM     10  O   UNL     1      -1.893  11.211  23.366  0.00  0.00    +0.000 OA
ATOM     11  H   UNL     1      -1.657  13.256  20.967  0.00  0.00    +0.000 HD
ENDBRANCH   6   7
BRANCH   5  12
ATOM     12  N   UNL     1       0.689   9.463  20.170  0.00  0.00    +0.000 N 
ATOM     13  C   UNL     1       1.326   8.450  20.866  0.00  0.00    +0.000 C 
ATOM     14  O   UNL     1       1.607   8.535  22.057  0.00  0.00    +0.000 OA
ATOM     15  H   UNL     1       0.611   9.370  19.165  0.00  0.00    +0.000 HD
BRANCH  13  16
ATOM     16  C   UNL     1       1.538   7.138  20.063  0.00  0.00    +0.000 C 
BRANCH  16  17
ATOM     17  O   UNL     1       2.084   6.139  20.921  0.00  0.00    +0.000 OA
ATOM     18  H   UNL     1       2.890   6.521  21.317  0.00  0.00    +0.000 HD
ENDBRANCH  16  17
BRANCH  16  19
ATOM     19  C   UNL     1       2.464   7.311  18.853  0.00  0.00    +0.000 C 
BRANCH  19  20
ATOM     20  C   UNL     1       3.823   6.625  19.073  0.00  0.00    +0.000 C 
BRANCH  20  21
ATOM     21  C   UNL     1       4.301   5.901  17.835  0.00  0.00    +0.000 A 
ATOM     22  C   UNL     1       4.073   4.527  17.672  0.00  0.00    +0.000 A 
ATOM     23  C   UNL     1       4.528   3.865  16.529  0.00  0.00    +0.000 A 
ATOM     24  C   UNL     1       5.218   4.568  15.543  0.00  0.00    +0.000 A 
ATOM     25  C   UNL     1       5.455   5.933  15.699  0.00  0.00    +0.000 A 
ATOM     26  C   UNL     1       4.998   6.596  16.839  0.00  0.00    +0.000 A 
ENDBRANCH  20  21
ENDBRANCH  19  20
ENDBRANCH  16  19
ENDBRANCH  13  16
ENDBRANCH   5  12
BRANCH   3  27
ATOM     27  C   UNL     1       1.874  13.309  18.273  0.00  0.00    +0.000 C 
ATOM     28  O   UNL     1       2.045  14.467  18.626  0.00  0.00    +0.000 OA
BRANCH  27  29
ATOM     29  O   UNL     1       2.613  12.741  17.308  0.00  0.00    +0.000 OA
ATOM     30  H   UNL     1       3.509  13.101  17.185  0.00  0.00    +0.000 HD
ENDBRANCH  27  29
ENDBRANCH   3  27
BRANCH   1  31
ATOM     31  O   UNL     1      -1.697  10.267  18.293  0.00  0.00    +0.000 OA
BRANCH  31  32
ATOM     32  C   UNL     1      -3.019  10.087  17.757  0.00  0.00    +0.000 C 
BRANCH  32  34
ATOM     33  C   UNL     1      -5.376  11.025  18.166  0.00  0.00    +0.000 C 
ATOM     34  C   UNL     1      -3.903  11.335  17.945  0.00  0.00    +0.000 C 
ENDBRANCH  32  34
BRANCH  32  35
ATOM     35  C   UNL     1      -2.881   9.665  16.284  0.00  0.00    +0.000 C 
ATOM     36  C   UNL     1      -3.001  10.799  15.279  0.00  0.00    +0.000 C 
ENDBRANCH  32  35
ENDBRANCH  31  32
ENDBRANCH   1  31
TORSDOF 13
ENDMDL
MODEL 6
REMARK VINA RESULT:      -6.8      1.086      1.581
REMARK  Name = 
REMARK  16 active torsions:
REMARK  status: ('A' for Active; 'I' for Inactive)
REMARK    1  A    between atoms: C_1  and  C_2
REMARK    2  A    between atoms: C_2  and  C_3
REMARK    3  A    between atoms: C_3  and  C_4
REMARK    4  A    between atoms: C_3  and  O_6
REMARK    5  A    between atoms: C_4  and  C_5
REMARK    6  A    between atoms: O_6  and  C_7
REMARK    7  A    between atoms: C_9  and  C_10
REMARK    8  A    between atoms: C_10  and  O_12
REMARK    9  A    between atoms: C_14  and  N_15
REMARK   10  A    between atoms: C_16  and  C_18
REMARK   11  A    between atoms: C_18  and  O_19
REMARK   12  A    between atoms: C_18  and  C_20
REMARK   13  A    between atoms: C_20  and  C_21
REMARK   14  A    between atoms: C_21  and  C_22
REMARK   15  A    between atoms: C_28  and  N_29
REMARK   16  A    between atoms: C_30  and  C_31
REMARK                            x       y       z     vdW  Elec       q    Type
REMARK                         _______ _______ _______ _____ _____    ______ ____
ROOT
ATOM      1  C   UNL     1      -1.647  11.793  19.352  0.00  0.00    +0.000 C 
ATOM      2  C   UNL     1      -0.537  12.475  18.579  0.00  0.00    +0.000 C 
ATOM      3  C   UNL     1       0.707  12.660  19.063  0.00  0.00    +0.000 C 
ATOM      4  C   UNL     1       1.118  12.140  20.422  0.00  0.00    +0.000 C 
ATOM      5  C   UNL     1       0.171  11.081  21.021  0.00  0.00    +0.000 C 
ATOM      6  C   UNL     1      -1.303  11.573  20.867  0.00  0.00    +0.000 C 
ENDROOT
BRANCH   6   7
ATOM      7  N   UNL     1      -1.572  12.812  21.649  0.00  0.00    +0.000 N 
ATOM      8  C   UNL     1      -2.734  12.985  22.387  0.00  0.00    +0.000 C 
ATOM      9  C   UNL     1      -2.869  14.325  23.054  0.00  0.00    +0.000 C 
ATOM     10  O   UNL     1      -3.589  12.125  22.488  0.00  0.00    +0.000 OA
ATOM     11  H   UNL     1      -0.978  13.617  21.513  0.00  0.00    +0.000 HD
ENDBRANCH   6   7
BRANCH   5  12
ATOM     12  N   UNL     1       0.431   9.744  20.449  0.00  0.00    +0.000 N 
ATOM     13  C   UNL     1       1.224   8.798  21.077  0.00  0.00    +0.000 C 
ATOM     14  O   UNL     1       1.732   8.981  22.179  0.00  0.00    +0.000 OA
ATOM     15  H   UNL     1       0.159   9.569  19.489  0.00  0.00    +0.000 HD
BRANCH  13  16
ATOM     16  C   UNL     1       1.312   7.429  20.348  0.00  0.00    +0.000 C 
BRANCH  16  17
ATOM     17  O   UNL     1       1.577   6.401  21.300  0.00  0.00    +0.000 OA
ATOM     18  H   UNL     1       0.750   6.260  21.797  0.00  0.00    +0.000 HD
ENDBRANCH  16  17
BRANCH  16  19
ATOM     19  C   UNL     1       2.394   7.390  19.263  0.00  0.00    +0.000 C 
BRANCH  19  20
ATOM     20  C   UNL     1       3.215   6.091  19.324  0.00  0.00    +0.000 C 
BRANCH  20  21
ATOM     21  C   UNL     1       3.952   5.824  18.031  0.00  0.00    +0.000 A 
ATOM     22  C   UNL     1       4.442   6.881  17.251  0.00  0.00    +0.000 A 
ATOM     23  C   UNL     1       5.113   6.623  16.052  0.00  0.00    +0.000 A 
ATOM     24  C   UNL     1       5.294   5.309  15.622  0.00  0.00    +0.000 A 
ATOM     25  C   UNL     1       4.805   4.252  16.388  0.00  0.00    +0.000 A 
ATOM     26  C   UNL     1       4.138   4.508  17.587  0.00  0.00    +0.000 A 
ENDBRANCH  20  21
ENDBRANCH  19  20
ENDBRANCH  16  19
ENDBRANCH  13  16
ENDBRANCH   5  12
BRANCH   3  27
ATOM     27  C   UNL     1       1.775  13.444  18.376  0.00  0.00    +0.000 C 
ATOM     28  O   UNL     1       2.130  14.541  18.781  0.00  0.00    +0.000 OA
BRANCH  27  29
ATOM     29  O   UNL     1       2.327  12.870  17.297  0.00  0.00    +0.000 OA
ATOM     30  H   UNL     1       3.115  12.321  17.458  0.00  0.00    +0.000 HD
ENDBRANCH  27  29
ENDBRANCH   3  27
BRANCH   1  31
ATOM     31  O   UNL     1      -1.958  10.611  18.604  0.00  0.00    +0.000 OA
BRANCH  31  32
ATOM     32  C   UNL     1      -2.740  10.781  17.411  0.00  0.00    +0.000 C 
BRANCH  32  34
ATOM     33  C   UNL     1      -3.029  10.053  14.963  0.00  0.00    +0.000 C 
ATOM     34  C   UNL     1      -2.312   9.821  16.284  0.00  0.00    +0.000 C 
ENDBRANCH  32  34
BRANCH  32  35
ATOM     35  C   UNL     1      -4.224  10.635  17.792  0.00  0.00    +0.000 C 
ATOM     36  C   UNL     1      -5.089  11.844  17.475  0.00  0.00    +0.000 C 
ENDBRANCH  32  35
ENDBRANCH  31  32
ENDBRANCH   1  31
TORSDOF 13
ENDMDL
MODEL 7
REMARK VINA RESULT:      -6.8      2.146      2.634
REMARK  Name = 
REMARK  16 active torsions:
REMARK  status: ('A' for Active; 'I' for Inactive)
REMARK    1  A    between atoms: C_1  and  C_2
REMARK    2  A    between atoms: C_2  and  C_3
REMARK    3  A    between atoms: C_3  and  C_4
REMARK    4  A    between atoms: C_3  and  O_6
REMARK    5  A    between atoms: C_4  and  C_5
REMARK    6  A    between atoms: O_6  and  C_7
REMARK    7  A    between atoms: C_9  and  C_10
REMARK    8  A    between atoms: C_10  and  O_12
REMARK    9  A    between atoms: C_14  and  N_15
REMARK   10  A    between atoms: C_16  and  C_18
REMARK   11  A    between atoms: C_18  and  O_19
REMARK   12  A    between atoms: C_18  and  C_20
REMARK   13  A    between atoms: C_20  and  C_21
REMARK   14  A    between atoms: C_21  and  C_22
REMARK   15  A    between atoms: C_28  and  N_29
REMARK   16  A    between atoms: C_30  and  C_31
REMARK                            x       y       z     vdW  Elec       q    Type
REMARK                         _______ _______ _______ _____ _____    ______ ____
ROOT
ATOM      1  C   UNL     1      -2.073  12.119  18.405  0.00  0.00    +0.000 C 
ATOM      2  C   UNL     1      -0.766  12.713  17.924  0.00  0.00    +0.000 C 
ATOM      3  C   UNL     1       0.231  13.093  18.747  0.00  0.00    +0.000 C 
ATOM      4  C   UNL     1       0.144  12.901  20.245  0.00  0.00    +0.000 C 
ATOM      5  C   UNL     1      -0.950  11.916  20.706  0.00  0.00    +0.000 C 
ATOM      6  C   UNL     1      -2.279  12.246  19.955  0.00  0.00    +0.000 C 
ENDROOT
BRANCH   6   7
ATOM      7  N   UNL     1      -2.807  13.594  20.304  0.00  0.00    +0.000 N 
ATOM      8  C   UNL     1      -4.063  13.775  20.867  0.00  0.00    +0.000 C 
ATOM      9  C   UNL     1      -4.459  15.208  21.086  0.00  0.00    +0.000 C 
ATOM     10  O   UNL     1      -4.797  12.850  21.160  0.00  0.00    +0.000 OA
ATOM     11  H   UNL     1      -2.318  14.414  19.976  0.00  0.00    +0.000 HD
ENDBRANCH   6   7
BRANCH   5  12
ATOM     12  N   UNL     1      -0.502  10.514  20.568  0.00  0.00    +0.000 N 
ATOM     13  C   UNL     1       0.673  10.041  21.127  0.00  0.00    +0.000 C 
ATOM     14  O   UNL     1       1.409  10.739  21.818  0.00  0.00    +0.000 OA
ATOM     15  H   UNL     1      -0.983   9.918  19.906  0.00  0.00    +0.000 HD
BRANCH  13  16
ATOM     16  C   UNL     1       0.926   8.522  20.931  0.00  0.00    +0.000 C 
BRANCH  16  17
ATOM     17  O   UNL     1       1.767   8.042  21.977  0.00  0.00    +0.000 OA
ATOM     18  H   UNL     1       2.523   8.656  22.033  0.00  0.00    +0.000 HD
ENDBRANCH  16  17
BRANCH  16  19
ATOM     19  C   UNL     1       1.573   8.184  19.583  0.00  0.00    +0.000 C 
BRANCH  19  20
ATOM     20  C   UNL     1       2.654   7.100  19.724  0.00  0.00    +0.000 C 
BRANCH  20  21
ATOM     21  C   UNL     1       2.127   5.724  19.386  0.00  0.00    +0.000 A 
ATOM     22  C   UNL     1       2.141   5.253  18.066  0.00  0.00    +0.000 A 
ATOM     23  C   UNL     1       1.641   3.983  17.763  0.00  0.00    +0.000 A 
ATOM     24  C   UNL     1       1.119   3.179  18.774  0.00  0.00    +0.000 A 
ATOM     25  C   UNL     1       1.094   3.642  20.089  0.00  0.00    +0.000 A 
ATOM     26  C   UNL     1       1.596   4.908  20.393  0.00  0.00    +0.000 A 
ENDBRANCH  20  21
ENDBRANCH  19  20
ENDBRANCH  16  19
ENDBRANCH  13  16
ENDBRANCH   5  12
BRANCH   3  27
ATOM     27  C   UNL     1       1.469  13.801  18.308  0.00  0.00    +0.000 C 
ATOM     28  O   UNL     1       1.713  14.947  18.656  0.00  0.00    +0.000 OA
BRANCH  27  29
ATOM     29  O   UNL     1       2.300  13.103  17.520  0.00  0.00    +0.000 OA
ATOM     30  H   UNL     1       2.161  12.139  17.495  0.00  0.00    +0.000 HD
ENDBRANCH  27  29
ENDBRANCH   3  27
BRANCH   1  31
ATOM     31  O   UNL     1      -2.100  10.787  17.878  0.00  0.00    +0.000 OA
BRANCH  31  32
ATOM     32  C   UNL     1      -3.164  10.468  16.966  0.00  0.00    +0.000 C 
BRANCH  32  34
ATOM     33  C   UNL     1      -5.427  10.872  18.114  0.00  0.00    +0.000 C 
ATOM     34  C   UNL     1      -4.383  11.394  17.138  0.00  0.00    +0.000 C 
ENDBRANCH  32  34
BRANCH  32  35
ATOM     35  C   UNL     1      -2.588  10.492  15.539  0.00  0.00    +0.000 C 
ATOM     36  C   UNL     1      -3.567  10.095  14.446  0.00  0.00    +0.000 C 
ENDBRANCH  32  35
ENDBRANCH  31  32
ENDBRANCH   1  31
TORSDOF 13
ENDMDL
MODEL 8
REMARK VINA RESULT:      -6.8      2.419      4.717
REMARK  Name = 
REMARK  16 active torsions:
REMARK  status: ('A' for Active; 'I' for Inactive)
REMARK    1  A    between atoms: C_1  and  C_2
REMARK    2  A    between atoms: C_2  and  C_3
REMARK    3  A    between atoms: C_3  and  C_4
REMARK    4  A    between atoms: C_3  and  O_6
REMARK    5  A    between atoms: C_4  and  C_5
REMARK    6  A    between atoms: O_6  and  C_7
REMARK    7  A    between atoms: C_9  and  C_10
REMARK    8  A    between atoms: C_10  and  O_12
REMARK    9  A    between atoms: C_14  and  N_15
REMARK   10  A    between atoms: C_16  and  C_18
REMARK   11  A    between atoms: C_18  and  O_19
REMARK   12  A    between atoms: C_18  and  C_20
REMARK   13  A    between atoms: C_20  and  C_21
REMARK   14  A    between atoms: C_21  and  C_22
REMARK   15  A    between atoms: C_28  and  N_29
REMARK   16  A    between atoms: C_30  and  C_31
REMARK                            x       y       z     vdW  Elec       q    Type
REMARK                         _______ _______ _______ _____ _____    ______ ____
ROOT
ATOM      1  C   UNL     1      -0.737  11.134  20.517  0.00  0.00    +0.000 C 
ATOM      2  C   UNL     1      -1.716  10.829  19.403  0.00  0.00    +0.000 C 
ATOM      3  C   UNL     1      -1.369  10.747  18.104  0.00  0.00    +0.000 C 
ATOM      4  C   UNL     1       0.066  10.901  17.652  0.00  0.00    +0.000 C 
ATOM      5  C   UNL     1       1.114  10.765  18.775  0.00  0.00    +0.000 C 
ATOM      6  C   UNL     1       0.660  11.624  19.999  0.00  0.00    +0.000 C 
ENDROOT
BRANCH   6   7
ATOM      7  N   UNL     1       0.621  13.079  19.687  0.00  0.00    +0.000 N 
ATOM      8  C   UNL     1       1.009  14.045  20.605  0.00  0.00    +0.000 C 
ATOM      9  C   UNL     1       0.835  15.465  20.143  0.00  0.00    +0.000 C 
ATOM     10  O   UNL     1       1.453  13.773  21.704  0.00  0.00    +0.000 OA
ATOM     11  H   UNL     1       0.147  13.390  18.851  0.00  0.00    +0.000 HD
ENDBRANCH   6   7
BRANCH   5  12
ATOM     12  N   UNL     1       1.382   9.347  19.090  0.00  0.00    +0.000 N 
ATOM     13  C   UNL     1       2.105   8.514  18.253  0.00  0.00    +0.000 C 
ATOM     14  O   UNL     1       2.618   8.903  17.208  0.00  0.00    +0.000 OA
ATOM     15  H   UNL     1       0.883   8.922  19.862  0.00  0.00    +0.000 HD
BRANCH  13  16
ATOM     16  C   UNL     1       2.340   7.080  18.800  0.00  0.00    +0.000 C 
BRANCH  16  17
ATOM     17  O   UNL     1       2.472   7.129  20.219  0.00  0.00    +0.000 OA
ATOM     18  H   UNL     1       2.130   7.998  20.502  0.00  0.00    +0.000 HD
ENDBRANCH  16  17
BRANCH  16  19
ATOM     19  C   UNL     1       3.582   6.402  18.211  0.00  0.00    +0.000 C 
BRANCH  19  20
ATOM     20  C   UNL     1       3.262   5.003  17.659  0.00  0.00    +0.000 C 
BRANCH  20  21
ATOM     21  C   UNL     1       2.618   4.115  18.700  0.00  0.00    +0.000 A 
ATOM     22  C   UNL     1       3.295   3.789  19.884  0.00  0.00    +0.000 A 
ATOM     23  C   UNL     1       2.695   2.959  20.835  0.00  0.00    +0.000 A 
ATOM     24  C   UNL     1       1.419   2.444  20.607  0.00  0.00    +0.000 A 
ATOM     25  C   UNL     1       0.742   2.758  19.430  0.00  0.00    +0.000 A 
ATOM     26  C   UNL     1       1.339   3.590  18.481  0.00  0.00    +0.000 A 
ENDBRANCH  20  21
ENDBRANCH  19  20
ENDBRANCH  16  19
ENDBRANCH  13  16
ENDBRANCH   5  12
BRANCH   3  27
ATOM     27  C   UNL     1      -2.334  10.581  16.978  0.00  0.00    +0.000 C 
ATOM     28  O   UNL     1      -3.098   9.628  16.920  0.00  0.00    +0.000 OA
BRANCH  27  29
ATOM     29  O   UNL     1      -2.319  11.540  16.041  0.00  0.00    +0.000 OA
ATOM     30  H   UNL     1      -3.165  11.996  15.879  0.00  0.00    +0.000 HD
ENDBRANCH  27  29
ENDBRANCH   3  27
BRANCH   1  31
ATOM     31  O   UNL     1      -0.722   9.960  21.340  0.00  0.00    +0.000 OA
BRANCH  31  32
ATOM     32  C   UNL     1      -0.943  10.147  22.747  0.00  0.00    +0.000 C 
BRANCH  32  34
ATOM     33  C   UNL     1       1.442   9.192  22.812  0.00  0.00    +0.000 C 
ATOM     34  C   UNL     1       0.198   9.565  23.604  0.00  0.00    +0.000 C 
ENDBRANCH  32  34
BRANCH  32  35
ATOM     35  C   UNL     1      -1.174  11.648  22.996  0.00  0.00    +0.000 C 
ATOM     36  C   UNL     1      -2.595  12.022  23.384  0.00  0.00    +0.000 C 
ENDBRANCH  32  35
ENDBRANCH  31  32
ENDBRANCH   1  31
TORSDOF 13
ENDMDL
MODEL 9
REMARK VINA RESULT:      -6.7      2.301      4.854
REMARK  Name = 
REMARK  16 active torsions:
REMARK  status: ('A' for Active; 'I' for Inactive)
REMARK    1  A    between atoms: C_1  and  C_2
REMARK    2  A    between atoms: C_2  and  C_3
REMARK    3  A    between atoms: C_3  and  C_4
REMARK    4  A    between atoms: C_3  and  O_6
REMARK    5  A    between atoms: C_4  and  C_5
REMARK    6  A    between atoms: O_6  and  C_7
REMARK    7  A    between atoms: C_9  and  C_10
REMARK    8  A    between atoms: C_10  and  O_12
REMARK    9  A    between atoms: C_14  and  N_15
REMARK   10  A    between atoms: C_16  and  C_18
REMARK   11  A    between atoms: C_18  and  O_19
REMARK   12  A    between atoms: C_18  and  C_20
REMARK   13  A    between atoms: C_20  and  C_21
REMARK   14  A    between atoms: C_21  and  C_22
REMARK   15  A    between atoms: C_28  and  N_29
REMARK   16  A    between atoms: C_30  and  C_31
REMARK                            x       y       z     vdW  Elec       q    Type
REMARK                         _______ _______ _______ _____ _____    ______ ____
ROOT
ATOM      1  C   UNL     1      -1.483  12.351  20.186  0.00  0.00    +0.000 C 
ATOM      2  C   UNL     1      -2.795  11.930  19.558  0.00  0.00    +0.000 C 
ATOM      3  C   UNL     1      -2.938  11.638  18.250  0.00  0.00    +0.000 C 
ATOM      4  C   UNL     1      -1.764  11.653  17.298  0.00  0.00    +0.000 C 
ATOM      5  C   UNL     1      -0.381  11.636  17.979  0.00  0.00    +0.000 C 
ATOM      6  C   UNL     1      -0.371  12.689  19.132  0.00  0.00    +0.000 C 
ENDROOT
BRANCH   6   7
ATOM      7  N   UNL     1      -0.532  14.082  18.630  0.00  0.00    +0.000 N 
ATOM      8  C   UNL     1       0.239  15.134  19.102  0.00  0.00    +0.000 C 
ATOM      9  C   UNL     1      -0.111  16.482  18.534  0.00  0.00    +0.000 C 
ATOM     10  O   UNL     1       1.129  14.989  19.918  0.00  0.00    +0.000 OA
ATOM     11  H   UNL     1      -1.330  14.307  18.053  0.00  0.00    +0.000 HD
ENDBRANCH   6   7
BRANCH   5  12
ATOM     12  N   UNL     1      -0.005  10.269  18.396  0.00  0.00    +0.000 N 
ATOM     13  C   UNL     1       1.249   9.730  18.163  0.00  0.00    +0.000 C 
ATOM     14  O   UNL     1       2.158  10.362  17.633  0.00  0.00    +0.000 OA
ATOM     15  H   UNL     1      -0.735   9.645  18.715  0.00  0.00    +0.000 HD
BRANCH  13  16
ATOM     16  C   UNL     1       1.468   8.307  18.745  0.00  0.00    +0.000 C 
BRANCH  16  17
ATOM     17  O   UNL     1       1.328   8.349  20.164  0.00  0.00    +0.000 OA
ATOM     18  H   UNL     1       1.304   7.423  20.470  0.00  0.00    +0.000 HD
ENDBRANCH  16  17
BRANCH  16  19
ATOM     19  C   UNL     1       2.840   7.716  18.401  0.00  0.00    +0.000 C 
BRANCH  19  20
ATOM     20  C   UNL     1       2.716   6.325  17.756  0.00  0.00    +0.000 C 
BRANCH  20  21
ATOM     21  C   UNL     1       2.273   5.275  18.749  0.00  0.00    +0.000 A 
ATOM     22  C   UNL     1       1.443   4.216  18.355  0.00  0.00    +0.000 A 
ATOM     23  C   UNL     1       1.031   3.257  19.283  0.00  0.00    +0.000 A 
ATOM     24  C   UNL     1       1.440   3.351  20.613  0.00  0.00    +0.000 A 
ATOM     25  C   UNL     1       2.260   4.404  21.015  0.00  0.00    +0.000 A 
ATOM     26  C   UNL     1       2.675   5.360  20.088  0.00  0.00    +0.000 A 
ENDBRANCH  20  21
ENDBRANCH  19  20
ENDBRANCH  16  19
ENDBRANCH  13  16
ENDBRANCH   5  12
BRANCH   3  27
ATOM     27  C   UNL     1      -4.243  11.352  17.584  0.00  0.00    +0.000 C 
ATOM     28  O   UNL     1      -4.990  10.471  17.985  0.00  0.00    +0.000 OA
BRANCH  27  29
ATOM     29  O   UNL     1      -4.549  12.122  16.530  0.00  0.00    +0.000 OA
ATOM     30  H   UNL     1      -3.798  12.449  16.004  0.00  0.00    +0.000 HD
ENDBRANCH  27  29
ENDBRANCH   3  27
BRANCH   1  31
ATOM     31  O   UNL     1      -1.162  11.315  21.122  0.00  0.00    +0.000 OA
BRANCH  31  32
ATOM     32  C   UNL     1      -0.901  11.718  22.477  0.00  0.00    +0.000 C 
BRANCH  32  34
ATOM     33  C   UNL     1      -3.188  12.418  23.416  0.00  0.00    +0.000 C 
ATOM     34  C   UNL     1      -1.817  12.869  22.934  0.00  0.00    +0.000 C 
ENDBRANCH  32  34
BRANCH  32  35
ATOM     35  C   UNL     1      -1.010  10.471  23.372  0.00  0.00    +0.000 C 
ATOM     36  C   UNL     1       0.122   9.469  23.216  0.00  0.00    +0.000 C 
ENDBRANCH  32  35
ENDBRANCH  31  32
ENDBRANCH   1  31
TORSDOF 13
ENDMDL
