MODEL 1
REMARK VINA RESULT:      -6.1      0.000      0.000
REMARK  Name = 
REMARK  8 active torsions:
REMARK  status: ('A' for Active; 'I' for Inactive)
REMARK    1  A    between atoms: C_2  and  C_3
REMARK    2  A    between atoms: C_3  and  N_4
REMARK    3  A    between atoms: N_4  and  C_5
REMARK    4  A    between atoms: C_5  and  C_6
REMARK    5  A    between atoms: C_7  and  C_9
REMARK    6  A    between atoms: C_13  and  C_14
REMARK    7  A    between atoms: C_14  and  C_15
REMARK    8  A    between atoms: C_14  and  C_16
REMARK                            x       y       z     vdW  Elec       q    Type
REMARK                         _______ _______ _______ _____ _____    ______ ____
ROOT
ATOM      1  N   UNL     1       6.146   5.542  17.386  0.00  0.00    +0.000 N 
ATOM      2  C   UNL     1       5.588   4.702  18.367  0.00  0.00    +0.000 C 
ATOM      3  O   UNL     1       6.255   4.334  19.337  0.00  0.00    +0.000 OA
ENDROOT
BRANCH   2   4
ATOM      4  C   UNL     1       4.196   4.264  18.220  0.00  0.00    +0.000 A 
ATOM      5  N   UNL     1       3.784   3.138  17.526  0.00  0.00    +0.000 NA
ATOM      6  C   UNL     1       2.481   3.143  17.625  0.00  0.00    +0.000 A 
ATOM      7  O   UNL     1       1.966   4.179  18.330  0.00  0.00    +0.000 OA
ATOM      8  C   UNL     1       3.070   4.907  18.701  0.00  0.00    +0.000 A 
BRANCH   8   9
ATOM      9  C   UNL     1       2.816   6.136  19.500  0.00  0.00    +0.000 C 
ATOM     10  C   UNL     1       2.474   7.301  18.572  0.00  0.00    +0.000 C 
ATOM     11  C   UNL     1       1.701   5.890  20.516  0.00  0.00    +0.000 C 
ENDBRANCH   8   9
ENDBRANCH   2   4
BRANCH   1  12
ATOM     12  C   UNL     1       7.425   6.168  17.738  0.00  0.00    +0.000 C 
ATOM     13  C   UNL     1       7.599   7.665  17.526  0.00  0.00    +0.000 C 
ENDBRANCH   1  12
BRANCH   1  14
ATOM     14  C   UNL     1       5.416   5.920  16.176  0.00  0.00    +0.000 C 
BRANCH  14  16
ATOM     15  C   UNL     1       5.999   4.128  14.072  0.00  0.00    +0.000 C 
ATOM     16  C   UNL     1       5.729   4.955  15.043  0.00  0.00    +0.000 C 
ENDBRANCH  14  16
ENDBRANCH   1  14
TORSDOF 5
ENDMDL
MODEL 2
REMARK VINA RESULT:      -6.0      1.596      4.642
REMARK  Name = 
REMARK  8 active torsions:
REMARK  status: ('A' for Active; 'I' for Inactive)
REMARK    1  A    between atoms: C_2  and  C_3
REMARK    2  A    between atoms: C_3  and  N_4
REMARK    3  A    between atoms: N_4  and  C_5
REMARK    4  A    between atoms: C_5  and  C_6
REMARK    5  A    between atoms: C_7  and  C_9
REMARK    6  A    between atoms: C_13  and  C_14
REMARK    7  A    between atoms: C_14  and  C_15
REMARK    8  A    between atoms: C_14  and  C_16
REMARK                            x       y       z     vdW  Elec       q    Type
REMARK                         _______ _______ _______ _____ _____    ______ ____
ROOT
ATOM      1  N   UNL     1       3.352   4.179  18.818  0.00  0.00    +0.000 N 
ATOM      2  C   UNL     1       4.729   3.918  18.705  0.00  0.00    +0.000 C 
ATOM      3  O   UNL     1       5.345   3.367  19.620  0.00  0.00    +0.000 OA
ENDROOT
BRANCH   2   4
ATOM      4  C   UNL     1       5.431   4.317  17.480  0.00  0.00    +0.000 A 
ATOM      5  N   UNL     1       5.316   3.682  16.254  0.00  0.00    +0.000 NA
ATOM      6  C   UNL     1       6.124   4.338  15.463  0.00  0.00    +0.000 A 
ATOM      7  O   UNL     1       6.780   5.370  16.045  0.00  0.00    +0.000 OA
ATOM      8  C   UNL     1       6.344   5.348  17.346  0.00  0.00    +0.000 A 
BRANCH   8   9
ATOM      9  C   UNL     1       6.907   6.383  18.253  0.00  0.00    +0.000 C 
ATOM     10  C   UNL     1       7.921   5.749  19.204  0.00  0.00    +0.000 C 
ATOM     11  C   UNL     1       7.539   7.514  17.443  0.00  0.00    +0.000 C 
ENDBRANCH   8   9
ENDBRANCH   2   4
BRANCH   1  12
ATOM     12  C   UNL     1       2.666   3.505  19.926  0.00  0.00    +0.000 C 
ATOM     13  C   UNL     1       1.675   4.291  20.771  0.00  0.00    +0.000 C 
ENDBRANCH   1  12
BRANCH   1  14
ATOM     14  C   UNL     1       2.611   4.917  17.795  0.00  0.00    +0.000 C 
BRANCH  14  16
ATOM     15  C   UNL     1       2.756   7.695  18.280  0.00  0.00    +0.000 C 
ATOM     16  C   UNL     1       2.689   6.413  18.057  0.00  0.00    +0.000 C 
ENDBRANCH  14  16
ENDBRANCH   1  14
TORSDOF 5
ENDMDL
MODEL 3
REMARK VINA RESULT:      -6.0      1.628      4.968
REMARK  Name = 
REMARK  8 active torsions:
REMARK  status: ('A' for Active; 'I' for Inactive)
REMARK    1  A    between atoms: C_2  and  C_3
REMARK    2  A    between atoms: C_3  and  N_4
REMARK    3  A    between atoms: N_4  and  C_5
REMARK    4  A    between atoms: C_5  and  C_6
REMARK    5  A    between atoms: C_7  and  C_9
REMARK    6  A    between atoms: C_13  and  C_14
REMARK    7  A    between atoms: C_14  and  C_15
REMARK    8  A    between atoms: C_14  and  C_16
REMARK                            x       y       z     vdW  Elec       q    Type
REMARK                         _______ _______ _______ _____ _____    ______ ____
ROOT
ATOM      1  N   UNL     1       3.185   4.377  19.041  0.00  0.00    +0.000 N 
ATOM      2  C   UNL     1       4.196   3.686  18.350  0.00  0.00    +0.000 C 
ATOM      3  O   UNL     1       4.007   2.543  17.929  0.00  0.00    +0.000 OA
ENDROOT
BRANCH   2   4
ATOM      4  C   UNL     1       5.490   4.345  18.137  0.00  0.00    +0.000 A 
ATOM      5  N   UNL     1       6.485   4.474  19.093  0.00  0.00    +0.000 NA
ATOM      6  C   UNL     1       7.436   5.141  18.494  0.00  0.00    +0.000 A 
ATOM      7  O   UNL     1       7.176   5.479  17.209  0.00  0.00    +0.000 OA
ATOM      8  C   UNL     1       5.917   4.977  16.984  0.00  0.00    +0.000 A 
BRANCH   8   9
ATOM      9  C   UNL     1       5.346   5.202  15.630  0.00  0.00    +0.000 C 
ATOM     10  C   UNL     1       5.091   6.693  15.410  0.00  0.00    +0.000 C 
ATOM     11  C   UNL     1       6.277   4.636  14.558  0.00  0.00    +0.000 C 
ENDBRANCH   8   9
ENDBRANCH   2   4
BRANCH   1  12
ATOM     12  C   UNL     1       1.845   3.785  18.964  0.00  0.00    +0.000 C 
ATOM     13  C   UNL     1       0.976   3.756  20.213  0.00  0.00    +0.000 C 
ENDBRANCH   1  12
BRANCH   1  14
ATOM     14  C   UNL     1       3.407   5.695  19.637  0.00  0.00    +0.000 C 
BRANCH  14  16
ATOM     15  C   UNL     1       2.349   7.720  17.978  0.00  0.00    +0.000 C 
ATOM     16  C   UNL     1       2.837   6.785  18.743  0.00  0.00    +0.000 C 
ENDBRANCH  14  16
ENDBRANCH   1  14
TORSDOF 5
ENDMDL
MODEL 4
REMARK VINA RESULT:      -6.0      1.422      2.521
REMARK  Name = 
REMARK  8 active torsions:
REMARK  status: ('A' for Active; 'I' for Inactive)
REMARK    1  A    between atoms: C_2  and  C_3
REMARK    2  A    between atoms: C_3  and  N_4
REMARK    3  A    between atoms: N_4  and  C_5
REMARK    4  A    between atoms: C_5  and  C_6
REMARK    5  A    between atoms: C_7  and  C_9
REMARK    6  A    between atoms: C_13  and  C_14
REMARK    7  A    between atoms: C_14  and  C_15
REMARK    8  A    between atoms: C_14  and  C_16
REMARK                            x       y       z     vdW  Elec       q    Type
REMARK                         _______ _______ _______ _____ _____    ______ ____
ROOT
ATOM      1  N   UNL     1       6.074   5.957  17.591  0.00  0.00    +0.000 N 
ATOM      2  C   UNL     1       5.653   5.526  18.862  0.00  0.00    +0.000 C 
ATOM      3  O   UNL     1       6.470   5.327  19.764  0.00  0.00    +0.000 OA
ENDROOT
BRANCH   2   4
ATOM      4  C   UNL     1       4.223   5.309  19.102  0.00  0.00    +0.000 A 
ATOM      5  N   UNL     1       3.332   6.277  19.537  0.00  0.00    +0.000 NA
ATOM      6  C   UNL     1       2.188   5.653  19.644  0.00  0.00    +0.000 A 
ATOM      7  O   UNL     1       2.221   4.339  19.317  0.00  0.00    +0.000 OA
ATOM      8  C   UNL     1       3.534   4.115  18.981  0.00  0.00    +0.000 A 
BRANCH   8   9
ATOM      9  C   UNL     1       3.888   2.730  18.573  0.00  0.00    +0.000 C 
ATOM     10  C   UNL     1       4.331   1.923  19.794  0.00  0.00    +0.000 C 
ATOM     11  C   UNL     1       2.706   2.064  17.868  0.00  0.00    +0.000 C 
ENDBRANCH   8   9
ENDBRANCH   2   4
BRANCH   1  12
ATOM     12  C   UNL     1       7.461   6.427  17.506  0.00  0.00    +0.000 C 
ATOM     13  C   UNL     1       7.745   7.918  17.611  0.00  0.00    +0.000 C 
ENDBRANCH   1  12
BRANCH   1  14
ATOM     14  C   UNL     1       5.145   6.109  16.471  0.00  0.00    +0.000 C 
BRANCH  14  16
ATOM     15  C   UNL     1       5.774   4.284  14.411  0.00  0.00    +0.000 C 
ATOM     16  C   UNL     1       5.483   5.126  15.362  0.00  0.00    +0.000 C 
ENDBRANCH  14  16
ENDBRANCH   1  14
TORSDOF 5
ENDMDL
MODEL 5
REMARK VINA RESULT:      -6.0      1.300      1.300
REMARK  Name = 
REMARK  8 active torsions:
REMARK  status: ('A' for Active; 'I' for Inactive)
REMARK    1  A    between atoms: C_2  and  C_3
REMARK    2  A    between atoms: C_3  and  N_4
REMARK    3  A    between atoms: N_4  and  C_5
REMARK    4  A    between atoms: C_5  and  C_6
REMARK    5  A    between atoms: C_7  and  C_9
REMARK    6  A    between atoms: C_13  and  C_14
REMARK    7  A    between atoms: C_14  and  C_15
REMARK    8  A    between atoms: C_14  and  C_16
REMARK                            x       y       z     vdW  Elec       q    Type
REMARK                         _______ _______ _______ _____ _____    ______ ____
ROOT
ATOM      1  N   UNL     1       6.074   4.764  17.587  0.00  0.00    +0.000 N 
ATOM      2  C   UNL     1       5.854   4.649  18.971  0.00  0.00    +0.000 C 
ATOM      3  O   UNL     1       6.691   5.058  19.779  0.00  0.00    +0.000 OA
ENDROOT
BRANCH   2   4
ATOM      4  C   UNL     1       4.612   4.030  19.445  0.00  0.00    +0.000 A 
ATOM      5  N   UNL     1       4.438   2.677  19.688  0.00  0.00    +0.000 NA
ATOM      6  C   UNL     1       3.191   2.564  20.063  0.00  0.00    +0.000 A 
ATOM      7  O   UNL     1       2.497   3.726  20.097  0.00  0.00    +0.000 OA
ATOM      8  C   UNL     1       3.408   4.668  19.687  0.00  0.00    +0.000 A 
BRANCH   8   9
ATOM      9  C   UNL     1       2.926   6.073  19.617  0.00  0.00    +0.000 C 
ATOM     10  C   UNL     1       2.594   6.440  18.171  0.00  0.00    +0.000 C 
ATOM     11  C   UNL     1       1.715   6.266  20.530  0.00  0.00    +0.000 C 
ENDBRANCH   8   9
ENDBRANCH   2   4
BRANCH   1  12
ATOM     12  C   UNL     1       7.181   5.640  17.189  0.00  0.00    +0.000 C 
ATOM     13  C   UNL     1       7.001   7.148  17.281  0.00  0.00    +0.000 C 
ENDBRANCH   1  12
BRANCH   1  14
ATOM     14  C   UNL     1       5.149   4.204  16.601  0.00  0.00    +0.000 C 
BRANCH  14  16
ATOM     15  C   UNL     1       6.373   4.079  14.059  0.00  0.00    +0.000 C 
ATOM     16  C   UNL     1       5.807   4.136  15.232  0.00  0.00    +0.000 C 
ENDBRANCH  14  16
ENDBRANCH   1  14
TORSDOF 5
ENDMDL
MODEL 6
REMARK VINA RESULT:      -5.8      1.925      4.610
REMARK  Name = 
REMARK  8 active torsions:
REMARK  status: ('A' for Active; 'I' for Inactive)
REMARK    1  A    between atoms: C_2  and  C_3
REMARK    2  A    between atoms: C_3  and  N_4
REMARK    3  A    between atoms: N_4  and  C_5
REMARK    4  A    between atoms: C_5  and  C_6
REMARK    5  A    between atoms: C_7  and  C_9
REMARK    6  A    between atoms: C_13  and  C_14
REMARK    7  A    between atoms: C_14  and  C_15
REMARK    8  A    between atoms: C_14  and  C_16
REMARK                            x       y       z     vdW  Elec       q    Type
REMARK                         _______ _______ _______ _____ _____    ______ ____
ROOT
ATOM      1  N   UNL     1       3.454   5.078  17.490  0.00  0.00    +0.000 N 
ATOM      2  C   UNL     1       4.382   5.975  16.932  0.00  0.00    +0.000 C 
ATOM      3  O   UNL     1       4.204   7.194  17.002  0.00  0.00    +0.000 OA
ENDROOT
BRANCH   2   4
ATOM      4  C   UNL     1       5.569   5.441  16.257  0.00  0.00    +0.000 A 
ATOM      5  N   UNL     1       5.571   4.824  15.017  0.00  0.00    +0.000 NA
ATOM      6  C   UNL     1       6.817   4.483  14.816  0.00  0.00    +0.000 A 
ATOM      7  O   UNL     1       7.668   4.817  15.815  0.00  0.00    +0.000 OA
ATOM      8  C   UNL     1       6.862   5.422  16.748  0.00  0.00    +0.000 A 
BRANCH   8   9
ATOM      9  C   UNL     1       7.528   5.901  17.989  0.00  0.00    +0.000 C 
ATOM     10  C   UNL     1       7.723   7.416  17.925  0.00  0.00    +0.000 C 
ATOM     11  C   UNL     1       6.715   5.498  19.219  0.00  0.00    +0.000 C 
ENDBRANCH   8   9
ENDBRANCH   2   4
BRANCH   1  12
ATOM     12  C   UNL     1       2.457   5.672  18.389  0.00  0.00    +0.000 C 
ATOM     13  C   UNL     1       2.839   5.952  19.835  0.00  0.00    +0.000 C 
ENDBRANCH   1  12
BRANCH   1  14
ATOM     14  C   UNL     1       3.583   3.628  17.342  0.00  0.00    +0.000 C 
BRANCH  14  16
ATOM     15  C   UNL     1       4.348   2.450  19.792  0.00  0.00    +0.000 C 
ATOM     16  C   UNL     1       3.995   2.993  18.661  0.00  0.00    +0.000 C 
ENDBRANCH  14  16
ENDBRANCH   1  14
TORSDOF 5
ENDMDL
MODEL 7
REMARK VINA RESULT:      -5.8      1.635      4.885
REMARK  Name = 
REMARK  8 active torsions:
REMARK  status: ('A' for Active; 'I' for Inactive)
REMARK    1  A    between atoms: C_2  and  C_3
REMARK    2  A    between atoms: C_3  and  N_4
REMARK    3  A    between atoms: N_4  and  C_5
REMARK    4  A    between atoms: C_5  and  C_6
REMARK    5  A    between atoms: C_7  and  C_9
REMARK    6  A    between atoms: C_13  and  C_14
REMARK    7  A    between atoms: C_14  and  C_15
REMARK    8  A    between atoms: C_14  and  C_16
REMARK                            x       y       z     vdW  Elec       q    Type
REMARK                         _______ _______ _______ _____ _____    ______ ____
ROOT
ATOM      1  N   UNL     1       3.625   5.165  18.107  0.00  0.00    +0.000 N 
ATOM      2  C   UNL     1       4.763   4.354  17.952  0.00  0.00    +0.000 C 
ATOM      3  O   UNL     1       4.920   3.346  18.645  0.00  0.00    +0.000 OA
ENDROOT
BRANCH   2   4
ATOM      4  C   UNL     1       5.770   4.725  16.952  0.00  0.00    +0.000 A 
ATOM      5  N   UNL     1       5.915   4.132  15.708  0.00  0.00    +0.000 NA
ATOM      6  C   UNL     1       6.936   4.741  15.165  0.00  0.00    +0.000 A 
ATOM      7  O   UNL     1       7.502   5.702  15.934  0.00  0.00    +0.000 OA
ATOM      8  C   UNL     1       6.760   5.682  17.089  0.00  0.00    +0.000 A 
BRANCH   8   9
ATOM      9  C   UNL     1       7.156   6.646  18.149  0.00  0.00    +0.000 C 
ATOM     10  C   UNL     1       8.050   5.954  19.178  0.00  0.00    +0.000 C 
ATOM     11  C   UNL     1       7.856   7.857  17.534  0.00  0.00    +0.000 C 
ENDBRANCH   8   9
ENDBRANCH   2   4
BRANCH   1  12
ATOM     12  C   UNL     1       2.537   4.588  18.904  0.00  0.00    +0.000 C 
ATOM     13  C   UNL     1       1.409   3.854  18.195  0.00  0.00    +0.000 C 
ENDBRANCH   1  12
BRANCH   1  14
ATOM     14  C   UNL     1       3.453   6.418  17.371  0.00  0.00    +0.000 C 
BRANCH  14  16
ATOM     15  C   UNL     1       2.015   8.287  18.925  0.00  0.00    +0.000 C 
ATOM     16  C   UNL     1       2.679   7.424  18.208  0.00  0.00    +0.000 C 
ENDBRANCH  14  16
ENDBRANCH   1  14
TORSDOF 5
ENDMDL
MODEL 8
REMARK VINA RESULT:      -5.8      1.659      4.629
REMARK  Name = 
REMARK  8 active torsions:
REMARK  status: ('A' for Active; 'I' for Inactive)
REMARK    1  A    between atoms: C_2  and  C_3
REMARK    2  A    between atoms: C_3  and  N_4
REMARK    3  A    between atoms: N_4  and  C_5
REMARK    4  A    between atoms: C_5  and  C_6
REMARK    5  A    between atoms: C_7  and  C_9
REMARK    6  A    between atoms: C_13  and  C_14
REMARK    7  A    between atoms: C_14  and  C_15
REMARK    8  A    between atoms: C_14  and  C_16
REMARK                            x       y       z     vdW  Elec       q    Type
REMARK                         _______ _______ _______ _____ _____    ______ ____
ROOT
ATOM      1  N   UNL     1       3.936   5.433  18.520  0.00  0.00    +0.000 N 
ATOM      2  C   UNL     1       5.036   4.562  18.425  0.00  0.00    +0.000 C 
ATOM      3  O   UNL     1       5.332   3.813  19.359  0.00  0.00    +0.000 OA
ENDROOT
BRANCH   2   4
ATOM      4  C   UNL     1       5.836   4.557  17.195  0.00  0.00    +0.000 A 
ATOM      5  N   UNL     1       5.595   3.756  16.091  0.00  0.00    +0.000 NA
ATOM      6  C   UNL     1       6.551   4.051  15.250  0.00  0.00    +0.000 A 
ATOM      7  O   UNL     1       7.426   4.989  15.686  0.00  0.00    +0.000 OA
ATOM      8  C   UNL     1       6.972   5.305  16.943  0.00  0.00    +0.000 A 
BRANCH   8   9
ATOM      9  C   UNL     1       7.751   6.326  17.692  0.00  0.00    +0.000 C 
ATOM     10  C   UNL     1       7.089   7.696  17.550  0.00  0.00    +0.000 C 
ATOM     11  C   UNL     1       7.883   5.924  19.161  0.00  0.00    +0.000 C 
ENDBRANCH   8   9
ENDBRANCH   2   4
BRANCH   1  12
ATOM     12  C   UNL     1       3.022   5.183  19.639  0.00  0.00    +0.000 C 
ATOM     13  C   UNL     1       1.763   4.363  19.398  0.00  0.00    +0.000 C 
ENDBRANCH   1  12
BRANCH   1  14
ATOM     14  C   UNL     1       3.615   6.402  17.471  0.00  0.00    +0.000 C 
BRANCH  14  16
ATOM     15  C   UNL     1       2.068   8.517  18.523  0.00  0.00    +0.000 C 
ATOM     16  C   UNL     1       2.782   7.541  18.037  0.00  0.00    +0.000 C 
ENDBRANCH  14  16
ENDBRANCH   1  14
TORSDOF 5
ENDMDL
MODEL 9
REMARK VINA RESULT:      -5.8      1.488      2.364
REMARK  Name = 
REMARK  8 active torsions:
REMARK  status: ('A' for Active; 'I' for Inactive)
REMARK    1  A    between atoms: C_2  and  C_3
REMARK    2  A    between atoms: C_3  and  N_4
REMARK    3  A    between atoms: N_4  and  C_5
REMARK    4  A    between atoms: C_5  and  C_6
REMARK    5  A    between atoms: C_7  and  C_9
REMARK    6  A    between atoms: C_13  and  C_14
REMARK    7  A    between atoms: C_14  and  C_15
REMARK    8  A    between atoms: C_14  and  C_16
REMARK                            x       y       z     vdW  Elec       q    Type
REMARK                         _______ _______ _______ _____ _____    ______ ____
ROOT
ATOM      1  N   UNL     1       5.360   5.450  17.957  0.00  0.00    +0.000 N 
ATOM      2  C   UNL     1       5.132   4.280  18.703  0.00  0.00    +0.000 C 
ATOM      3  O   UNL     1       5.989   3.850  19.479  0.00  0.00    +0.000 OA
ENDROOT
BRANCH   2   4
ATOM      4  C   UNL     1       3.858   3.571  18.544  0.00  0.00    +0.000 A 
ATOM      5  N   UNL     1       3.506   2.802  17.447  0.00  0.00    +0.000 NA
ATOM      6  C   UNL     1       2.294   2.387  17.707  0.00  0.00    +0.000 A 
ATOM      7  O   UNL     1       1.788   2.807  18.891  0.00  0.00    +0.000 OA
ATOM      8  C   UNL     1       2.790   3.580  19.424  0.00  0.00    +0.000 A 
BRANCH   8   9
ATOM      9  C   UNL     1       2.519   4.197  20.749  0.00  0.00    +0.000 C 
ATOM     10  C   UNL     1       1.691   5.469  20.573  0.00  0.00    +0.000 C 
ATOM     11  C   UNL     1       1.815   3.199  21.667  0.00  0.00    +0.000 C 
ENDBRANCH   8   9
ENDBRANCH   2   4
BRANCH   1  12
ATOM     12  C   UNL     1       6.513   6.256  18.373  0.00  0.00    +0.000 C 
ATOM     13  C   UNL     1       7.296   7.026  17.320  0.00  0.00    +0.000 C 
ENDBRANCH   1  12
BRANCH   1  14
ATOM     14  C   UNL     1       4.407   5.935  16.957  0.00  0.00    +0.000 C 
BRANCH  14  16
ATOM     15  C   UNL     1       2.824   8.013  18.029  0.00  0.00    +0.000 C 
ATOM     16  C   UNL     1       3.554   7.054  17.534  0.00  0.00    +0.000 C 
ENDBRANCH  14  16
ENDBRANCH   1  14
TORSDOF 5
ENDMDL
