MODEL 1
REMARK VINA RESULT:      -8.8      0.000      0.000
REMARK  Name = 
REMARK  8 active torsions:
REMARK  status: ('A' for Active; 'I' for Inactive)
REMARK    1  A    between atoms: C_1  and  C_2
REMARK    2  A    between atoms: C_2  and  O_3
REMARK    3  A    between atoms: O_3  and  C_4
REMARK    4  A    between atoms: C_4  and  C_6
REMARK    5  A    between atoms: C_7  and  C_8
REMARK    6  A    between atoms: N_13  and  C_14
REMARK    7  A    between atoms: C_18  and  C_19
REMARK    8  A    between atoms: N_26  and  C_27
REMARK                            x       y       z     vdW  Elec       q    Type
REMARK                         _______ _______ _______ _____ _____    ______ ____
ROOT
ATOM      1  C   UNL     1       3.389   4.327  19.891  0.00  0.00    +0.000 A 
ATOM      2  C   UNL     1       2.348   4.162  20.791  0.00  0.00    +0.000 A 
ATOM      3  C   UNL     1       1.842   3.005  21.565  0.00  0.00    +0.000 C 
ATOM      4  O   UNL     1       1.627   5.308  20.900  0.00  0.00    +0.000 OA
ATOM      5  C   UNL     1       2.158   6.210  20.027  0.00  0.00    +0.000 A 
ATOM      6  N   UNL     1       1.632   7.425  19.858  0.00  0.00    +0.000 NA
ATOM      7  C   UNL     1       2.239   8.137  18.911  0.00  0.00    +0.000 A 
ATOM      8  N   UNL     1       1.798   9.414  18.544  0.00  0.00    +0.000 N 
ATOM      9  N   UNL     1       3.276   7.696  18.180  0.00  0.00    +0.000 NA
ATOM     10  C   UNL     1       3.786   6.446  18.344  0.00  0.00    +0.000 A 
ATOM     11  N   UNL     1       4.672   5.953  17.395  0.00  0.00    +0.000 N 
ATOM     12  C   UNL     1       4.600   6.634  16.090  0.00  0.00    +0.000 C 
ATOM     13  C   UNL     1       5.371   5.813  15.034  0.00  0.00    +0.000 C 
ATOM     14  N   UNL     1       6.774   5.539  15.426  0.00  0.00    +0.000 NA
ATOM     15  C   UNL     1       7.407   4.670  14.435  0.00  0.00    +0.000 C 
ATOM     16  C   UNL     1       6.787   4.893  16.762  0.00  0.00    +0.000 C 
ATOM     17  C   UNL     1       6.061   5.749  17.831  0.00  0.00    +0.000 C 
ATOM     18  C   UNL     1       3.228   5.646  19.351  0.00  0.00    +0.000 A 
ATOM     19  H   UNL     1       2.359   9.723  17.763  0.00  0.00    +0.000 HD
ENDROOT
BRANCH   8  20
ATOM     20  C   UNL     1       0.566  10.067  18.720  0.00  0.00    +0.000 A 
ATOM     21  C   UNL     1       0.345  11.027  19.707  0.00  0.00    +0.000 A 
ATOM     22  C   UNL     1      -0.902  11.635  19.859  0.00  0.00    +0.000 A 
ATOM     23  C   UNL     1      -1.954  11.300  19.013  0.00  0.00    +0.000 A 
ATOM     24  C   UNL     1      -1.761  10.364  17.993  0.00  0.00    +0.000 A 
ATOM     25  C   UNL     1      -2.891   9.995  17.080  0.00  0.00    +0.000 C 
ATOM     26  C   UNL     1      -0.499   9.762  17.851  0.00  0.00    +0.000 A 
ENDBRANCH   8  20
BRANCH   1  27
ATOM     27  C   UNL     1       4.341   3.286  19.564  0.00  0.00    +0.000 C 
ATOM     28  O   UNL     1       5.208   2.881  20.323  0.00  0.00    +0.000 OA
BRANCH  27  29
ATOM     29  O   UNL     1       4.185   2.835  18.284  0.00  0.00    +0.000 OA
BRANCH  29  31
ATOM     30  C   UNL     1       1.889   2.126  17.835  0.00  0.00    +0.000 C 
ATOM     31  C   UNL     1       3.316   1.705  18.125  0.00  0.00    +0.000 C 
ENDBRANCH  29  31
ENDBRANCH  27  29
ENDBRANCH   1  27
TORSDOF 4
ENDMDL
MODEL 2
REMARK VINA RESULT:      -8.5      0.325      1.296
REMARK  Name = 
REMARK  8 active torsions:
REMARK  status: ('A' for Active; 'I' for Inactive)
REMARK    1  A    between atoms: C_1  and  C_2
REMARK    2  A    between atoms: C_2  and  O_3
REMARK    3  A    between atoms: O_3  and  C_4
REMARK    4  A    between atoms: C_4  and  C_6
REMARK    5  A    between atoms: C_7  and  C_8
REMARK    6  A    between atoms: N_13  and  C_14
REMARK    7  A    between atoms: C_18  and  C_19
REMARK    8  A    between atoms: N_26  and  C_27
REMARK                            x       y       z     vdW  Elec       q    Type
REMARK                         _______ _______ _______ _____ _____    ______ ____
ROOT
ATOM      1  C   UNL     1       3.379   4.310  19.916  0.00  0.00    +0.000 A 
ATOM      2  C   UNL     1       2.336   4.133  20.810  0.00  0.00    +0.000 A 
ATOM      3  C   UNL     1       1.834   2.969  21.577  0.00  0.00    +0.000 C 
ATOM      4  O   UNL     1       1.608   5.275  20.923  0.00  0.00    +0.000 OA
ATOM      5  C   UNL     1       2.136   6.184  20.056  0.00  0.00    +0.000 A 
ATOM      6  N   UNL     1       1.604   7.397  19.891  0.00  0.00    +0.000 NA
ATOM      7  C   UNL     1       2.210   8.118  18.951  0.00  0.00    +0.000 A 
ATOM      8  N   UNL     1       1.763   9.394  18.588  0.00  0.00    +0.000 N 
ATOM      9  N   UNL     1       3.253   7.687  18.221  0.00  0.00    +0.000 NA
ATOM     10  C   UNL     1       3.769   6.439  18.381  0.00  0.00    +0.000 A 
ATOM     11  N   UNL     1       4.663   5.957  17.433  0.00  0.00    +0.000 N 
ATOM     12  C   UNL     1       4.591   6.644  16.131  0.00  0.00    +0.000 C 
ATOM     13  C   UNL     1       5.371   5.833  15.074  0.00  0.00    +0.000 C 
ATOM     14  N   UNL     1       6.774   5.565  15.470  0.00  0.00    +0.000 NA
ATOM     15  C   UNL     1       7.417   4.706  14.478  0.00  0.00    +0.000 C 
ATOM     16  C   UNL     1       6.786   4.912  16.803  0.00  0.00    +0.000 C 
ATOM     17  C   UNL     1       6.051   5.758  17.873  0.00  0.00    +0.000 C 
ATOM     18  C   UNL     1       3.213   5.630  19.382  0.00  0.00    +0.000 A 
ATOM     19  H   UNL     1       2.326   9.710  17.811  0.00  0.00    +0.000 HD
ENDROOT
BRANCH   8  20
ATOM     20  C   UNL     1       0.526  10.039  18.763  0.00  0.00    +0.000 A 
ATOM     21  C   UNL     1      -0.526   9.930  17.855  0.00  0.00    +0.000 A 
ATOM     22  C   UNL     1      -1.730  10.605  18.058  0.00  0.00    +0.000 A 
ATOM     23  C   UNL     1      -1.909  11.396  19.189  0.00  0.00    +0.000 A 
ATOM     24  C   UNL     1      -0.887  11.504  20.136  0.00  0.00    +0.000 A 
ATOM     25  C   UNL     1      -1.071  12.358  21.355  0.00  0.00    +0.000 C 
ATOM     26  C   UNL     1       0.319  10.817  19.918  0.00  0.00    +0.000 A 
ENDBRANCH   8  20
BRANCH   1  27
ATOM     27  C   UNL     1       4.339   3.276  19.587  0.00  0.00    +0.000 C 
ATOM     28  O   UNL     1       5.191   2.856  20.355  0.00  0.00    +0.000 OA
BRANCH  27  29
ATOM     29  O   UNL     1       4.209   2.851  18.295  0.00  0.00    +0.000 OA
BRANCH  29  31
ATOM     30  C   UNL     1       1.952   2.022  17.856  0.00  0.00    +0.000 C 
ATOM     31  C   UNL     1       3.406   1.678  18.106  0.00  0.00    +0.000 C 
ENDBRANCH  29  31
ENDBRANCH  27  29
ENDBRANCH   1  27
TORSDOF 4
ENDMDL
MODEL 3
REMARK VINA RESULT:      -7.9      0.915      1.387
REMARK  Name = 
REMARK  8 active torsions:
REMARK  status: ('A' for Active; 'I' for Inactive)
REMARK    1  A    between atoms: C_1  and  C_2
REMARK    2  A    between atoms: C_2  and  O_3
REMARK    3  A    between atoms: O_3  and  C_4
REMARK    4  A    between atoms: C_4  and  C_6
REMARK    5  A    between atoms: C_7  and  C_8
REMARK    6  A    between atoms: N_13  and  C_14
REMARK    7  A    between atoms: C_18  and  C_19
REMARK    8  A    between atoms: N_26  and  C_27
REMARK                            x       y       z     vdW  Elec       q    Type
REMARK                         _______ _______ _______ _____ _____    ______ ____
ROOT
ATOM      1  C   UNL     1       3.202   3.965  19.803  0.00  0.00    +0.000 A 
ATOM      2  C   UNL     1       2.139   3.781  20.673  0.00  0.00    +0.000 A 
ATOM      3  C   UNL     1       1.556   2.591  21.335  0.00  0.00    +0.000 C 
ATOM      4  O   UNL     1       1.483   4.953  20.876  0.00  0.00    +0.000 OA
ATOM      5  C   UNL     1       2.077   5.896  20.093  0.00  0.00    +0.000 A 
ATOM      6  N   UNL     1       1.625   7.150  20.027  0.00  0.00    +0.000 NA
ATOM      7  C   UNL     1       2.286   7.907  19.155  0.00  0.00    +0.000 A 
ATOM      8  N   UNL     1       1.924   9.235  18.898  0.00  0.00    +0.000 N 
ATOM      9  N   UNL     1       3.308   7.473  18.399  0.00  0.00    +0.000 NA
ATOM     10  C   UNL     1       3.743   6.187  18.456  0.00  0.00    +0.000 A 
ATOM     11  N   UNL     1       4.616   5.729  17.477  0.00  0.00    +0.000 N 
ATOM     12  C   UNL     1       4.603   6.526  16.237  0.00  0.00    +0.000 C 
ATOM     13  C   UNL     1       5.343   5.759  15.120  0.00  0.00    +0.000 C 
ATOM     14  N   UNL     1       6.722   5.370  15.501  0.00  0.00    +0.000 NA
ATOM     15  C   UNL     1       7.321   4.558  14.444  0.00  0.00    +0.000 C 
ATOM     16  C   UNL     1       6.677   4.608  16.774  0.00  0.00    +0.000 C 
ATOM     17  C   UNL     1       5.983   5.407  17.907  0.00  0.00    +0.000 C 
ATOM     18  C   UNL     1       3.126   5.334  19.381  0.00  0.00    +0.000 A 
ATOM     19  H   UNL     1       2.514   9.579  18.154  0.00  0.00    +0.000 HD
ENDROOT
BRANCH   8  20
ATOM     20  C   UNL     1       0.728   9.940  19.119  0.00  0.00    +0.000 A 
ATOM     21  C   UNL     1       0.481  10.681  20.274  0.00  0.00    +0.000 A 
ATOM     22  C   UNL     1      -0.731  11.348  20.460  0.00  0.00    +0.000 A 
ATOM     23  C   UNL     1      -1.719  11.296  19.481  0.00  0.00    +0.000 A 
ATOM     24  C   UNL     1      -1.494  10.588  18.297  0.00  0.00    +0.000 A 
ATOM     25  C   UNL     1      -2.555  10.524  17.240  0.00  0.00    +0.000 C 
ATOM     26  C   UNL     1      -0.268   9.923  18.124  0.00  0.00    +0.000 A 
ENDBRANCH   8  20
BRANCH   1  27
ATOM     27  C   UNL     1       4.099   2.904  19.394  0.00  0.00    +0.000 C 
ATOM     28  O   UNL     1       4.107   2.397  18.283  0.00  0.00    +0.000 OA
BRANCH  27  29
ATOM     29  O   UNL     1       4.915   2.504  20.414  0.00  0.00    +0.000 OA
BRANCH  29  31
ATOM     30  C   UNL     1       5.733   0.730  21.883  0.00  0.00    +0.000 C 
ATOM     31  C   UNL     1       5.061   1.086  20.573  0.00  0.00    +0.000 C 
ENDBRANCH  29  31
ENDBRANCH  27  29
ENDBRANCH   1  27
TORSDOF 4
ENDMDL
MODEL 4
REMARK VINA RESULT:      -7.8      1.066      1.968
REMARK  Name = 
REMARK  8 active torsions:
REMARK  status: ('A' for Active; 'I' for Inactive)
REMARK    1  A    between atoms: C_1  and  C_2
REMARK    2  A    between atoms: C_2  and  O_3
REMARK    3  A    between atoms: O_3  and  C_4
REMARK    4  A    between atoms: C_4  and  C_6
REMARK    5  A    between atoms: C_7  and  C_8
REMARK    6  A    between atoms: N_13  and  C_14
REMARK    7  A    between atoms: C_18  and  C_19
REMARK    8  A    between atoms: N_26  and  C_27
REMARK                            x       y       z     vdW  Elec       q    Type
REMARK                         _______ _______ _______ _____ _____    ______ ____
ROOT
ATOM      1  C   UNL     1       3.190   3.923  19.842  0.00  0.00    +0.000 A 
ATOM      2  C   UNL     1       2.131   3.724  20.712  0.00  0.00    +0.000 A 
ATOM      3  C   UNL     1       1.548   2.522  21.353  0.00  0.00    +0.000 C 
ATOM      4  O   UNL     1       1.477   4.892  20.941  0.00  0.00    +0.000 OA
ATOM      5  C   UNL     1       2.070   5.850  20.174  0.00  0.00    +0.000 A 
ATOM      6  N   UNL     1       1.619   7.106  20.136  0.00  0.00    +0.000 NA
ATOM      7  C   UNL     1       2.278   7.879  19.276  0.00  0.00    +0.000 A 
ATOM      8  N   UNL     1       1.917   9.212  19.047  0.00  0.00    +0.000 N 
ATOM      9  N   UNL     1       3.297   7.459  18.507  0.00  0.00    +0.000 NA
ATOM     10  C   UNL     1       3.730   6.171  18.537  0.00  0.00    +0.000 A 
ATOM     11  N   UNL     1       4.598   5.731  17.546  0.00  0.00    +0.000 N 
ATOM     12  C   UNL     1       4.581   6.553  16.322  0.00  0.00    +0.000 C 
ATOM     13  C   UNL     1       5.316   5.807  15.188  0.00  0.00    +0.000 C 
ATOM     14  N   UNL     1       6.695   5.408  15.555  0.00  0.00    +0.000 NA
ATOM     15  C   UNL     1       7.289   4.616  14.480  0.00  0.00    +0.000 C 
ATOM     16  C   UNL     1       6.654   4.621  16.813  0.00  0.00    +0.000 C 
ATOM     17  C   UNL     1       5.966   5.398  17.965  0.00  0.00    +0.000 C 
ATOM     18  C   UNL     1       3.114   5.300  19.448  0.00  0.00    +0.000 A 
ATOM     19  H   UNL     1       2.505   9.570  18.308  0.00  0.00    +0.000 HD
ENDROOT
BRANCH   8  20
ATOM     20  C   UNL     1       0.723   9.914  19.286  0.00  0.00    +0.000 A 
ATOM     21  C   UNL     1      -0.263  10.096  18.317  0.00  0.00    +0.000 A 
ATOM     22  C   UNL     1      -1.425  10.819  18.593  0.00  0.00    +0.000 A 
ATOM     23  C   UNL     1      -1.628  11.365  19.856  0.00  0.00    +0.000 A 
ATOM     24  C   UNL     1      -0.675  11.178  20.862  0.00  0.00    +0.000 A 
ATOM     25  C   UNL     1      -0.885  11.767  22.223  0.00  0.00    +0.000 C 
ATOM     26  C   UNL     1       0.488  10.446  20.569  0.00  0.00    +0.000 A 
ENDBRANCH   8  20
BRANCH   1  27
ATOM     27  C   UNL     1       4.084   2.869  19.409  0.00  0.00    +0.000 C 
ATOM     28  O   UNL     1       4.070   2.366  18.296  0.00  0.00    +0.000 OA
BRANCH  27  29
ATOM     29  O   UNL     1       4.926   2.470  20.408  0.00  0.00    +0.000 OA
BRANCH  29  31
ATOM     30  C   UNL     1       5.764   0.706  21.877  0.00  0.00    +0.000 C 
ATOM     31  C   UNL     1       5.053   1.053  20.585  0.00  0.00    +0.000 C 
ENDBRANCH  29  31
ENDBRANCH  27  29
ENDBRANCH   1  27
TORSDOF 4
ENDMDL
MODEL 5
REMARK VINA RESULT:      -7.4      3.639      8.452
REMARK  Name = 
REMARK  8 active torsions:
REMARK  status: ('A' for Active; 'I' for Inactive)
REMARK    1  A    between atoms: C_1  and  C_2
REMARK    2  A    between atoms: C_2  and  O_3
REMARK    3  A    between atoms: O_3  and  C_4
REMARK    4  A    between atoms: C_4  and  C_6
REMARK    5  A    between atoms: C_7  and  C_8
REMARK    6  A    between atoms: N_13  and  C_14
REMARK    7  A    between atoms: C_18  and  C_19
REMARK    8  A    between atoms: N_26  and  C_27
REMARK                            x       y       z     vdW  Elec       q    Type
REMARK                         _______ _______ _______ _____ _____    ______ ____
ROOT
ATOM      1  C   UNL     1      -0.015  11.331  21.341  0.00  0.00    +0.000 A 
ATOM      2  C   UNL     1      -0.283  10.204  22.101  0.00  0.00    +0.000 A 
ATOM      3  C   UNL     1      -0.851   9.995  23.453  0.00  0.00    +0.000 C 
ATOM      4  O   UNL     1       0.144   9.085  21.459  0.00  0.00    +0.000 OA
ATOM      5  C   UNL     1       0.749   9.481  20.304  0.00  0.00    +0.000 A 
ATOM      6  N   UNL     1       1.325   8.611  19.472  0.00  0.00    +0.000 NA
ATOM      7  C   UNL     1       1.927   9.190  18.435  0.00  0.00    +0.000 A 
ATOM      8  N   UNL     1       2.639   8.451  17.482  0.00  0.00    +0.000 N 
ATOM      9  N   UNL     1       1.970  10.517  18.228  0.00  0.00    +0.000 NA
ATOM     10  C   UNL     1       1.401  11.394  19.097  0.00  0.00    +0.000 A 
ATOM     11  N   UNL     1       1.697  12.745  18.977  0.00  0.00    +0.000 N 
ATOM     12  C   UNL     1       2.942  13.026  18.239  0.00  0.00    +0.000 C 
ATOM     13  C   UNL     1       3.343  14.503  18.445  0.00  0.00    +0.000 C 
ATOM     14  N   UNL     1       2.266  15.452  18.073  0.00  0.00    +0.000 NA
ATOM     15  C   UNL     1       2.673  16.818  18.393  0.00  0.00    +0.000 C 
ATOM     16  C   UNL     1       1.029  15.096  18.812  0.00  0.00    +0.000 C 
ATOM     17  C   UNL     1       0.600  13.628  18.557  0.00  0.00    +0.000 C 
ATOM     18  C   UNL     1       0.710  10.862  20.195  0.00  0.00    +0.000 A 
ATOM     19  H   UNL     1       3.067   9.104  16.841  0.00  0.00    +0.000 HD
ENDROOT
BRANCH   8  20
ATOM     20  C   UNL     1       3.198   7.162  17.521  0.00  0.00    +0.000 A 
ATOM     21  C   UNL     1       4.550   6.909  17.297  0.00  0.00    +0.000 A 
ATOM     22  C   UNL     1       5.058   5.609  17.325  0.00  0.00    +0.000 A 
ATOM     23  C   UNL     1       4.218   4.533  17.593  0.00  0.00    +0.000 A 
ATOM     24  C   UNL     1       2.862   4.752  17.853  0.00  0.00    +0.000 A 
ATOM     25  C   UNL     1       1.950   3.597  18.139  0.00  0.00    +0.000 C 
ATOM     26  C   UNL     1       2.366   6.066  17.823  0.00  0.00    +0.000 A 
ENDBRANCH   8  20
BRANCH   1  27
ATOM     27  C   UNL     1      -0.358  12.677  21.751  0.00  0.00    +0.000 C 
ATOM     28  O   UNL     1       0.451  13.510  22.129  0.00  0.00    +0.000 OA
BRANCH  27  29
ATOM     29  O   UNL     1      -1.705  12.897  21.705  0.00  0.00    +0.000 OA
BRANCH  29  31
ATOM     30  C   UNL     1      -3.450  12.582  23.388  0.00  0.00    +0.000 C 
ATOM     31  C   UNL     1      -2.289  13.427  22.903  0.00  0.00    +0.000 C 
ENDBRANCH  29  31
ENDBRANCH  27  29
ENDBRANCH   1  27
TORSDOF 4
ENDMDL
MODEL 6
REMARK VINA RESULT:      -7.3      3.554      8.513
REMARK  Name = 
REMARK  8 active torsions:
REMARK  status: ('A' for Active; 'I' for Inactive)
REMARK    1  A    between atoms: C_1  and  C_2
REMARK    2  A    between atoms: C_2  and  O_3
REMARK    3  A    between atoms: O_3  and  C_4
REMARK    4  A    between atoms: C_4  and  C_6
REMARK    5  A    between atoms: C_7  and  C_8
REMARK    6  A    between atoms: N_13  and  C_14
REMARK    7  A    between atoms: C_18  and  C_19
REMARK    8  A    between atoms: N_26  and  C_27
REMARK                            x       y       z     vdW  Elec       q    Type
REMARK                         _______ _______ _______ _____ _____    ______ ____
ROOT
ATOM      1  C   UNL     1       0.043  11.178  21.336  0.00  0.00    +0.000 A 
ATOM      2  C   UNL     1      -0.185  10.045  22.100  0.00  0.00    +0.000 A 
ATOM      3  C   UNL     1      -0.733   9.822  23.458  0.00  0.00    +0.000 C 
ATOM      4  O   UNL     1       0.271   8.938  21.456  0.00  0.00    +0.000 OA
ATOM      5  C   UNL     1       0.853   9.350  20.295  0.00  0.00    +0.000 A 
ATOM      6  N   UNL     1       1.448   8.496  19.460  0.00  0.00    +0.000 NA
ATOM      7  C   UNL     1       2.023   9.090  18.417  0.00  0.00    +0.000 A 
ATOM      8  N   UNL     1       2.748   8.371  17.459  0.00  0.00    +0.000 N 
ATOM      9  N   UNL     1       2.023  10.417  18.207  0.00  0.00    +0.000 NA
ATOM     10  C   UNL     1       1.436  11.278  19.079  0.00  0.00    +0.000 A 
ATOM     11  N   UNL     1       1.690  12.638  18.953  0.00  0.00    +0.000 N 
ATOM     12  C   UNL     1       2.920  12.955  18.204  0.00  0.00    +0.000 C 
ATOM     13  C   UNL     1       3.277  14.443  18.403  0.00  0.00    +0.000 C 
ATOM     14  N   UNL     1       2.169  15.359  18.039  0.00  0.00    +0.000 NA
ATOM     15  C   UNL     1       2.537  16.737  18.353  0.00  0.00    +0.000 C 
ATOM     16  C   UNL     1       0.950  14.967  18.790  0.00  0.00    +0.000 C 
ATOM     17  C   UNL     1       0.563  13.486  18.542  0.00  0.00    +0.000 C 
ATOM     18  C   UNL     1       0.771  10.729  20.184  0.00  0.00    +0.000 A 
ATOM     19  H   UNL     1       3.151   9.035  16.812  0.00  0.00    +0.000 HD
ENDROOT
BRANCH   8  20
ATOM     20  C   UNL     1       3.346   7.099  17.496  0.00  0.00    +0.000 A 
ATOM     21  C   UNL     1       2.665   5.947  17.888  0.00  0.00    +0.000 A 
ATOM     22  C   UNL     1       3.305   4.707  17.929  0.00  0.00    +0.000 A 
ATOM     23  C   UNL     1       4.643   4.595  17.565  0.00  0.00    +0.000 A 
ATOM     24  C   UNL     1       5.349   5.724  17.137  0.00  0.00    +0.000 A 
ATOM     25  C   UNL     1       6.792   5.612  16.747  0.00  0.00    +0.000 C 
ATOM     26  C   UNL     1       4.691   6.964  17.099  0.00  0.00    +0.000 A 
ENDBRANCH   8  20
BRANCH   1  27
ATOM     27  C   UNL     1      -0.337  12.514  21.746  0.00  0.00    +0.000 C 
ATOM     28  O   UNL     1       0.450  13.373  22.111  0.00  0.00    +0.000 OA
BRANCH  27  29
ATOM     29  O   UNL     1      -1.691  12.691  21.717  0.00  0.00    +0.000 OA
BRANCH  29  31
ATOM     30  C   UNL     1      -3.307  12.403  23.528  0.00  0.00    +0.000 C 
ATOM     31  C   UNL     1      -2.264  13.295  22.885  0.00  0.00    +0.000 C 
ENDBRANCH  29  31
ENDBRANCH  27  29
ENDBRANCH   1  27
TORSDOF 4
ENDMDL
MODEL 7
REMARK VINA RESULT:      -7.1      3.786      8.583
REMARK  Name = 
REMARK  8 active torsions:
REMARK  status: ('A' for Active; 'I' for Inactive)
REMARK    1  A    between atoms: C_1  and  C_2
REMARK    2  A    between atoms: C_2  and  O_3
REMARK    3  A    between atoms: O_3  and  C_4
REMARK    4  A    between atoms: C_4  and  C_6
REMARK    5  A    between atoms: C_7  and  C_8
REMARK    6  A    between atoms: N_13  and  C_14
REMARK    7  A    between atoms: C_18  and  C_19
REMARK    8  A    between atoms: N_26  and  C_27
REMARK                            x       y       z     vdW  Elec       q    Type
REMARK                         _______ _______ _______ _____ _____    ______ ____
ROOT
ATOM      1  C   UNL     1      -0.075  11.563  21.237  0.00  0.00    +0.000 A 
ATOM      2  C   UNL     1      -0.415  10.460  22.004  0.00  0.00    +0.000 A 
ATOM      3  C   UNL     1      -1.038  10.297  23.338  0.00  0.00    +0.000 C 
ATOM      4  O   UNL     1      -0.010   9.314  21.396  0.00  0.00    +0.000 OA
ATOM      5  C   UNL     1       0.651   9.667  20.258  0.00  0.00    +0.000 A 
ATOM      6  N   UNL     1       1.222   8.761  19.460  0.00  0.00    +0.000 NA
ATOM      7  C   UNL     1       1.883   9.298  18.437  0.00  0.00    +0.000 A 
ATOM      8  N   UNL     1       2.599   8.516  17.522  0.00  0.00    +0.000 N 
ATOM      9  N   UNL     1       1.985  10.618  18.211  0.00  0.00    +0.000 NA
ATOM     10  C   UNL     1       1.421  11.532  19.045  0.00  0.00    +0.000 A 
ATOM     11  N   UNL     1       1.774  12.869  18.914  0.00  0.00    +0.000 N 
ATOM     12  C   UNL     1       3.055  13.088  18.219  0.00  0.00    +0.000 C 
ATOM     13  C   UNL     1       3.506  14.552  18.415  0.00  0.00    +0.000 C 
ATOM     14  N   UNL     1       2.482  15.535  17.990  0.00  0.00    +0.000 NA
ATOM     15  C   UNL     1       2.931  16.890  18.303  0.00  0.00    +0.000 C 
ATOM     16  C   UNL     1       1.206  15.240  18.689  0.00  0.00    +0.000 C 
ATOM     17  C   UNL     1       0.729  13.786  18.442  0.00  0.00    +0.000 C 
ATOM     18  C   UNL     1       0.670  11.047  20.126  0.00  0.00    +0.000 A 
ATOM     19  H   UNL     1       3.075   9.141  16.887  0.00  0.00    +0.000 HD
ENDROOT
BRANCH   8  20
ATOM     20  C   UNL     1       3.104   7.207  17.602  0.00  0.00    +0.000 A 
ATOM     21  C   UNL     1       4.456   6.901  17.455  0.00  0.00    +0.000 A 
ATOM     22  C   UNL     1       4.911   5.582  17.521  0.00  0.00    +0.000 A 
ATOM     23  C   UNL     1       4.016   4.542  17.750  0.00  0.00    +0.000 A 
ATOM     24  C   UNL     1       2.657   4.815  17.932  0.00  0.00    +0.000 A 
ATOM     25  C   UNL     1       1.687   3.698  18.175  0.00  0.00    +0.000 C 
ATOM     26  C   UNL     1       2.215   6.147  17.865  0.00  0.00    +0.000 A 
ENDBRANCH   8  20
BRANCH   1  27
ATOM     27  C   UNL     1      -0.379  12.928  21.613  0.00  0.00    +0.000 C 
ATOM     28  O   UNL     1      -1.470  13.457  21.466  0.00  0.00    +0.000 OA
BRANCH  27  29
ATOM     29  O   UNL     1       0.714  13.573  22.118  0.00  0.00    +0.000 OA
BRANCH  29  31
ATOM     30  C   UNL     1       1.935  15.688  22.215  0.00  0.00    +0.000 C 
ATOM     31  C   UNL     1       0.588  14.996  22.251  0.00  0.00    +0.000 C 
ENDBRANCH  29  31
ENDBRANCH  27  29
ENDBRANCH   1  27
TORSDOF 4
ENDMDL
MODEL 8
REMARK VINA RESULT:      -6.9      3.706      8.672
REMARK  Name = 
REMARK  8 active torsions:
REMARK  status: ('A' for Active; 'I' for Inactive)
REMARK    1  A    between atoms: C_1  and  C_2
REMARK    2  A    between atoms: C_2  and  O_3
REMARK    3  A    between atoms: O_3  and  C_4
REMARK    4  A    between atoms: C_4  and  C_6
REMARK    5  A    between atoms: C_7  and  C_8
REMARK    6  A    between atoms: N_13  and  C_14
REMARK    7  A    between atoms: C_18  and  C_19
REMARK    8  A    between atoms: N_26  and  C_27
REMARK                            x       y       z     vdW  Elec       q    Type
REMARK                         _______ _______ _______ _____ _____    ______ ____
ROOT
ATOM      1  C   UNL     1      -0.071  11.434  21.256  0.00  0.00    +0.000 A 
ATOM      2  C   UNL     1      -0.369  10.326  22.032  0.00  0.00    +0.000 A 
ATOM      3  C   UNL     1      -0.978  10.151  23.371  0.00  0.00    +0.000 C 
ATOM      4  O   UNL     1       0.070   9.190  21.429  0.00  0.00    +0.000 OA
ATOM      5  C   UNL     1       0.711   9.557  20.284  0.00  0.00    +0.000 A 
ATOM      6  N   UNL     1       1.307   8.666  19.489  0.00  0.00    +0.000 NA
ATOM      7  C   UNL     1       1.943   9.217  18.458  0.00  0.00    +0.000 A 
ATOM      8  N   UNL     1       2.679   8.454  17.544  0.00  0.00    +0.000 N 
ATOM      9  N   UNL     1       2.000  10.539  18.223  0.00  0.00    +0.000 NA
ATOM     10  C   UNL     1       1.411  11.438  19.055  0.00  0.00    +0.000 A 
ATOM     11  N   UNL     1       1.719  12.785  18.913  0.00  0.00    +0.000 N 
ATOM     12  C   UNL     1       2.988  13.043  18.208  0.00  0.00    +0.000 C 
ATOM     13  C   UNL     1       3.391  14.522  18.392  0.00  0.00    +0.000 C 
ATOM     14  N   UNL     1       2.332  15.468  17.967  0.00  0.00    +0.000 NA
ATOM     15  C   UNL     1       2.738  16.839  18.269  0.00  0.00    +0.000 C 
ATOM     16  C   UNL     1       1.071  15.135  18.677  0.00  0.00    +0.000 C 
ATOM     17  C   UNL     1       0.641  13.665  18.441  0.00  0.00    +0.000 C 
ATOM     18  C   UNL     1       0.684  10.936  20.143  0.00  0.00    +0.000 A 
ATOM     19  H   UNL     1       3.130   9.089  16.901  0.00  0.00    +0.000 HD
ENDROOT
BRANCH   8  20
ATOM     20  C   UNL     1       3.228   7.162  17.629  0.00  0.00    +0.000 A 
ATOM     21  C   UNL     1       2.492   6.044  18.018  0.00  0.00    +0.000 A 
ATOM     22  C   UNL     1       3.084   4.784  18.109  0.00  0.00    +0.000 A 
ATOM     23  C   UNL     1       4.429   4.616  17.797  0.00  0.00    +0.000 A 
ATOM     24  C   UNL     1       5.191   5.709  17.373  0.00  0.00    +0.000 A 
ATOM     25  C   UNL     1       6.642   5.537  17.039  0.00  0.00    +0.000 C 
ATOM     26  C   UNL     1       4.580   6.971  17.285  0.00  0.00    +0.000 A 
ENDBRANCH   8  20
BRANCH   1  27
ATOM     27  C   UNL     1      -0.418  12.791  21.626  0.00  0.00    +0.000 C 
ATOM     28  O   UNL     1      -1.527  13.282  21.483  0.00  0.00    +0.000 OA
BRANCH  27  29
ATOM     29  O   UNL     1       0.656  13.476  22.118  0.00  0.00    +0.000 OA
BRANCH  29  31
ATOM     30  C   UNL     1       1.801  15.635  22.193  0.00  0.00    +0.000 C 
ATOM     31  C   UNL     1       0.481  14.893  22.252  0.00  0.00    +0.000 C 
ENDBRANCH  29  31
ENDBRANCH  27  29
ENDBRANCH   1  27
TORSDOF 4
ENDMDL
MODEL 9
REMARK VINA RESULT:      -6.7      5.168     10.999
REMARK  Name = 
REMARK  8 active torsions:
REMARK  status: ('A' for Active; 'I' for Inactive)
REMARK    1  A    between atoms: C_1  and  C_2
REMARK    2  A    between atoms: C_2  and  O_3
REMARK    3  A    between atoms: O_3  and  C_4
REMARK    4  A    between atoms: C_4  and  C_6
REMARK    5  A    between atoms: C_7  and  C_8
REMARK    6  A    between atoms: N_13  and  C_14
REMARK    7  A    between atoms: C_18  and  C_19
REMARK    8  A    between atoms: N_26  and  C_27
REMARK                            x       y       z     vdW  Elec       q    Type
REMARK                         _______ _______ _______ _____ _____    ______ ____
ROOT
ATOM      1  C   UNL     1      -4.700  12.565  19.504  0.00  0.00    +0.000 A 
ATOM      2  C   UNL     1      -5.027  11.600  18.565  0.00  0.00    +0.000 A 
ATOM      3  C   UNL     1      -6.308  11.120  17.998  0.00  0.00    +0.000 C 
ATOM      4  O   UNL     1      -3.914  10.933  18.162  0.00  0.00    +0.000 OA
ATOM      5  C   UNL     1      -2.863  11.419  18.881  0.00  0.00    +0.000 A 
ATOM      6  N   UNL     1      -1.629  10.925  18.753  0.00  0.00    +0.000 NA
ATOM      7  C   UNL     1      -0.750  11.475  19.588  0.00  0.00    +0.000 A 
ATOM      8  N   UNL     1       0.583  11.050  19.649  0.00  0.00    +0.000 N 
ATOM      9  N   UNL     1      -1.052  12.429  20.484  0.00  0.00    +0.000 NA
ATOM     10  C   UNL     1      -2.317  12.905  20.622  0.00  0.00    +0.000 A 
ATOM     11  N   UNL     1      -2.623  13.690  21.726  0.00  0.00    +0.000 N 
ATOM     12  C   UNL     1      -1.688  13.531  22.856  0.00  0.00    +0.000 C 
ATOM     13  C   UNL     1      -2.291  14.179  24.121  0.00  0.00    +0.000 C 
ATOM     14  N   UNL     1      -2.665  15.600  23.921  0.00  0.00    +0.000 NA
ATOM     15  C   UNL     1      -3.324  16.115  25.119  0.00  0.00    +0.000 C 
ATOM     16  C   UNL     1      -3.570  15.703  22.749  0.00  0.00    +0.000 C 
ATOM     17  C   UNL     1      -2.937  15.102  21.469  0.00  0.00    +0.000 C 
ATOM     18  C   UNL     1      -3.296  12.407  19.750  0.00  0.00    +0.000 A 
ATOM     19  H   UNL     1       1.034  11.554  20.399  0.00  0.00    +0.000 HD
ENDROOT
BRANCH   8  20
ATOM     20  C   UNL     1       1.208   9.861  19.234  0.00  0.00    +0.000 A 
ATOM     21  C   UNL     1       1.799   9.708  17.980  0.00  0.00    +0.000 A 
ATOM     22  C   UNL     1       2.390   8.501  17.602  0.00  0.00    +0.000 A 
ATOM     23  C   UNL     1       2.413   7.424  18.482  0.00  0.00    +0.000 A 
ATOM     24  C   UNL     1       1.856   7.552  19.759  0.00  0.00    +0.000 A 
ATOM     25  C   UNL     1       1.873   6.394  20.711  0.00  0.00    +0.000 C 
ATOM     26  C   UNL     1       1.266   8.773  20.125  0.00  0.00    +0.000 A 
ENDBRANCH   8  20
BRANCH   1  27
ATOM     27  C   UNL     1      -5.669  13.448  20.119  0.00  0.00    +0.000 C 
ATOM     28  O   UNL     1      -5.860  14.606  19.780  0.00  0.00    +0.000 OA
BRANCH  27  29
ATOM     29  O   UNL     1      -6.322  12.847  21.157  0.00  0.00    +0.000 OA
BRANCH  29  31
ATOM     30  C   UNL     1      -5.932  13.030  23.563  0.00  0.00    +0.000 C 
ATOM     31  C   UNL     1      -6.524  13.662  22.320  0.00  0.00    +0.000 C 
ENDBRANCH  29  31
ENDBRANCH  27  29
ENDBRANCH   1  27
TORSDOF 4
ENDMDL
