MODEL 1
REMARK VINA RESULT:      -7.5      0.000      0.000
REMARK  Name = 
REMARK  1 active torsions:
REMARK  status: ('A' for Active; 'I' for Inactive)
REMARK    1  A    between atoms: N_9  and  C_10
REMARK                            x       y       z     vdW  Elec       q    Type
REMARK                         _______ _______ _______ _____ _____    ______ ____
ROOT
ATOM      1  C   UNL     1       1.813   4.655  21.170  0.00  0.00    +0.000 A 
ATOM      2  C   UNL     1       2.767   3.838  20.581  0.00  0.00    +0.000 A 
ATOM      3  C   UNL     1       3.490   4.327  19.498  0.00  0.00    +0.000 A 
ATOM      4  C   UNL     1       3.229   5.622  18.950  0.00  0.00    +0.000 A 
ATOM      5  C   UNL     1       3.927   6.187  17.866  0.00  0.00    +0.000 A 
ATOM      6  N   UNL     1       5.028   5.528  17.297  0.00  0.00    +0.000 N 
ATOM      7  C   UNL     1       6.008   6.457  16.705  0.00  0.00    +0.000 C 
ATOM      8  C   UNL     1       7.306   5.711  16.318  0.00  0.00    +0.000 C 
ATOM      9  N   UNL     1       7.133   4.486  15.481  0.00  0.00    +0.000 NA
ATOM     10  C   UNL     1       6.142   3.629  16.189  0.00  0.00    +0.000 C 
ATOM     11  C   UNL     1       4.781   4.307  16.505  0.00  0.00    +0.000 C 
ATOM     12  N   UNL     1       3.656   7.441  17.451  0.00  0.00    +0.000 NA
ATOM     13  C   UNL     1       2.714   8.121  18.111  0.00  0.00    +0.000 A 
ATOM     14  N   UNL     1       1.997   7.674  19.147  0.00  0.00    +0.000 NA
ATOM     15  C   UNL     1       2.267   6.429  19.557  0.00  0.00    +0.000 A 
ATOM     16  C   UNL     1       1.585   5.935  20.667  0.00  0.00    +0.000 A 
ENDROOT
BRANCH   9  17
ATOM     17  C   UNL     1       6.795   4.813  14.086  0.00  0.00    +0.000 C 
ATOM     18  C   UNL     1       8.014   5.311  13.290  0.00  0.00    +0.000 C 
ATOM     19  C   UNL     1       7.614   5.168  11.833  0.00  0.00    +0.000 C 
ATOM     20  C   UNL     1       6.751   3.919  11.781  0.00  0.00    +0.000 C 
ATOM     21  C   UNL     1       6.226   3.684  13.203  0.00  0.00    +0.000 C 
ENDBRANCH   9  17
TORSDOF 1
ENDMDL
MODEL 2
REMARK VINA RESULT:      -7.3      1.687      7.079
REMARK  Name = 
REMARK  1 active torsions:
REMARK  status: ('A' for Active; 'I' for Inactive)
REMARK    1  A    between atoms: N_9  and  C_10
REMARK                            x       y       z     vdW  Elec       q    Type
REMARK                         _______ _______ _______ _____ _____    ______ ____
ROOT
ATOM      1  C   UNL     1       6.806   4.014  12.273  0.00  0.00    +0.000 A 
ATOM      2  C   UNL     1       5.589   3.475  12.667  0.00  0.00    +0.000 A 
ATOM      3  C   UNL     1       5.121   3.749  13.947  0.00  0.00    +0.000 A 
ATOM      4  C   UNL     1       5.889   4.520  14.875  0.00  0.00    +0.000 A 
ATOM      5  C   UNL     1       5.474   4.848  16.180  0.00  0.00    +0.000 A 
ATOM      6  N   UNL     1       4.191   4.506  16.634  0.00  0.00    +0.000 N 
ATOM      7  C   UNL     1       3.678   5.437  17.655  0.00  0.00    +0.000 C 
ATOM      8  C   UNL     1       2.182   5.169  17.939  0.00  0.00    +0.000 C 
ATOM      9  N   UNL     1       1.817   3.754  18.251  0.00  0.00    +0.000 NA
ATOM     10  C   UNL     1       2.371   2.924  17.147  0.00  0.00    +0.000 C 
ATOM     11  C   UNL     1       3.896   3.083  16.894  0.00  0.00    +0.000 C 
ATOM     12  N   UNL     1       6.236   5.633  16.968  0.00  0.00    +0.000 NA
ATOM     13  C   UNL     1       7.385   6.090  16.461  0.00  0.00    +0.000 A 
ATOM     14  N   UNL     1       7.866   5.835  15.240  0.00  0.00    +0.000 NA
ATOM     15  C   UNL     1       7.108   5.055  14.459  0.00  0.00    +0.000 A 
ATOM     16  C   UNL     1       7.538   4.804  13.158  0.00  0.00    +0.000 A 
ENDROOT
BRANCH   9  17
ATOM     17  C   UNL     1       2.240   3.359  19.605  0.00  0.00    +0.000 C 
ATOM     18  C   UNL     1       2.134   4.518  20.612  0.00  0.00    +0.000 C 
ATOM     19  C   UNL     1       2.163   3.852  21.977  0.00  0.00    +0.000 C 
ATOM     20  C   UNL     1       1.427   2.536  21.790  0.00  0.00    +0.000 C 
ATOM     21  C   UNL     1       1.470   2.213  20.291  0.00  0.00    +0.000 C 
ENDBRANCH   9  17
TORSDOF 1
ENDMDL
MODEL 3
REMARK VINA RESULT:      -6.9      3.211      7.551
REMARK  Name = 
REMARK  1 active torsions:
REMARK  status: ('A' for Active; 'I' for Inactive)
REMARK    1  A    between atoms: N_9  and  C_10
REMARK                            x       y       z     vdW  Elec       q    Type
REMARK                         _______ _______ _______ _____ _____    ______ ____
ROOT
ATOM      1  C   UNL     1       5.860   4.746  17.904  0.00  0.00    +0.000 A 
ATOM      2  C   UNL     1       5.560   6.042  17.510  0.00  0.00    +0.000 A 
ATOM      3  C   UNL     1       4.435   6.659  18.046  0.00  0.00    +0.000 A 
ATOM      4  C   UNL     1       3.559   5.969  18.942  0.00  0.00    +0.000 A 
ATOM      5  C   UNL     1       2.412   6.532  19.532  0.00  0.00    +0.000 A 
ATOM      6  N   UNL     1       2.098   7.887  19.346  0.00  0.00    +0.000 N 
ATOM      7  C   UNL     1       1.351   8.462  20.479  0.00  0.00    +0.000 C 
ATOM      8  C   UNL     1       1.248   9.999  20.344  0.00  0.00    +0.000 C 
ATOM      9  N   UNL     1       0.742  10.509  19.034  0.00  0.00    +0.000 NA
ATOM     10  C   UNL     1       1.582   9.874  17.982  0.00  0.00    +0.000 C 
ATOM     11  C   UNL     1       1.630   8.322  18.016  0.00  0.00    +0.000 C 
ATOM     12  N   UNL     1       1.675   5.827  20.414  0.00  0.00    +0.000 NA
ATOM     13  C   UNL     1       2.080   4.588  20.709  0.00  0.00    +0.000 A 
ATOM     14  N   UNL     1       3.150   3.966  20.203  0.00  0.00    +0.000 NA
ATOM     15  C   UNL     1       3.880   4.667  19.327  0.00  0.00    +0.000 A 
ATOM     16  C   UNL     1       5.035   4.084  18.811  0.00  0.00    +0.000 A 
ENDROOT
BRANCH   9  17
ATOM     17  C   UNL     1      -0.709  10.306  18.885  0.00  0.00    +0.000 C 
ATOM     18  C   UNL     1      -1.519  11.549  19.292  0.00  0.00    +0.000 C 
ATOM     19  C   UNL     1      -2.889  11.343  18.671  0.00  0.00    +0.000 C 
ATOM     20  C   UNL     1      -2.623  10.634  17.354  0.00  0.00    +0.000 C 
ATOM     21  C   UNL     1      -1.245   9.972  17.477  0.00  0.00    +0.000 C 
ENDBRANCH   9  17
TORSDOF 1
ENDMDL
MODEL 4
REMARK VINA RESULT:      -6.9      3.281      7.134
REMARK  Name = 
REMARK  1 active torsions:
REMARK  status: ('A' for Active; 'I' for Inactive)
REMARK    1  A    between atoms: N_9  and  C_10
REMARK                            x       y       z     vdW  Elec       q    Type
REMARK                         _______ _______ _______ _____ _____    ______ ____
ROOT
ATOM      1  C   UNL     1       2.101   2.698  20.483  0.00  0.00    +0.000 A 
ATOM      2  C   UNL     1       1.205   3.704  20.813  0.00  0.00    +0.000 A 
ATOM      3  C   UNL     1       1.425   4.984  20.317  0.00  0.00    +0.000 A 
ATOM      4  C   UNL     1       2.577   5.292  19.528  0.00  0.00    +0.000 A 
ATOM      5  C   UNL     1       2.859   6.558  18.981  0.00  0.00    +0.000 A 
ATOM      6  N   UNL     1       1.941   7.614  19.102  0.00  0.00    +0.000 N 
ATOM      7  C   UNL     1       2.026   8.575  17.987  0.00  0.00    +0.000 C 
ATOM      8  C   UNL     1       0.843   9.570  18.032  0.00  0.00    +0.000 C 
ATOM      9  N   UNL     1       0.614  10.259  19.337  0.00  0.00    +0.000 NA
ATOM     10  C   UNL     1       0.530   9.189  20.368  0.00  0.00    +0.000 C 
ATOM     11  C   UNL     1       1.748   8.227  20.430  0.00  0.00    +0.000 C 
ATOM     12  N   UNL     1       3.939   6.746  18.198  0.00  0.00    +0.000 NA
ATOM     13  C   UNL     1       4.719   5.688  17.955  0.00  0.00    +0.000 A 
ATOM     14  N   UNL     1       4.539   4.450  18.427  0.00  0.00    +0.000 NA
ATOM     15  C   UNL     1       3.466   4.266  19.206  0.00  0.00    +0.000 A 
ATOM     16  C   UNL     1       3.203   2.982  19.678  0.00  0.00    +0.000 A 
ENDROOT
BRANCH   9  17
ATOM     17  C   UNL     1       1.621  11.301  19.597  0.00  0.00    +0.000 C 
ATOM     18  C   UNL     1       1.913  12.155  18.351  0.00  0.00    +0.000 C 
ATOM     19  C   UNL     1       2.589  13.406  18.885  0.00  0.00    +0.000 C 
ATOM     20  C   UNL     1       1.922  13.674  20.224  0.00  0.00    +0.000 C 
ATOM     21  C   UNL     1       1.306  12.348  20.686  0.00  0.00    +0.000 C 
ENDBRANCH   9  17
TORSDOF 1
ENDMDL
MODEL 5
REMARK VINA RESULT:      -6.9      1.817      6.778
REMARK  Name = 
REMARK  1 active torsions:
REMARK  status: ('A' for Active; 'I' for Inactive)
REMARK    1  A    between atoms: N_9  and  C_10
REMARK                            x       y       z     vdW  Elec       q    Type
REMARK                         _______ _______ _______ _____ _____    ______ ____
ROOT
ATOM      1  C   UNL     1       7.142   4.416  13.160  0.00  0.00    +0.000 A 
ATOM      2  C   UNL     1       5.970   3.690  13.318  0.00  0.00    +0.000 A 
ATOM      3  C   UNL     1       5.249   3.836  14.498  0.00  0.00    +0.000 A 
ATOM      4  C   UNL     1       5.719   4.667  15.564  0.00  0.00    +0.000 A 
ATOM      5  C   UNL     1       5.038   4.873  16.778  0.00  0.00    +0.000 A 
ATOM      6  N   UNL     1       3.761   4.330  16.988  0.00  0.00    +0.000 N 
ATOM      7  C   UNL     1       2.944   5.131  17.917  0.00  0.00    +0.000 C 
ATOM      8  C   UNL     1       1.478   4.638  17.923  0.00  0.00    +0.000 C 
ATOM      9  N   UNL     1       1.279   3.174  18.137  0.00  0.00    +0.000 NA
ATOM     10  C   UNL     1       2.136   2.481  17.135  0.00  0.00    +0.000 C 
ATOM     11  C   UNL     1       3.640   2.869  17.164  0.00  0.00    +0.000 C 
ATOM     12  N   UNL     1       5.524   5.722  17.705  0.00  0.00    +0.000 NA
ATOM     13  C   UNL     1       6.663   6.361  17.422  0.00  0.00    +0.000 A 
ATOM     14  N   UNL     1       7.383   6.233  16.303  0.00  0.00    +0.000 NA
ATOM     15  C   UNL     1       6.899   5.389  15.384  0.00  0.00    +0.000 A 
ATOM     16  C   UNL     1       7.583   5.261  14.177  0.00  0.00    +0.000 A 
ENDROOT
BRANCH   9  17
ATOM     17  C   UNL     1       1.513   2.783  19.537  0.00  0.00    +0.000 C 
ATOM     18  C   UNL     1       2.988   2.442  19.811  0.00  0.00    +0.000 C 
ATOM     19  C   UNL     1       3.130   2.507  21.321  0.00  0.00    +0.000 C 
ATOM     20  C   UNL     1       2.200   3.627  21.757  0.00  0.00    +0.000 C 
ATOM     21  C   UNL     1       1.171   3.810  20.635  0.00  0.00    +0.000 C 
ENDBRANCH   9  17
TORSDOF 1
ENDMDL
MODEL 6
REMARK VINA RESULT:      -6.7      1.510      6.960
REMARK  Name = 
REMARK  1 active torsions:
REMARK  status: ('A' for Active; 'I' for Inactive)
REMARK    1  A    between atoms: N_9  and  C_10
REMARK                            x       y       z     vdW  Elec       q    Type
REMARK                         _______ _______ _______ _____ _____    ______ ____
ROOT
ATOM      1  C   UNL     1       6.528   4.160  13.506  0.00  0.00    +0.000 A 
ATOM      2  C   UNL     1       5.165   4.249  13.747  0.00  0.00    +0.000 A 
ATOM      3  C   UNL     1       4.730   4.484  15.047  0.00  0.00    +0.000 A 
ATOM      4  C   UNL     1       5.651   4.577  16.138  0.00  0.00    +0.000 A 
ATOM      5  C   UNL     1       5.286   4.826  17.474  0.00  0.00    +0.000 A 
ATOM      6  N   UNL     1       3.954   5.103  17.817  0.00  0.00    +0.000 N 
ATOM      7  C   UNL     1       3.836   5.962  19.009  0.00  0.00    +0.000 C 
ATOM      8  C   UNL     1       2.378   6.440  19.198  0.00  0.00    +0.000 C 
ATOM      9  N   UNL     1       1.331   5.375  19.181  0.00  0.00    +0.000 NA
ATOM     10  C   UNL     1       1.544   4.595  17.931  0.00  0.00    +0.000 C 
ATOM     11  C   UNL     1       2.970   4.005  17.749  0.00  0.00    +0.000 C 
ATOM     12  N   UNL     1       6.226   4.958  18.431  0.00  0.00    +0.000 NA
ATOM     13  C   UNL     1       7.506   4.855  18.061  0.00  0.00    +0.000 A 
ATOM     14  N   UNL     1       7.953   4.619  16.823  0.00  0.00    +0.000 NA
ATOM     15  C   UNL     1       7.018   4.487  15.874  0.00  0.00    +0.000 A 
ATOM     16  C   UNL     1       7.433   4.295  14.558  0.00  0.00    +0.000 A 
ENDROOT
BRANCH   9  17
ATOM     17  C   UNL     1       1.329   4.582  20.421  0.00  0.00    +0.000 C 
ATOM     18  C   UNL     1       0.737   3.177  20.215  0.00  0.00    +0.000 C 
ATOM     19  C   UNL     1       1.211   2.374  21.413  0.00  0.00    +0.000 C 
ATOM     20  C   UNL     1       2.601   2.906  21.721  0.00  0.00    +0.000 C 
ATOM     21  C   UNL     1       2.688   4.305  21.098  0.00  0.00    +0.000 C 
ENDBRANCH   9  17
TORSDOF 1
ENDMDL
MODEL 7
REMARK VINA RESULT:      -6.5      3.378      7.794
REMARK  Name = 
REMARK  1 active torsions:
REMARK  status: ('A' for Active; 'I' for Inactive)
REMARK    1  A    between atoms: N_9  and  C_10
REMARK                            x       y       z     vdW  Elec       q    Type
REMARK                         _______ _______ _______ _____ _____    ______ ____
ROOT
ATOM      1  C   UNL     1       2.843   3.608  20.395  0.00  0.00    +0.000 A 
ATOM      2  C   UNL     1       1.841   4.430  20.892  0.00  0.00    +0.000 A 
ATOM      3  C   UNL     1       1.707   5.710  20.366  0.00  0.00    +0.000 A 
ATOM      4  C   UNL     1       2.609   6.210  19.375  0.00  0.00    +0.000 A 
ATOM      5  C   UNL     1       2.528   7.487  18.790  0.00  0.00    +0.000 A 
ATOM      6  N   UNL     1       1.457   8.347  19.084  0.00  0.00    +0.000 N 
ATOM      7  C   UNL     1       1.141   9.267  17.977  0.00  0.00    +0.000 C 
ATOM      8  C   UNL     1      -0.186  10.013  18.246  0.00  0.00    +0.000 C 
ATOM      9  N   UNL     1      -0.301  10.688  19.574  0.00  0.00    +0.000 NA
ATOM     10  C   UNL     1       0.021   9.658  20.599  0.00  0.00    +0.000 C 
ATOM     11  C   UNL     1       1.396   8.955  20.427  0.00  0.00    +0.000 C 
ATOM     12  N   UNL     1       3.385   7.855  17.817  0.00  0.00    +0.000 NA
ATOM     13  C   UNL     1       4.301   6.963  17.429  0.00  0.00    +0.000 A 
ATOM     14  N   UNL     1       4.460   5.730  17.922  0.00  0.00    +0.000 NA
ATOM     15  C   UNL     1       3.608   5.367  18.888  0.00  0.00    +0.000 A 
ATOM     16  C   UNL     1       3.698   4.074  19.398  0.00  0.00    +0.000 A 
ENDROOT
BRANCH   9  17
ATOM     17  C   UNL     1       0.509  11.915  19.642  0.00  0.00    +0.000 C 
ATOM     18  C   UNL     1       0.190  12.892  18.497  0.00  0.00    +0.000 C 
ATOM     19  C   UNL     1       0.747  14.228  18.957  0.00  0.00    +0.000 C 
ATOM     20  C   UNL     1       0.534  14.248  20.461  0.00  0.00    +0.000 C 
ATOM     21  C   UNL     1       0.382  12.789  20.908  0.00  0.00    +0.000 C 
ENDBRANCH   9  17
TORSDOF 1
ENDMDL
MODEL 8
REMARK VINA RESULT:      -6.2      3.176      5.736
REMARK  Name = 
REMARK  1 active torsions:
REMARK  status: ('A' for Active; 'I' for Inactive)
REMARK    1  A    between atoms: N_9  and  C_10
REMARK                            x       y       z     vdW  Elec       q    Type
REMARK                         _______ _______ _______ _____ _____    ______ ____
ROOT
ATOM      1  C   UNL     1      -1.909  11.648  19.159  0.00  0.00    +0.000 A 
ATOM      2  C   UNL     1      -1.294  10.956  18.126  0.00  0.00    +0.000 A 
ATOM      3  C   UNL     1      -0.280  10.057  18.435  0.00  0.00    +0.000 A 
ATOM      4  C   UNL     1       0.176   9.878  19.779  0.00  0.00    +0.000 A 
ATOM      5  C   UNL     1       1.187   8.978  20.168  0.00  0.00    +0.000 A 
ATOM      6  N   UNL     1       1.765   8.100  19.239  0.00  0.00    +0.000 N 
ATOM      7  C   UNL     1       2.246   6.850  19.856  0.00  0.00    +0.000 C 
ATOM      8  C   UNL     1       2.642   5.821  18.771  0.00  0.00    +0.000 C 
ATOM      9  N   UNL     1       3.578   6.309  17.714  0.00  0.00    +0.000 NA
ATOM     10  C   UNL     1       2.975   7.554  17.162  0.00  0.00    +0.000 C 
ATOM     11  C   UNL     1       2.657   8.660  18.206  0.00  0.00    +0.000 C 
ATOM     12  N   UNL     1       1.513   8.829  21.468  0.00  0.00    +0.000 NA
ATOM     13  C   UNL     1       0.837   9.556  22.363  0.00  0.00    +0.000 A 
ATOM     14  N   UNL     1      -0.134  10.435  22.095  0.00  0.00    +0.000 NA
ATOM     15  C   UNL     1      -0.456  10.582  20.804  0.00  0.00    +0.000 A 
ATOM     16  C   UNL     1      -1.499  11.445  20.476  0.00  0.00    +0.000 A 
ENDROOT
BRANCH   9  17
ATOM     17  C   UNL     1       4.955   6.450  18.216  0.00  0.00    +0.000 C 
ATOM     18  C   UNL     1       5.521   5.122  18.747  0.00  0.00    +0.000 C 
ATOM     19  C   UNL     1       7.025   5.329  18.792  0.00  0.00    +0.000 C 
ATOM     20  C   UNL     1       7.338   6.215  17.598  0.00  0.00    +0.000 C 
ATOM     21  C   UNL     1       6.034   6.931  17.224  0.00  0.00    +0.000 C 
ENDBRANCH   9  17
TORSDOF 1
ENDMDL
MODEL 9
REMARK VINA RESULT:      -6.2      1.620      1.912
REMARK  Name = 
REMARK  1 active torsions:
REMARK  status: ('A' for Active; 'I' for Inactive)
REMARK    1  A    between atoms: N_9  and  C_10
REMARK                            x       y       z     vdW  Elec       q    Type
REMARK                         _______ _______ _______ _____ _____    ______ ____
ROOT
ATOM      1  C   UNL     1       3.069   2.195  21.406  0.00  0.00    +0.000 A 
ATOM      2  C   UNL     1       4.340   2.226  20.852  0.00  0.00    +0.000 A 
ATOM      3  C   UNL     1       4.552   2.987  19.707  0.00  0.00    +0.000 A 
ATOM      4  C   UNL     1       3.481   3.683  19.064  0.00  0.00    +0.000 A 
ATOM      5  C   UNL     1       3.621   4.481  17.913  0.00  0.00    +0.000 A 
ATOM      6  N   UNL     1       4.888   4.729  17.360  0.00  0.00    +0.000 N 
ATOM      7  C   UNL     1       4.962   6.024  16.659  0.00  0.00    +0.000 C 
ATOM      8  C   UNL     1       6.425   6.362  16.288  0.00  0.00    +0.000 C 
ATOM      9  N   UNL     1       7.179   5.298  15.561  0.00  0.00    +0.000 NA
ATOM     10  C   UNL     1       7.043   4.057  16.371  0.00  0.00    +0.000 C 
ATOM     11  C   UNL     1       5.585   3.620  16.680  0.00  0.00    +0.000 C 
ATOM     12  N   UNL     1       2.568   5.152  17.407  0.00  0.00    +0.000 NA
ATOM     13  C   UNL     1       1.397   5.038  18.043  0.00  0.00    +0.000 A 
ATOM     14  N   UNL     1       1.162   4.307  19.137  0.00  0.00    +0.000 NA
ATOM     15  C   UNL     1       2.210   3.640  19.638  0.00  0.00    +0.000 A 
ATOM     16  C   UNL     1       2.030   2.907  20.808  0.00  0.00    +0.000 A 
ENDROOT
BRANCH   9  17
ATOM     17  C   UNL     1       6.753   5.179  14.156  0.00  0.00    +0.000 C 
ATOM     18  C   UNL     1       7.935   5.270  13.177  0.00  0.00    +0.000 C 
ATOM     19  C   UNL     1       7.408   4.694  11.874  0.00  0.00    +0.000 C 
ATOM     20  C   UNL     1       6.456   3.585  12.289  0.00  0.00    +0.000 C 
ATOM     21  C   UNL     1       6.033   3.881  13.733  0.00  0.00    +0.000 C 
ENDBRANCH   9  17
TORSDOF 1
ENDMDL
