MODEL 1
REMARK VINA RESULT:      -8.4      0.000      0.000
REMARK  Name = 
REMARK  10 active torsions:
REMARK  status: ('A' for Active; 'I' for Inactive)
REMARK    1  A    between atoms: C_1  and  C_2
REMARK    2  A    between atoms: C_5  and  O_6
REMARK    3  A    between atoms: O_6  and  C_7
REMARK    4  A    between atoms: C_7  and  C_8
REMARK    5  A    between atoms: C_13  and  N_14
REMARK    6  A    between atoms: C_16  and  C_17
REMARK    7  A    between atoms: C_26  and  C_27
REMARK    8  A    between atoms: C_27  and  C_28
REMARK    9  A    between atoms: C_27  and  C_29
REMARK   10  A    between atoms: C_27  and  C_30
REMARK                            x       y       z     vdW  Elec       q    Type
REMARK                         _______ _______ _______ _____ _____    ______ ____
ROOT
ATOM      1  C   UNL     1       2.099   8.717  18.169  0.00  0.00    +0.000 C 
ATOM      2  O   UNL     1       2.687   9.149  17.172  0.00  0.00    +0.000 OA
ATOM      3  N   UNL     1       1.380   9.556  19.010  0.00  0.00    +0.000 N 
ATOM      4  C   UNL     1       1.104  10.921  18.562  0.00  0.00    +0.000 C 
ATOM      5  C   UNL     1       1.303  11.935  19.680  0.00  0.00    +0.000 C 
ATOM      6  C   UNL     1       0.581  11.545  20.976  0.00  0.00    +0.000 C 
ATOM      7  C   UNL     1       0.839  10.081  21.350  0.00  0.00    +0.000 C 
ATOM      8  C   UNL     1       0.636   9.117  20.186  0.00  0.00    +0.000 C 
ENDROOT
BRANCH   6   9
ATOM      9  N   UNL     1      -0.857  11.873  20.938  0.00  0.00    +0.000 N 
ATOM     10  N   UNL     1      -1.492  11.722  19.725  0.00  0.00    +0.000 NA
ATOM     11  C   UNL     1      -2.743  12.024  19.665  0.00  0.00    +0.000 A 
ATOM     12  C   UNL     1      -3.567  12.514  20.769  0.00  0.00    +0.000 A 
ATOM     13  C   UNL     1      -2.944  12.631  21.951  0.00  0.00    +0.000 A 
ATOM     14  C   UNL     1      -1.512  12.283  22.096  0.00  0.00    +0.000 A 
ATOM     15  O   UNL     1      -0.995  12.387  23.208  0.00  0.00    +0.000 OA
BRANCH  11  16
ATOM     16  C   UNL     1      -3.420  11.836  18.361  0.00  0.00    +0.000 C 
ATOM     17  C   UNL     1      -2.684  11.311  17.152  0.00  0.00    +0.000 C 
ATOM     18  C   UNL     1      -3.679  10.435  17.851  0.00  0.00    +0.000 C 
ENDBRANCH  11  16
ENDBRANCH   6   9
BRANCH   1  19
ATOM     19  C   UNL     1       2.060   7.201  18.418  0.00  0.00    +0.000 C 
BRANCH  19  20
ATOM     20  O   UNL     1       3.224   6.532  18.904  0.00  0.00    +0.000 OA
BRANCH  20  25
ATOM     21  C   UNL     1       6.013   4.056  14.573  0.00  0.00    +0.000 C 
ATOM     22  C   UNL     1       5.327   4.714  15.730  0.00  0.00    +0.000 A 
ATOM     23  C   UNL     1       5.576   6.029  16.061  0.00  0.00    +0.000 A 
ATOM     24  C   UNL     1       4.900   6.603  17.135  0.00  0.00    +0.000 A 
ATOM     25  C   UNL     1       3.969   5.889  17.930  0.00  0.00    +0.000 A 
ATOM     26  C   UNL     1       3.785   4.511  17.683  0.00  0.00    +0.000 A 
ATOM     27  C   UNL     1       4.432   3.988  16.523  0.00  0.00    +0.000 A 
BRANCH  26  28
ATOM     28  C   UNL     1       2.886   3.517  18.464  0.00  0.00    +0.000 C 
ATOM     29  C   UNL     1       3.203   2.096  17.940  0.00  0.00    +0.000 C 
ATOM     30  C   UNL     1       3.149   3.591  20.010  0.00  0.00    +0.000 C 
ATOM     31  C   UNL     1       1.358   3.723  18.349  0.00  0.00    +0.000 C 
ENDBRANCH  26  28
ENDBRANCH  20  25
ENDBRANCH  19  20
ENDBRANCH   1  19
TORSDOF 6
ENDMDL
MODEL 2
REMARK VINA RESULT:      -8.3      1.992      3.364
REMARK  Name = 
REMARK  10 active torsions:
REMARK  status: ('A' for Active; 'I' for Inactive)
REMARK    1  A    between atoms: C_1  and  C_2
REMARK    2  A    between atoms: C_5  and  O_6
REMARK    3  A    between atoms: O_6  and  C_7
REMARK    4  A    between atoms: C_7  and  C_8
REMARK    5  A    between atoms: C_13  and  N_14
REMARK    6  A    between atoms: C_16  and  C_17
REMARK    7  A    between atoms: C_26  and  C_27
REMARK    8  A    between atoms: C_27  and  C_28
REMARK    9  A    between atoms: C_27  and  C_29
REMARK   10  A    between atoms: C_27  and  C_30
REMARK                            x       y       z     vdW  Elec       q    Type
REMARK                         _______ _______ _______ _____ _____    ______ ____
ROOT
ATOM      1  C   UNL     1       1.756   7.917  20.005  0.00  0.00    +0.000 C 
ATOM      2  O   UNL     1       1.810   7.448  21.147  0.00  0.00    +0.000 OA
ATOM      3  N   UNL     1       1.115   9.120  19.742  0.00  0.00    +0.000 N 
ATOM      4  C   UNL     1       0.728   9.964  20.872  0.00  0.00    +0.000 C 
ATOM      5  C   UNL     1      -0.665  10.551  20.688  0.00  0.00    +0.000 C 
ATOM      6  C   UNL     1      -0.858  11.214  19.319  0.00  0.00    +0.000 C 
ATOM      7  C   UNL     1      -0.357  10.319  18.180  0.00  0.00    +0.000 C 
ATOM      8  C   UNL     1       1.036   9.751  18.429  0.00  0.00    +0.000 C 
ENDROOT
BRANCH   6   9
ATOM      9  N   UNL     1      -0.281  12.571  19.265  0.00  0.00    +0.000 N 
ATOM     10  N   UNL     1       0.961  12.691  18.682  0.00  0.00    +0.000 NA
ATOM     11  C   UNL     1       1.493  13.864  18.646  0.00  0.00    +0.000 A 
ATOM     12  C   UNL     1       0.902  15.096  19.164  0.00  0.00    +0.000 A 
ATOM     13  C   UNL     1      -0.320  14.971  19.706  0.00  0.00    +0.000 A 
ATOM     14  C   UNL     1      -0.997  13.656  19.763  0.00  0.00    +0.000 A 
ATOM     15  O   UNL     1      -2.126  13.601  20.250  0.00  0.00    +0.000 OA
BRANCH  11  16
ATOM     16  C   UNL     1       2.818  13.984  17.995  0.00  0.00    +0.000 C 
ATOM     17  C   UNL     1       3.415  15.327  17.651  0.00  0.00    +0.000 C 
ATOM     18  C   UNL     1       3.989  14.529  18.782  0.00  0.00    +0.000 C 
ENDBRANCH  11  16
ENDBRANCH   6   9
BRANCH   1  19
ATOM     19  C   UNL     1       2.519   7.215  18.870  0.00  0.00    +0.000 C 
BRANCH  19  20
ATOM     20  O   UNL     1       3.527   6.252  19.183  0.00  0.00    +0.000 OA
BRANCH  20  25
ATOM     21  C   UNL     1       5.855   4.219  14.375  0.00  0.00    +0.000 C 
ATOM     22  C   UNL     1       5.292   4.758  15.654  0.00  0.00    +0.000 A 
ATOM     23  C   UNL     1       5.598   6.027  16.097  0.00  0.00    +0.000 A 
ATOM     24  C   UNL     1       5.036   6.491  17.283  0.00  0.00    +0.000 A 
ATOM     25  C   UNL     1       4.166   5.708  18.081  0.00  0.00    +0.000 A 
ATOM     26  C   UNL     1       3.930   4.367  17.709  0.00  0.00    +0.000 A 
ATOM     27  C   UNL     1       4.457   3.963  16.445  0.00  0.00    +0.000 A 
BRANCH  26  28
ATOM     28  C   UNL     1       3.084   3.306  18.461  0.00  0.00    +0.000 C 
ATOM     29  C   UNL     1       1.594   3.610  18.170  0.00  0.00    +0.000 C 
ATOM     30  C   UNL     1       3.436   1.848  17.997  0.00  0.00    +0.000 C 
ATOM     31  C   UNL     1       3.252   3.245  19.997  0.00  0.00    +0.000 C 
ENDBRANCH  26  28
ENDBRANCH  20  25
ENDBRANCH  19  20
ENDBRANCH   1  19
TORSDOF 6
ENDMDL
MODEL 3
REMARK VINA RESULT:      -8.1      0.965      1.402
REMARK  Name = 
REMARK  10 active torsions:
REMARK  status: ('A' for Active; 'I' for Inactive)
REMARK    1  A    between atoms: C_1  and  C_2
REMARK    2  A    between atoms: C_5  and  O_6
REMARK    3  A    between atoms: O_6  and  C_7
REMARK    4  A    between atoms: C_7  and  C_8
REMARK    5  A    between atoms: C_13  and  N_14
REMARK    6  A    between atoms: C_16  and  C_17
REMARK    7  A    between atoms: C_26  and  C_27
REMARK    8  A    between atoms: C_27  and  C_28
REMARK    9  A    between atoms: C_27  and  C_29
REMARK   10  A    between atoms: C_27  and  C_30
REMARK                            x       y       z     vdW  Elec       q    Type
REMARK                         _______ _______ _______ _____ _____    ______ ____
ROOT
ATOM      1  C   UNL     1       2.515   7.868  18.530  0.00  0.00    +0.000 C 
ATOM      2  O   UNL     1       3.176   7.944  17.489  0.00  0.00    +0.000 OA
ATOM      3  N   UNL     1       1.689   8.904  18.945  0.00  0.00    +0.000 N 
ATOM      4  C   UNL     1       1.404   9.986  18.003  0.00  0.00    +0.000 C 
ATOM      5  C   UNL     1       1.459  11.351  18.675  0.00  0.00    +0.000 C 
ATOM      6  C   UNL     1       0.636  11.414  19.968  0.00  0.00    +0.000 C 
ATOM      7  C   UNL     1       0.914  10.212  20.876  0.00  0.00    +0.000 C 
ATOM      8  C   UNL     1       0.857   8.876  20.143  0.00  0.00    +0.000 C 
ENDROOT
BRANCH   6   9
ATOM      9  N   UNL     1      -0.804  11.603  19.707  0.00  0.00    +0.000 N 
ATOM     10  N   UNL     1      -1.318  10.972  18.597  0.00  0.00    +0.000 NA
ATOM     11  C   UNL     1      -2.569  11.143  18.338  0.00  0.00    +0.000 A 
ATOM     12  C   UNL     1      -3.509  11.946  19.118  0.00  0.00    +0.000 A 
ATOM     13  C   UNL     1      -3.003  12.534  20.212  0.00  0.00    +0.000 A 
ATOM     14  C   UNL     1      -1.578  12.365  20.579  0.00  0.00    +0.000 A 
ATOM     15  O   UNL     1      -1.171  12.907  21.605  0.00  0.00    +0.000 OA
BRANCH  11  16
ATOM     16  C   UNL     1      -3.115  10.440  17.155  0.00  0.00    +0.000 C 
ATOM     17  C   UNL     1      -4.208  11.045  16.306  0.00  0.00    +0.000 C 
ATOM     18  C   UNL     1      -2.811  10.965  15.769  0.00  0.00    +0.000 C 
ENDBRANCH  11  16
ENDBRANCH   6   9
BRANCH   1  19
ATOM     19  C   UNL     1       2.512   6.550  19.321  0.00  0.00    +0.000 C 
BRANCH  19  20
ATOM     20  O   UNL     1       3.747   5.898  19.620  0.00  0.00    +0.000 OA
BRANCH  20  25
ATOM     21  C   UNL     1       6.133   3.897  14.827  0.00  0.00    +0.000 C 
ATOM     22  C   UNL     1       5.554   4.421  16.104  0.00  0.00    +0.000 A 
ATOM     23  C   UNL     1       5.977   5.614  16.651  0.00  0.00    +0.000 A 
ATOM     24  C   UNL     1       5.396   6.069  17.831  0.00  0.00    +0.000 A 
ATOM     25  C   UNL     1       4.390   5.350  18.522  0.00  0.00    +0.000 A 
ATOM     26  C   UNL     1       4.023   4.072  18.045  0.00  0.00    +0.000 A 
ATOM     27  C   UNL     1       4.581   3.686  16.789  0.00  0.00    +0.000 A 
BRANCH  26  28
ATOM     28  C   UNL     1       3.011   3.078  18.673  0.00  0.00    +0.000 C 
ATOM     29  C   UNL     1       1.603   3.463  18.157  0.00  0.00    +0.000 C 
ATOM     30  C   UNL     1       3.339   1.593  18.282  0.00  0.00    +0.000 C 
ATOM     31  C   UNL     1       2.943   3.037  20.217  0.00  0.00    +0.000 C 
ENDBRANCH  26  28
ENDBRANCH  20  25
ENDBRANCH  19  20
ENDBRANCH   1  19
TORSDOF 6
ENDMDL
MODEL 4
REMARK VINA RESULT:      -7.9      1.776      3.094
REMARK  Name = 
REMARK  10 active torsions:
REMARK  status: ('A' for Active; 'I' for Inactive)
REMARK    1  A    between atoms: C_1  and  C_2
REMARK    2  A    between atoms: C_5  and  O_6
REMARK    3  A    between atoms: O_6  and  C_7
REMARK    4  A    between atoms: C_7  and  C_8
REMARK    5  A    between atoms: C_13  and  N_14
REMARK    6  A    between atoms: C_16  and  C_17
REMARK    7  A    between atoms: C_26  and  C_27
REMARK    8  A    between atoms: C_27  and  C_28
REMARK    9  A    between atoms: C_27  and  C_29
REMARK   10  A    between atoms: C_27  and  C_30
REMARK                            x       y       z     vdW  Elec       q    Type
REMARK                         _______ _______ _______ _____ _____    ______ ____
ROOT
ATOM      1  C   UNL     1       1.714   7.829  20.294  0.00  0.00    +0.000 C 
ATOM      2  O   UNL     1       1.856   7.044  21.238  0.00  0.00    +0.000 OA
ATOM      3  N   UNL     1       1.137   9.079  20.468  0.00  0.00    +0.000 N 
ATOM      4  C   UNL     1       0.934   9.569  21.831  0.00  0.00    +0.000 C 
ATOM      5  C   UNL     1      -0.424  10.236  21.997  0.00  0.00    +0.000 C 
ATOM      6  C   UNL     1      -0.715  11.278  20.910  0.00  0.00    +0.000 C 
ATOM      7  C   UNL     1      -0.404  10.738  19.509  0.00  0.00    +0.000 C 
ATOM      8  C   UNL     1       0.963  10.070  19.410  0.00  0.00    +0.000 C 
ENDROOT
BRANCH   6   9
ATOM      9  N   UNL     1      -0.051  12.568  21.176  0.00  0.00    +0.000 N 
ATOM     10  N   UNL     1       1.040  12.874  20.394  0.00  0.00    +0.000 NA
ATOM     11  C   UNL     1       1.649  13.986  20.626  0.00  0.00    +0.000 A 
ATOM     12  C   UNL     1       1.290  14.969  21.647  0.00  0.00    +0.000 A 
ATOM     13  C   UNL     1       0.210  14.672  22.385  0.00  0.00    +0.000 A 
ATOM     14  C   UNL     1      -0.548  13.420  22.159  0.00  0.00    +0.000 A 
ATOM     15  O   UNL     1      -1.544  13.208  22.849  0.00  0.00    +0.000 OA
BRANCH  11  16
ATOM     16  C   UNL     1       2.806  14.315  19.762  0.00  0.00    +0.000 C 
ATOM     17  C   UNL     1       2.988  13.683  18.403  0.00  0.00    +0.000 C 
ATOM     18  C   UNL     1       2.591  15.124  18.503  0.00  0.00    +0.000 C 
ENDBRANCH  11  16
ENDBRANCH   6   9
BRANCH   1  19
ATOM     19  C   UNL     1       2.299   7.462  18.920  0.00  0.00    +0.000 C 
BRANCH  19  20
ATOM     20  O   UNL     1       2.177   6.126  18.430  0.00  0.00    +0.000 OA
BRANCH  20  25
ATOM     21  C   UNL     1       6.530   4.219  15.255  0.00  0.00    +0.000 C 
ATOM     22  C   UNL     1       5.423   4.745  16.115  0.00  0.00    +0.000 A 
ATOM     23  C   UNL     1       5.187   6.098  16.239  0.00  0.00    +0.000 A 
ATOM     24  C   UNL     1       4.134   6.538  17.036  0.00  0.00    +0.000 A 
ATOM     25  C   UNL     1       3.290   5.656  17.755  0.00  0.00    +0.000 A 
ATOM     26  C   UNL     1       3.584   4.274  17.736  0.00  0.00    +0.000 A 
ATOM     27  C   UNL     1       4.616   3.862  16.841  0.00  0.00    +0.000 A 
BRANCH  26  28
ATOM     28  C   UNL     1       2.855   3.138  18.500  0.00  0.00    +0.000 C 
ATOM     29  C   UNL     1       3.457   1.796  18.019  0.00  0.00    +0.000 C 
ATOM     30  C   UNL     1       3.030   3.279  20.054  0.00  0.00    +0.000 C 
ATOM     31  C   UNL     1       1.322   3.048  18.317  0.00  0.00    +0.000 C 
ENDBRANCH  26  28
ENDBRANCH  20  25
ENDBRANCH  19  20
ENDBRANCH   1  19
TORSDOF 6
ENDMDL
MODEL 5
REMARK VINA RESULT:      -7.8      0.897      2.534
REMARK  Name = 
REMARK  10 active torsions:
REMARK  status: ('A' for Active; 'I' for Inactive)
REMARK    1  A    between atoms: C_1  and  C_2
REMARK    2  A    between atoms: C_5  and  O_6
REMARK    3  A    between atoms: O_6  and  C_7
REMARK    4  A    between atoms: C_7  and  C_8
REMARK    5  A    between atoms: C_13  and  N_14
REMARK    6  A    between atoms: C_16  and  C_17
REMARK    7  A    between atoms: C_26  and  C_27
REMARK    8  A    between atoms: C_27  and  C_28
REMARK    9  A    between atoms: C_27  and  C_29
REMARK   10  A    between atoms: C_27  and  C_30
REMARK                            x       y       z     vdW  Elec       q    Type
REMARK                         _______ _______ _______ _____ _____    ______ ____
ROOT
ATOM      1  C   UNL     1       1.943   9.578  18.262  0.00  0.00    +0.000 C 
ATOM      2  O   UNL     1       2.603  10.180  17.408  0.00  0.00    +0.000 OA
ATOM      3  N   UNL     1       1.064  10.245  19.105  0.00  0.00    +0.000 N 
ATOM      4  C   UNL     1       0.728  11.636  18.803  0.00  0.00    +0.000 C 
ATOM      5  C   UNL     1       0.713  12.500  20.056  0.00  0.00    +0.000 C 
ATOM      6  C   UNL     1      -0.118  11.890  21.192  0.00  0.00    +0.000 C 
ATOM      7  C   UNL     1       0.218  10.410  21.407  0.00  0.00    +0.000 C 
ATOM      8  C   UNL     1       0.231   9.601  20.115  0.00  0.00    +0.000 C 
ENDROOT
BRANCH   6   9
ATOM      9  N   UNL     1      -1.564  12.121  21.017  0.00  0.00    +0.000 N 
ATOM     10  N   UNL     1      -2.072  11.924  19.752  0.00  0.00    +0.000 NA
ATOM     11  C   UNL     1      -3.329  12.142  19.573  0.00  0.00    +0.000 A 
ATOM     12  C   UNL     1      -4.283  12.580  20.590  0.00  0.00    +0.000 A 
ATOM     13  C   UNL     1      -3.782  12.743  21.824  0.00  0.00    +0.000 A 
ATOM     14  C   UNL     1      -2.350  12.492  22.105  0.00  0.00    +0.000 A 
ATOM     15  O   UNL     1      -1.947  12.634  23.259  0.00  0.00    +0.000 OA
BRANCH  11  16
ATOM     16  C   UNL     1      -3.868  11.903  18.214  0.00  0.00    +0.000 C 
ATOM     17  C   UNL     1      -3.322  10.813  17.323  0.00  0.00    +0.000 C 
ATOM     18  C   UNL     1      -4.677  10.655  17.941  0.00  0.00    +0.000 C 
ENDBRANCH  11  16
ENDBRANCH   6   9
BRANCH   1  19
ATOM     19  C   UNL     1       2.003   8.043  18.310  0.00  0.00    +0.000 C 
BRANCH  19  20
ATOM     20  O   UNL     1       3.173   7.364  17.851  0.00  0.00    +0.000 OA
BRANCH  20  25
ATOM     21  C   UNL     1       3.007   1.693  18.544  0.00  0.00    +0.000 C 
ATOM     22  C   UNL     1       3.008   3.176  18.335  0.00  0.00    +0.000 A 
ATOM     23  C   UNL     1       1.950   3.961  18.741  0.00  0.00    +0.000 A 
ATOM     24  C   UNL     1       2.005   5.338  18.540  0.00  0.00    +0.000 A 
ATOM     25  C   UNL     1       3.099   5.982  17.914  0.00  0.00    +0.000 A 
ATOM     26  C   UNL     1       4.141   5.188  17.386  0.00  0.00    +0.000 A 
ATOM     27  C   UNL     1       4.084   3.794  17.689  0.00  0.00    +0.000 A 
BRANCH  26  28
ATOM     28  C   UNL     1       5.391   5.660  16.599  0.00  0.00    +0.000 C 
ATOM     29  C   UNL     1       6.344   6.342  17.610  0.00  0.00    +0.000 C 
ATOM     30  C   UNL     1       6.121   4.461  15.897  0.00  0.00    +0.000 C 
ATOM     31  C   UNL     1       5.149   6.660  15.445  0.00  0.00    +0.000 C 
ENDBRANCH  26  28
ENDBRANCH  20  25
ENDBRANCH  19  20
ENDBRANCH   1  19
TORSDOF 6
ENDMDL
MODEL 6
REMARK VINA RESULT:      -7.8      1.277      2.848
REMARK  Name = 
REMARK  10 active torsions:
REMARK  status: ('A' for Active; 'I' for Inactive)
REMARK    1  A    between atoms: C_1  and  C_2
REMARK    2  A    between atoms: C_5  and  O_6
REMARK    3  A    between atoms: O_6  and  C_7
REMARK    4  A    between atoms: C_7  and  C_8
REMARK    5  A    between atoms: C_13  and  N_14
REMARK    6  A    between atoms: C_16  and  C_17
REMARK    7  A    between atoms: C_26  and  C_27
REMARK    8  A    between atoms: C_27  and  C_28
REMARK    9  A    between atoms: C_27  and  C_29
REMARK   10  A    between atoms: C_27  and  C_30
REMARK                            x       y       z     vdW  Elec       q    Type
REMARK                         _______ _______ _______ _____ _____    ______ ____
ROOT
ATOM      1  C   UNL     1       1.811   9.958  18.195  0.00  0.00    +0.000 C 
ATOM      2  O   UNL     1       2.497  10.659  17.443  0.00  0.00    +0.000 OA
ATOM      3  N   UNL     1       0.906  10.518  19.087  0.00  0.00    +0.000 N 
ATOM      4  C   UNL     1       0.578  11.936  18.947  0.00  0.00    +0.000 C 
ATOM      5  C   UNL     1       0.522  12.639  20.296  0.00  0.00    +0.000 C 
ATOM      6  C   UNL     1      -0.344  11.896  21.322  0.00  0.00    +0.000 C 
ATOM      7  C   UNL     1      -0.013  10.400  21.363  0.00  0.00    +0.000 C 
ATOM      8  C   UNL     1       0.041   9.756  19.982  0.00  0.00    +0.000 C 
ENDROOT
BRANCH   6   9
ATOM      9  N   UNL     1      -1.784  12.151  21.131  0.00  0.00    +0.000 N 
ATOM     10  N   UNL     1      -2.275  11.994  19.854  0.00  0.00    +0.000 NA
ATOM     11  C   UNL     1      -3.526  12.233  19.661  0.00  0.00    +0.000 A 
ATOM     12  C   UNL     1      -4.490  12.658  20.675  0.00  0.00    +0.000 A 
ATOM     13  C   UNL     1      -4.005  12.782  21.920  0.00  0.00    +0.000 A 
ATOM     14  C   UNL     1      -2.581  12.504  22.216  0.00  0.00    +0.000 A 
ATOM     15  O   UNL     1      -2.195  12.611  23.380  0.00  0.00    +0.000 OA
BRANCH  11  16
ATOM     16  C   UNL     1      -4.047  12.037  18.289  0.00  0.00    +0.000 C 
ATOM     17  C   UNL     1      -3.535  10.933  17.395  0.00  0.00    +0.000 C 
ATOM     18  C   UNL     1      -4.909  10.832  17.983  0.00  0.00    +0.000 C 
ENDBRANCH  11  16
ENDBRANCH   6   9
BRANCH   1  19
ATOM     19  C   UNL     1       1.872   8.428  18.056  0.00  0.00    +0.000 C 
BRANCH  19  20
ATOM     20  O   UNL     1       3.058   7.728  18.432  0.00  0.00    +0.000 OA
BRANCH  20  25
ATOM     21  C   UNL     1       2.370   2.929  21.459  0.00  0.00    +0.000 C 
ATOM     22  C   UNL     1       2.503   4.181  20.648  0.00  0.00    +0.000 A 
ATOM     23  C   UNL     1       1.649   5.248  20.826  0.00  0.00    +0.000 A 
ATOM     24  C   UNL     1       1.824   6.397  20.060  0.00  0.00    +0.000 A 
ATOM     25  C   UNL     1       2.837   6.523  19.078  0.00  0.00    +0.000 A 
ATOM     26  C   UNL     1       3.650   5.402  18.798  0.00  0.00    +0.000 A 
ATOM     27  C   UNL     1       3.491   4.278  19.663  0.00  0.00    +0.000 A 
BRANCH  26  28
ATOM     28  C   UNL     1       4.761   5.280  17.723  0.00  0.00    +0.000 C 
ATOM     29  C   UNL     1       6.123   5.394  18.451  0.00  0.00    +0.000 C 
ATOM     30  C   UNL     1       4.676   3.914  16.954  0.00  0.00    +0.000 C 
ATOM     31  C   UNL     1       4.753   6.333  16.591  0.00  0.00    +0.000 C 
ENDBRANCH  26  28
ENDBRANCH  20  25
ENDBRANCH  19  20
ENDBRANCH   1  19
TORSDOF 6
ENDMDL
MODEL 7
REMARK VINA RESULT:      -7.7      1.679      3.139
REMARK  Name = 
REMARK  10 active torsions:
REMARK  status: ('A' for Active; 'I' for Inactive)
REMARK    1  A    between atoms: C_1  and  C_2
REMARK    2  A    between atoms: C_5  and  O_6
REMARK    3  A    between atoms: O_6  and  C_7
REMARK    4  A    between atoms: C_7  and  C_8
REMARK    5  A    between atoms: C_13  and  N_14
REMARK    6  A    between atoms: C_16  and  C_17
REMARK    7  A    between atoms: C_26  and  C_27
REMARK    8  A    between atoms: C_27  and  C_28
REMARK    9  A    between atoms: C_27  and  C_29
REMARK   10  A    between atoms: C_27  and  C_30
REMARK                            x       y       z     vdW  Elec       q    Type
REMARK                         _______ _______ _______ _____ _____    ______ ____
ROOT
ATOM      1  C   UNL     1       1.176   9.274  19.182  0.00  0.00    +0.000 C 
ATOM      2  O   UNL     1       1.563   9.198  18.011  0.00  0.00    +0.000 OA
ATOM      3  N   UNL     1       0.254  10.232  19.583  0.00  0.00    +0.000 N 
ATOM      4  C   UNL     1      -0.458  10.987  18.553  0.00  0.00    +0.000 C 
ATOM      5  C   UNL     1      -0.557  12.466  18.903  0.00  0.00    +0.000 C 
ATOM      6  C   UNL     1      -1.075  12.710  20.326  0.00  0.00    +0.000 C 
ATOM      7  C   UNL     1      -0.350  11.829  21.351  0.00  0.00    +0.000 C 
ATOM      8  C   UNL     1      -0.272  10.364  20.938  0.00  0.00    +0.000 C 
ENDROOT
BRANCH   6   9
ATOM      9  N   UNL     1      -2.542  12.591  20.418  0.00  0.00    +0.000 N 
ATOM     10  N   UNL     1      -3.194  12.119  19.301  0.00  0.00    +0.000 NA
ATOM     11  C   UNL     1      -4.478  12.029  19.352  0.00  0.00    +0.000 A 
ATOM     12  C   UNL     1      -5.323  12.379  20.493  0.00  0.00    +0.000 A 
ATOM     13  C   UNL     1      -4.674  12.812  21.585  0.00  0.00    +0.000 A 
ATOM     14  C   UNL     1      -3.198  12.922  21.601  0.00  0.00    +0.000 A 
ATOM     15  O   UNL     1      -2.652  13.303  22.636  0.00  0.00    +0.000 OA
BRANCH  11  16
ATOM     16  C   UNL     1      -5.166  11.498  18.153  0.00  0.00    +0.000 C 
ATOM     17  C   UNL     1      -6.663  11.603  17.984  0.00  0.00    +0.000 C 
ATOM     18  C   UNL     1      -5.761  12.458  17.147  0.00  0.00    +0.000 C 
ENDBRANCH  11  16
ENDBRANCH   6   9
BRANCH   1  19
ATOM     19  C   UNL     1       1.632   8.209  20.193  0.00  0.00    +0.000 C 
BRANCH  19  20
ATOM     20  O   UNL     1       2.727   7.350  19.872  0.00  0.00    +0.000 OA
BRANCH  20  25
ATOM     21  C   UNL     1       1.501   1.784  19.435  0.00  0.00    +0.000 C 
ATOM     22  C   UNL     1       1.776   3.253  19.531  0.00  0.00    +0.000 A 
ATOM     23  C   UNL     1       0.979   4.088  20.285  0.00  0.00    +0.000 A 
ATOM     24  C   UNL     1       1.286   5.444  20.357  0.00  0.00    +0.000 A 
ATOM     25  C   UNL     1       2.380   6.024  19.670  0.00  0.00    +0.000 A 
ATOM     26  C   UNL     1       3.141   5.212  18.800  0.00  0.00    +0.000 A 
ATOM     27  C   UNL     1       2.844   3.816  18.824  0.00  0.00    +0.000 A 
BRANCH  26  28
ATOM     28  C   UNL     1       4.325   5.638  17.894  0.00  0.00    +0.000 C 
ATOM     29  C   UNL     1       5.597   5.663  18.775  0.00  0.00    +0.000 C 
ATOM     30  C   UNL     1       4.522   4.647  16.693  0.00  0.00    +0.000 C 
ATOM     31  C   UNL     1       4.213   7.019  17.207  0.00  0.00    +0.000 C 
ENDBRANCH  26  28
ENDBRANCH  20  25
ENDBRANCH  19  20
ENDBRANCH   1  19
TORSDOF 6
ENDMDL
MODEL 8
REMARK VINA RESULT:      -7.6      2.138      4.035
REMARK  Name = 
REMARK  10 active torsions:
REMARK  status: ('A' for Active; 'I' for Inactive)
REMARK    1  A    between atoms: C_1  and  C_2
REMARK    2  A    between atoms: C_5  and  O_6
REMARK    3  A    between atoms: O_6  and  C_7
REMARK    4  A    between atoms: C_7  and  C_8
REMARK    5  A    between atoms: C_13  and  N_14
REMARK    6  A    between atoms: C_16  and  C_17
REMARK    7  A    between atoms: C_26  and  C_27
REMARK    8  A    between atoms: C_27  and  C_28
REMARK    9  A    between atoms: C_27  and  C_29
REMARK   10  A    between atoms: C_27  and  C_30
REMARK                            x       y       z     vdW  Elec       q    Type
REMARK                         _______ _______ _______ _____ _____    ______ ____
ROOT
ATOM      1  C   UNL     1       1.625   8.368  19.530  0.00  0.00    +0.000 C 
ATOM      2  O   UNL     1       1.962   7.844  20.598  0.00  0.00    +0.000 OA
ATOM      3  N   UNL     1       0.948   9.580  19.497  0.00  0.00    +0.000 N 
ATOM      4  C   UNL     1       0.864  10.365  20.728  0.00  0.00    +0.000 C 
ATOM      5  C   UNL     1      -0.525  10.954  20.930  0.00  0.00    +0.000 C 
ATOM      6  C   UNL     1      -1.052  11.682  19.688  0.00  0.00    +0.000 C 
ATOM      7  C   UNL     1      -0.861  10.846  18.417  0.00  0.00    +0.000 C 
ATOM      8  C   UNL     1       0.546  10.274  18.278  0.00  0.00    +0.000 C 
ENDROOT
BRANCH   6   9
ATOM      9  N   UNL     1      -0.497  13.042  19.557  0.00  0.00    +0.000 N 
ATOM     10  N   UNL     1       0.711  13.156  18.906  0.00  0.00    +0.000 NA
ATOM     11  C   UNL     1       1.224  14.333  18.801  0.00  0.00    +0.000 A 
ATOM     12  C   UNL     1       0.644  15.576  19.307  0.00  0.00    +0.000 A 
ATOM     13  C   UNL     1      -0.545  15.456  19.916  0.00  0.00    +0.000 A 
ATOM     14  C   UNL     1      -1.201  14.136  20.055  0.00  0.00    +0.000 A 
ATOM     15  O   UNL     1      -2.302  14.085  20.602  0.00  0.00    +0.000 OA
BRANCH  11  16
ATOM     16  C   UNL     1       2.512  14.446  18.077  0.00  0.00    +0.000 C 
ATOM     17  C   UNL     1       3.291  15.739  18.038  0.00  0.00    +0.000 C 
ATOM     18  C   UNL     1       3.797  14.594  18.861  0.00  0.00    +0.000 C 
ENDBRANCH  11  16
ENDBRANCH   6   9
BRANCH   1  19
ATOM     19  C   UNL     1       2.073   7.727  18.207  0.00  0.00    +0.000 C 
BRANCH  19  20
ATOM     20  O   UNL     1       3.362   7.119  18.113  0.00  0.00    +0.000 OA
BRANCH  20  25
ATOM     21  C   UNL     1       3.449   1.407  18.298  0.00  0.00    +0.000 C 
ATOM     22  C   UNL     1       3.382   2.901  18.224  0.00  0.00    +0.000 A 
ATOM     23  C   UNL     1       2.323   3.602  18.760  0.00  0.00    +0.000 A 
ATOM     24  C   UNL     1       2.314   4.992  18.682  0.00  0.00    +0.000 A 
ATOM     25  C   UNL     1       3.344   5.736  18.054  0.00  0.00    +0.000 A 
ATOM     26  C   UNL     1       4.380   5.035  17.398  0.00  0.00    +0.000 A 
ATOM     27  C   UNL     1       4.393   3.619  17.576  0.00  0.00    +0.000 A 
BRANCH  26  28
ATOM     28  C   UNL     1       5.561   5.628  16.585  0.00  0.00    +0.000 C 
ATOM     29  C   UNL     1       6.487   6.364  17.584  0.00  0.00    +0.000 C 
ATOM     30  C   UNL     1       6.364   4.510  15.831  0.00  0.00    +0.000 C 
ATOM     31  C   UNL     1       5.200   6.630  15.465  0.00  0.00    +0.000 C 
ENDBRANCH  26  28
ENDBRANCH  20  25
ENDBRANCH  19  20
ENDBRANCH   1  19
TORSDOF 6
ENDMDL
MODEL 9
REMARK VINA RESULT:      -7.6      1.254      1.458
REMARK  Name = 
REMARK  10 active torsions:
REMARK  status: ('A' for Active; 'I' for Inactive)
REMARK    1  A    between atoms: C_1  and  C_2
REMARK    2  A    between atoms: C_5  and  O_6
REMARK    3  A    between atoms: O_6  and  C_7
REMARK    4  A    between atoms: C_7  and  C_8
REMARK    5  A    between atoms: C_13  and  N_14
REMARK    6  A    between atoms: C_16  and  C_17
REMARK    7  A    between atoms: C_26  and  C_27
REMARK    8  A    between atoms: C_27  and  C_28
REMARK    9  A    between atoms: C_27  and  C_29
REMARK   10  A    between atoms: C_27  and  C_30
REMARK                            x       y       z     vdW  Elec       q    Type
REMARK                         _______ _______ _______ _____ _____    ______ ____
ROOT
ATOM      1  C   UNL     1       1.826   9.255  18.451  0.00  0.00    +0.000 C 
ATOM      2  O   UNL     1       2.407   9.559  17.404  0.00  0.00    +0.000 OA
ATOM      3  N   UNL     1       0.911  10.110  19.050  0.00  0.00    +0.000 N 
ATOM      4  C   UNL     1       0.441  11.269  18.291  0.00  0.00    +0.000 C 
ATOM      5  C   UNL     1       0.377  12.522  19.154  0.00  0.00    +0.000 C 
ATOM      6  C   UNL     1      -0.366  12.299  20.477  0.00  0.00    +0.000 C 
ATOM      7  C   UNL     1       0.109  11.025  21.186  0.00  0.00    +0.000 C 
ATOM      8  C   UNL     1       0.165   9.810  20.267  0.00  0.00    +0.000 C 
ENDROOT
BRANCH   6   9
ATOM      9  N   UNL     1      -1.831  12.340  20.312  0.00  0.00    +0.000 N 
ATOM     10  N   UNL     1      -2.348  11.675  19.222  0.00  0.00    +0.000 NA
ATOM     11  C   UNL     1      -3.624  11.717  19.047  0.00  0.00    +0.000 A 
ATOM     12  C   UNL     1      -4.590  12.405  19.901  0.00  0.00    +0.000 A 
ATOM     13  C   UNL     1      -4.077  13.027  20.974  0.00  0.00    +0.000 A 
ATOM     14  C   UNL     1      -2.622  13.003  21.247  0.00  0.00    +0.000 A 
ATOM     15  O   UNL     1      -2.208  13.569  22.257  0.00  0.00    +0.000 OA
BRANCH  11  16
ATOM     16  C   UNL     1      -4.170  10.979  17.885  0.00  0.00    +0.000 C 
ATOM     17  C   UNL     1      -4.605  11.689  16.625  0.00  0.00    +0.000 C 
ATOM     18  C   UNL     1      -3.351  10.870  16.617  0.00  0.00    +0.000 C 
ENDBRANCH  11  16
ENDBRANCH   6   9
BRANCH   1  19
ATOM     19  C   UNL     1       2.028   7.849  19.039  0.00  0.00    +0.000 C 
BRANCH  19  20
ATOM     20  O   UNL     1       2.163   6.727  18.166  0.00  0.00    +0.000 OA
BRANCH  20  25
ATOM     21  C   UNL     1       7.379   4.560  17.294  0.00  0.00    +0.000 C 
ATOM     22  C   UNL     1       6.034   5.166  17.549  0.00  0.00    +0.000 A 
ATOM     23  C   UNL     1       5.730   6.446  17.136  0.00  0.00    +0.000 A 
ATOM     24  C   UNL     1       4.459   6.959  17.380  0.00  0.00    +0.000 A 
ATOM     25  C   UNL     1       3.451   6.231  18.059  0.00  0.00    +0.000 A 
ATOM     26  C   UNL     1       3.775   4.964  18.593  0.00  0.00    +0.000 A 
ATOM     27  C   UNL     1       5.059   4.445  18.245  0.00  0.00    +0.000 A 
BRANCH  26  28
ATOM     28  C   UNL     1       2.868   4.026  19.431  0.00  0.00    +0.000 C 
ATOM     29  C   UNL     1       1.700   3.576  18.520  0.00  0.00    +0.000 C 
ATOM     30  C   UNL     1       3.656   2.773  19.953  0.00  0.00    +0.000 C 
ATOM     31  C   UNL     1       2.249   4.623  20.716  0.00  0.00    +0.000 C 
ENDBRANCH  26  28
ENDBRANCH  20  25
ENDBRANCH  19  20
ENDBRANCH   1  19
TORSDOF 6
ENDMDL
