MODEL 1
REMARK VINA RESULT:      -8.4      0.000      0.000
REMARK  Name = 
REMARK  5 active torsions:
REMARK  status: ('A' for Active; 'I' for Inactive)
REMARK    1  A    between atoms: C_2  and  C_3
REMARK    2  A    between atoms: C_2  and  C_15
REMARK    3  A    between atoms: C_3  and  C_4
REMARK    4  A    between atoms: N_6  and  C_7
REMARK    5  A    between atoms: N_17  and  C_18
REMARK                            x       y       z     vdW  Elec       q    Type
REMARK                         _______ _______ _______ _____ _____    ______ ____
ROOT
ATOM      1  C   UNL     1       1.634   2.483  21.606  0.00  0.00    +0.000 C 
ATOM      2  C   UNL     1       2.401   3.313  20.870  0.00  0.00    +0.000 C 
ENDROOT
BRANCH   2   3
ATOM      3  C   UNL     1       1.762   4.625  20.508  0.00  0.00    +0.000 C 
ATOM      4  O   UNL     1       0.573   4.650  20.167  0.00  0.00    +0.000 OA
ATOM      5  N   UNL     1       2.565   5.741  20.517  0.00  0.00    +0.000 N 
ATOM      6  H   UNL     1       3.579   5.616  20.486  0.00  0.00    +0.000 HD
BRANCH   5   7
ATOM      7  C   UNL     1       2.107   7.015  20.111  0.00  0.00    +0.000 A 
ATOM      8  C   UNL     1       1.389   7.859  20.965  0.00  0.00    +0.000 A 
ATOM      9  C   UNL     1       0.947   9.105  20.508  0.00  0.00    +0.000 A 
ATOM     10  C   UNL     1       1.200   9.494  19.192  0.00  0.00    +0.000 A 
ATOM     11 CL   UNL     1       0.627  11.015  18.627  0.00  0.00    +0.000 Cl
ATOM     12  C   UNL     1       1.909   8.661  18.333  0.00  0.00    +0.000 A 
ATOM     13  C   UNL     1       2.379   7.442  18.807  0.00  0.00    +0.000 A 
ATOM     14  F   UNL     1       3.038   6.629  17.966  0.00  0.00    +0.000 F 
ENDBRANCH   5   7
ENDBRANCH   2   3
BRANCH   2  15
ATOM     15  C   UNL     1       3.848   3.001  20.621  0.00  0.00    +0.000 C 
BRANCH  15  16
ATOM     16  C   UNL     1       4.285   3.058  19.161  0.00  0.00    +0.000 C 
ATOM     17  O   UNL     1       3.892   2.204  18.371  0.00  0.00    +0.000 OA
ATOM     18  N   UNL     1       5.142   4.087  18.836  0.00  0.00    +0.000 N 
ATOM     19  H   UNL     1       5.760   4.421  19.572  0.00  0.00    +0.000 HD
BRANCH  18  20
ATOM     20  C   UNL     1       5.593   4.312  17.513  0.00  0.00    +0.000 A 
ATOM     21  C   UNL     1       4.734   4.287  16.410  0.00  0.00    +0.000 A 
ATOM     22  C   UNL     1       5.237   4.498  15.119  0.00  0.00    +0.000 A 
ATOM     23  C   UNL     1       6.603   4.704  14.932  0.00  0.00    +0.000 A 
ATOM     24 CL   UNL     1       7.226   4.914  13.342  0.00  0.00    +0.000 Cl
ATOM     25  C   UNL     1       7.469   4.742  16.021  0.00  0.00    +0.000 A 
ATOM     26  C   UNL     1       6.950   4.575  17.302  0.00  0.00    +0.000 A 
ATOM     27  F   UNL     1       7.786   4.604  18.353  0.00  0.00    +0.000 F 
ENDBRANCH  18  20
ENDBRANCH  15  16
ENDBRANCH   2  15
TORSDOF 5
ENDMDL
MODEL 2
REMARK VINA RESULT:      -7.9      3.420      7.236
REMARK  Name = 
REMARK  5 active torsions:
REMARK  status: ('A' for Active; 'I' for Inactive)
REMARK    1  A    between atoms: C_2  and  C_3
REMARK    2  A    between atoms: C_2  and  C_15
REMARK    3  A    between atoms: C_3  and  C_4
REMARK    4  A    between atoms: N_6  and  C_7
REMARK    5  A    between atoms: N_17  and  C_18
REMARK                            x       y       z     vdW  Elec       q    Type
REMARK                         _______ _______ _______ _____ _____    ______ ____
ROOT
ATOM      1  C   UNL     1       8.087   8.180  17.403  0.00  0.00    +0.000 C 
ATOM      2  C   UNL     1       7.345   7.065  17.565  0.00  0.00    +0.000 C 
ENDROOT
BRANCH   2   3
ATOM      3  C   UNL     1       6.762   6.494  16.302  0.00  0.00    +0.000 C 
ATOM      4  O   UNL     1       5.672   6.912  15.890  0.00  0.00    +0.000 OA
ATOM      5  N   UNL     1       7.456   5.476  15.692  0.00  0.00    +0.000 N 
ATOM      6  H   UNL     1       8.155   4.964  16.235  0.00  0.00    +0.000 HD
BRANCH   5   7
ATOM      7  C   UNL     1       6.971   4.796  14.551  0.00  0.00    +0.000 A 
ATOM      8  C   UNL     1       5.876   3.927  14.608  0.00  0.00    +0.000 A 
ATOM      9  C   UNL     1       5.446   3.268  13.451  0.00  0.00    +0.000 A 
ATOM     10  C   UNL     1       6.126   3.457  12.248  0.00  0.00    +0.000 A 
ATOM     11 CL   UNL     1       5.610   2.620  10.836  0.00  0.00    +0.000 Cl
ATOM     12  C   UNL     1       7.218   4.315  12.182  0.00  0.00    +0.000 A 
ATOM     13  C   UNL     1       7.614   4.997  13.326  0.00  0.00    +0.000 A 
ATOM     14  F   UNL     1       8.687   5.803  13.264  0.00  0.00    +0.000 F 
ENDBRANCH   5   7
ENDBRANCH   2   3
BRANCH   2  15
ATOM     15  C   UNL     1       7.293   6.363  18.891  0.00  0.00    +0.000 C 
BRANCH  15  16
ATOM     16  C   UNL     1       6.160   5.355  19.049  0.00  0.00    +0.000 C 
ATOM     17  O   UNL     1       6.414   4.188  19.332  0.00  0.00    +0.000 OA
ATOM     18  N   UNL     1       4.891   5.846  18.826  0.00  0.00    +0.000 N 
ATOM     19  H   UNL     1       4.806   6.618  18.169  0.00  0.00    +0.000 HD
BRANCH  18  20
ATOM     20  C   UNL     1       3.730   5.053  18.989  0.00  0.00    +0.000 A 
ATOM     21  C   UNL     1       3.066   4.931  20.213  0.00  0.00    +0.000 A 
ATOM     22  C   UNL     1       1.930   4.117  20.323  0.00  0.00    +0.000 A 
ATOM     23  C   UNL     1       1.478   3.404  19.213  0.00  0.00    +0.000 A 
ATOM     24 CL   UNL     1       0.113   2.368  19.362  0.00  0.00    +0.000 Cl
ATOM     25  C   UNL     1       2.122   3.524  17.985  0.00  0.00    +0.000 A 
ATOM     26  C   UNL     1       3.223   4.369  17.879  0.00  0.00    +0.000 A 
ATOM     27  F   UNL     1       3.849   4.480  16.696  0.00  0.00    +0.000 F 
ENDBRANCH  18  20
ENDBRANCH  15  16
ENDBRANCH   2  15
TORSDOF 5
ENDMDL
MODEL 3
REMARK VINA RESULT:      -7.9      1.329      6.946
REMARK  Name = 
REMARK  5 active torsions:
REMARK  status: ('A' for Active; 'I' for Inactive)
REMARK    1  A    between atoms: C_2  and  C_3
REMARK    2  A    between atoms: C_2  and  C_15
REMARK    3  A    between atoms: C_3  and  C_4
REMARK    4  A    between atoms: N_6  and  C_7
REMARK    5  A    between atoms: N_17  and  C_18
REMARK                            x       y       z     vdW  Elec       q    Type
REMARK                         _______ _______ _______ _____ _____    ______ ____
ROOT
ATOM      1  C   UNL     1       2.668   2.259  18.680  0.00  0.00    +0.000 C 
ATOM      2  C   UNL     1       3.268   3.425  18.994  0.00  0.00    +0.000 C 
ENDROOT
BRANCH   2   3
ATOM      3  C   UNL     1       3.994   4.099  17.862  0.00  0.00    +0.000 C 
ATOM      4  O   UNL     1       3.653   5.236  17.511  0.00  0.00    +0.000 OA
ATOM      5  N   UNL     1       4.977   3.379  17.226  0.00  0.00    +0.000 N 
ATOM      6  H   UNL     1       4.990   2.363  17.337  0.00  0.00    +0.000 HD
BRANCH   5   7
ATOM      7  C   UNL     1       5.669   3.864  16.094  0.00  0.00    +0.000 A 
ATOM      8  C   UNL     1       5.242   3.604  14.787  0.00  0.00    +0.000 A 
ATOM      9  C   UNL     1       5.973   4.097  13.701  0.00  0.00    +0.000 A 
ATOM     10  C   UNL     1       7.143   4.825  13.921  0.00  0.00    +0.000 A 
ATOM     11 CL   UNL     1       8.053   5.402  12.580  0.00  0.00    +0.000 Cl
ATOM     12  C   UNL     1       7.579   5.086  15.216  0.00  0.00    +0.000 A 
ATOM     13  C   UNL     1       6.825   4.627  16.290  0.00  0.00    +0.000 A 
ATOM     14  F   UNL     1       7.265   4.856  17.537  0.00  0.00    +0.000 F 
ENDBRANCH   5   7
ENDBRANCH   2   3
BRANCH   2  15
ATOM     15  C   UNL     1       3.041   4.070  20.330  0.00  0.00    +0.000 C 
BRANCH  15  16
ATOM     16  C   UNL     1       2.069   5.246  20.329  0.00  0.00    +0.000 C 
ATOM     17  O   UNL     1       0.868   5.048  20.487  0.00  0.00    +0.000 OA
ATOM     18  N   UNL     1       2.635   6.484  20.112  0.00  0.00    +0.000 N 
ATOM     19  H   UNL     1       3.478   6.512  19.544  0.00  0.00    +0.000 HD
BRANCH  18  20
ATOM     20  C   UNL     1       1.878   7.680  20.138  0.00  0.00    +0.000 A 
ATOM     21  C   UNL     1       1.236   8.140  21.291  0.00  0.00    +0.000 A 
ATOM     22  C   UNL     1       0.484   9.323  21.257  0.00  0.00    +0.000 A 
ATOM     23  C   UNL     1       0.352  10.026  20.061  0.00  0.00    +0.000 A 
ATOM     24 CL   UNL     1      -0.612  11.450  20.008  0.00  0.00    +0.000 Cl
ATOM     25  C   UNL     1       0.994   9.586  18.907  0.00  0.00    +0.000 A 
ATOM     26  C   UNL     1       1.774   8.434  18.965  0.00  0.00    +0.000 A 
ATOM     27  F   UNL     1       2.388   8.005  17.851  0.00  0.00    +0.000 F 
ENDBRANCH  18  20
ENDBRANCH  15  16
ENDBRANCH   2  15
TORSDOF 5
ENDMDL
MODEL 4
REMARK VINA RESULT:      -7.8      0.991      1.383
REMARK  Name = 
REMARK  5 active torsions:
REMARK  status: ('A' for Active; 'I' for Inactive)
REMARK    1  A    between atoms: C_2  and  C_3
REMARK    2  A    between atoms: C_2  and  C_15
REMARK    3  A    between atoms: C_3  and  C_4
REMARK    4  A    between atoms: N_6  and  C_7
REMARK    5  A    between atoms: N_17  and  C_18
REMARK                            x       y       z     vdW  Elec       q    Type
REMARK                         _______ _______ _______ _____ _____    ______ ____
ROOT
ATOM      1  C   UNL     1       1.368   2.528  21.362  0.00  0.00    +0.000 C 
ATOM      2  C   UNL     1       2.214   3.471  20.901  0.00  0.00    +0.000 C 
ENDROOT
BRANCH   2   3
ATOM      3  C   UNL     1       1.585   4.801  20.588  0.00  0.00    +0.000 C 
ATOM      4  O   UNL     1       0.372   4.859  20.347  0.00  0.00    +0.000 OA
ATOM      5  N   UNL     1       2.416   5.894  20.527  0.00  0.00    +0.000 N 
ATOM      6  H   UNL     1       3.420   5.740  20.413  0.00  0.00    +0.000 HD
BRANCH   5   7
ATOM      7  C   UNL     1       1.963   7.180  20.156  0.00  0.00    +0.000 A 
ATOM      8  C   UNL     1       1.230   7.994  21.026  0.00  0.00    +0.000 A 
ATOM      9  C   UNL     1       0.793   9.255  20.604  0.00  0.00    +0.000 A 
ATOM     10  C   UNL     1       1.065   9.686  19.305  0.00  0.00    +0.000 A 
ATOM     11 CL   UNL     1       0.498  11.224  18.782  0.00  0.00    +0.000 Cl
ATOM     12  C   UNL     1       1.788   8.882  18.430  0.00  0.00    +0.000 A 
ATOM     13  C   UNL     1       2.253   7.649  18.871  0.00  0.00    +0.000 A 
ATOM     14  F   UNL     1       2.926   6.864  18.014  0.00  0.00    +0.000 F 
ENDBRANCH   5   7
ENDBRANCH   2   3
BRANCH   2  15
ATOM     15  C   UNL     1       3.697   3.239  20.903  0.00  0.00    +0.000 C 
BRANCH  15  16
ATOM     16  C   UNL     1       4.343   3.143  19.525  0.00  0.00    +0.000 C 
ATOM     17  O   UNL     1       4.344   2.074  18.922  0.00  0.00    +0.000 OA
ATOM     18  N   UNL     1       4.924   4.304  19.059  0.00  0.00    +0.000 N 
ATOM     19  H   UNL     1       5.290   4.947  19.757  0.00  0.00    +0.000 HD
BRANCH  18  20
ATOM     20  C   UNL     1       5.514   4.395  17.775  0.00  0.00    +0.000 A 
ATOM     21  C   UNL     1       6.896   4.487  17.587  0.00  0.00    +0.000 A 
ATOM     22  C   UNL     1       7.427   4.593  16.294  0.00  0.00    +0.000 A 
ATOM     23  C   UNL     1       6.571   4.636  15.194  0.00  0.00    +0.000 A 
ATOM     24 CL   UNL     1       7.221   4.816  13.612  0.00  0.00    +0.000 Cl
ATOM     25  C   UNL     1       5.193   4.535  15.366  0.00  0.00    +0.000 A 
ATOM     26  C   UNL     1       4.682   4.385  16.652  0.00  0.00    +0.000 A 
ATOM     27  F   UNL     1       3.353   4.294  16.819  0.00  0.00    +0.000 F 
ENDBRANCH  18  20
ENDBRANCH  15  16
ENDBRANCH   2  15
TORSDOF 5
ENDMDL
MODEL 5
REMARK VINA RESULT:      -7.7      3.485      7.269
REMARK  Name = 
REMARK  5 active torsions:
REMARK  status: ('A' for Active; 'I' for Inactive)
REMARK    1  A    between atoms: C_2  and  C_3
REMARK    2  A    between atoms: C_2  and  C_15
REMARK    3  A    between atoms: C_3  and  C_4
REMARK    4  A    between atoms: N_6  and  C_7
REMARK    5  A    between atoms: N_17  and  C_18
REMARK                            x       y       z     vdW  Elec       q    Type
REMARK                         _______ _______ _______ _____ _____    ______ ____
ROOT
ATOM      1  C   UNL     1       7.200   8.620  17.422  0.00  0.00    +0.000 C 
ATOM      2  C   UNL     1       7.167   7.272  17.420  0.00  0.00    +0.000 C 
ENDROOT
BRANCH   2   3
ATOM      3  C   UNL     1       6.631   6.646  16.162  0.00  0.00    +0.000 C 
ATOM      4  O   UNL     1       5.570   7.062  15.678  0.00  0.00    +0.000 OA
ATOM      5  N   UNL     1       7.330   5.584  15.639  0.00  0.00    +0.000 N 
ATOM      6  H   UNL     1       7.992   5.089  16.240  0.00  0.00    +0.000 HD
BRANCH   5   7
ATOM      7  C   UNL     1       6.884   4.854  14.514  0.00  0.00    +0.000 A 
ATOM      8  C   UNL     1       7.483   4.979  13.256  0.00  0.00    +0.000 A 
ATOM      9  C   UNL     1       6.993   4.243  12.171  0.00  0.00    +0.000 A 
ATOM     10  C   UNL     1       5.889   3.406  12.340  0.00  0.00    +0.000 A 
ATOM     11 CL   UNL     1       5.272   2.527  10.995  0.00  0.00    +0.000 Cl
ATOM     12  C   UNL     1       5.283   3.278  13.585  0.00  0.00    +0.000 A 
ATOM     13  C   UNL     1       5.802   3.982  14.666  0.00  0.00    +0.000 A 
ATOM     14  F   UNL     1       5.196   3.877  15.860  0.00  0.00    +0.000 F 
ENDBRANCH   5   7
ENDBRANCH   2   3
BRANCH   2  15
ATOM     15  C   UNL     1       7.810   6.487  18.525  0.00  0.00    +0.000 C 
BRANCH  15  16
ATOM     16  C   UNL     1       6.860   5.620  19.345  0.00  0.00    +0.000 C 
ATOM     17  O   UNL     1       7.217   5.181  20.435  0.00  0.00    +0.000 OA
ATOM     18  N   UNL     1       5.637   5.363  18.763  0.00  0.00    +0.000 N 
ATOM     19  H   UNL     1       5.607   5.341  17.746  0.00  0.00    +0.000 HD
BRANCH  18  20
ATOM     20  C   UNL     1       4.623   4.623  19.419  0.00  0.00    +0.000 A 
ATOM     21  C   UNL     1       4.696   3.238  19.594  0.00  0.00    +0.000 A 
ATOM     22  C   UNL     1       3.656   2.552  20.236  0.00  0.00    +0.000 A 
ATOM     23  C   UNL     1       2.531   3.250  20.674  0.00  0.00    +0.000 A 
ATOM     24 CL   UNL     1       1.233   2.400  21.417  0.00  0.00    +0.000 Cl
ATOM     25  C   UNL     1       2.449   4.631  20.516  0.00  0.00    +0.000 A 
ATOM     26  C   UNL     1       3.509   5.306  19.917  0.00  0.00    +0.000 A 
ATOM     27  F   UNL     1       3.428   6.637  19.757  0.00  0.00    +0.000 F 
ENDBRANCH  18  20
ENDBRANCH  15  16
ENDBRANCH   2  15
TORSDOF 5
ENDMDL
MODEL 6
REMARK VINA RESULT:      -7.6      5.895      7.240
REMARK  Name = 
REMARK  5 active torsions:
REMARK  status: ('A' for Active; 'I' for Inactive)
REMARK    1  A    between atoms: C_2  and  C_3
REMARK    2  A    between atoms: C_2  and  C_15
REMARK    3  A    between atoms: C_3  and  C_4
REMARK    4  A    between atoms: N_6  and  C_7
REMARK    5  A    between atoms: N_17  and  C_18
REMARK                            x       y       z     vdW  Elec       q    Type
REMARK                         _______ _______ _______ _____ _____    ______ ____
ROOT
ATOM      1  C   UNL     1       7.392   7.336  16.654  0.00  0.00    +0.000 C 
ATOM      2  C   UNL     1       7.867   7.535  17.900  0.00  0.00    +0.000 C 
ENDROOT
BRANCH   2   3
ATOM      3  C   UNL     1       8.161   8.968  18.253  0.00  0.00    +0.000 C 
ATOM      4  O   UNL     1       7.562   9.875  17.662  0.00  0.00    +0.000 OA
ATOM      5  N   UNL     1       9.140   9.199  19.189  0.00  0.00    +0.000 N 
ATOM      6  H   UNL     1       9.807   8.452  19.395  0.00  0.00    +0.000 HD
BRANCH   5   7
ATOM      7  C   UNL     1       9.570  10.498  19.541  0.00  0.00    +0.000 A 
ATOM      8  C   UNL     1       9.301  11.061  20.794  0.00  0.00    +0.000 A 
ATOM      9  C   UNL     1       9.738  12.358  21.087  0.00  0.00    +0.000 A 
ATOM     10  C   UNL     1      10.417  13.099  20.119  0.00  0.00    +0.000 A 
ATOM     11 CL   UNL     1      10.925  14.704  20.475  0.00  0.00    +0.000 Cl
ATOM     12  C   UNL     1      10.685  12.551  18.869  0.00  0.00    +0.000 A 
ATOM     13  C   UNL     1      10.283  11.247  18.601  0.00  0.00    +0.000 A 
ATOM     14  F   UNL     1      10.519  10.733  17.383  0.00  0.00    +0.000 F 
ENDBRANCH   5   7
ENDBRANCH   2   3
BRANCH   2  15
ATOM     15  C   UNL     1       7.900   6.415  18.898  0.00  0.00    +0.000 C 
BRANCH  15  16
ATOM     16  C   UNL     1       6.754   5.414  18.790  0.00  0.00    +0.000 C 
ATOM     17  O   UNL     1       6.995   4.228  18.584  0.00  0.00    +0.000 OA
ATOM     18  N   UNL     1       5.488   5.944  18.910  0.00  0.00    +0.000 N 
ATOM     19  H   UNL     1       5.361   6.906  18.605  0.00  0.00    +0.000 HD
BRANCH  18  20
ATOM     20  C   UNL     1       4.322   5.140  18.890  0.00  0.00    +0.000 A 
ATOM     21  C   UNL     1       3.681   4.715  20.057  0.00  0.00    +0.000 A 
ATOM     22  C   UNL     1       2.539   3.905  19.980  0.00  0.00    +0.000 A 
ATOM     23  C   UNL     1       2.060   3.498  18.736  0.00  0.00    +0.000 A 
ATOM     24 CL   UNL     1       0.689   2.464  18.644  0.00  0.00    +0.000 Cl
ATOM     25  C   UNL     1       2.682   3.923  17.565  0.00  0.00    +0.000 A 
ATOM     26  C   UNL     1       3.788   4.763  17.654  0.00  0.00    +0.000 A 
ATOM     27  F   UNL     1       4.393   5.167  16.525  0.00  0.00    +0.000 F 
ENDBRANCH  18  20
ENDBRANCH  15  16
ENDBRANCH   2  15
TORSDOF 5
ENDMDL
MODEL 7
REMARK VINA RESULT:      -7.5      1.202      1.332
REMARK  Name = 
REMARK  5 active torsions:
REMARK  status: ('A' for Active; 'I' for Inactive)
REMARK    1  A    between atoms: C_2  and  C_3
REMARK    2  A    between atoms: C_2  and  C_15
REMARK    3  A    between atoms: C_3  and  C_4
REMARK    4  A    between atoms: N_6  and  C_7
REMARK    5  A    between atoms: N_17  and  C_18
REMARK                            x       y       z     vdW  Elec       q    Type
REMARK                         _______ _______ _______ _____ _____    ______ ____
ROOT
ATOM      1  C   UNL     1       2.063   2.702  20.329  0.00  0.00    +0.000 C 
ATOM      2  C   UNL     1       2.706   3.832  19.971  0.00  0.00    +0.000 C 
ENDROOT
BRANCH   2   3
ATOM      3  C   UNL     1       1.928   5.103  20.174  0.00  0.00    +0.000 C 
ATOM      4  O   UNL     1       0.725   5.043  20.457  0.00  0.00    +0.000 OA
ATOM      5  N   UNL     1       2.594   6.289  19.972  0.00  0.00    +0.000 N 
ATOM      6  H   UNL     1       3.465   6.277  19.437  0.00  0.00    +0.000 HD
BRANCH   5   7
ATOM      7  C   UNL     1       1.954   7.547  20.044  0.00  0.00    +0.000 A 
ATOM      8  C   UNL     1       1.402   8.038  21.231  0.00  0.00    +0.000 A 
ATOM      9  C   UNL     1       0.766   9.285  21.244  0.00  0.00    +0.000 A 
ATOM     10  C   UNL     1       0.661  10.025  20.066  0.00  0.00    +0.000 A 
ATOM     11 CL   UNL     1      -0.147  11.544  20.083  0.00  0.00    +0.000 Cl
ATOM     12  C   UNL     1       1.203   9.544  18.879  0.00  0.00    +0.000 A 
ATOM     13  C   UNL     1       1.868   8.323  18.884  0.00  0.00    +0.000 A 
ATOM     14  F   UNL     1       2.364   7.850  17.730  0.00  0.00    +0.000 F 
ENDBRANCH   5   7
ENDBRANCH   2   3
BRANCH   2  15
ATOM     15  C   UNL     1       4.157   3.803  19.591  0.00  0.00    +0.000 C 
BRANCH  15  16
ATOM     16  C   UNL     1       4.466   4.243  18.164  0.00  0.00    +0.000 C 
ATOM     17  O   UNL     1       3.682   4.973  17.565  0.00  0.00    +0.000 OA
ATOM     18  N   UNL     1       5.634   3.744  17.627  0.00  0.00    +0.000 N 
ATOM     19  H   UNL     1       5.944   2.836  17.965  0.00  0.00    +0.000 HD
BRANCH  18  20
ATOM     20  C   UNL     1       6.091   4.104  16.336  0.00  0.00    +0.000 A 
ATOM     21  C   UNL     1       5.624   3.486  15.173  0.00  0.00    +0.000 A 
ATOM     22  C   UNL     1       6.123   3.869  13.920  0.00  0.00    +0.000 A 
ATOM     23  C   UNL     1       7.112   4.848  13.838  0.00  0.00    +0.000 A 
ATOM     24 CL   UNL     1       7.760   5.282  12.305  0.00  0.00    +0.000 Cl
ATOM     25  C   UNL     1       7.580   5.480  14.987  0.00  0.00    +0.000 A 
ATOM     26  C   UNL     1       7.043   5.121  16.221  0.00  0.00    +0.000 A 
ATOM     27  F   UNL     1       7.499   5.725  17.330  0.00  0.00    +0.000 F 
ENDBRANCH  18  20
ENDBRANCH  15  16
ENDBRANCH   2  15
TORSDOF 5
ENDMDL
MODEL 8
REMARK VINA RESULT:      -7.5      5.836      7.337
REMARK  Name = 
REMARK  5 active torsions:
REMARK  status: ('A' for Active; 'I' for Inactive)
REMARK    1  A    between atoms: C_2  and  C_3
REMARK    2  A    between atoms: C_2  and  C_15
REMARK    3  A    between atoms: C_3  and  C_4
REMARK    4  A    between atoms: N_6  and  C_7
REMARK    5  A    between atoms: N_17  and  C_18
REMARK                            x       y       z     vdW  Elec       q    Type
REMARK                         _______ _______ _______ _____ _____    ______ ____
ROOT
ATOM      1  C   UNL     1       7.352   6.474  16.426  0.00  0.00    +0.000 C 
ATOM      2  C   UNL     1       7.160   6.550  17.759  0.00  0.00    +0.000 C 
ENDROOT
BRANCH   2   3
ATOM      3  C   UNL     1       5.994   5.759  18.285  0.00  0.00    +0.000 C 
ATOM      4  O   UNL     1       5.946   5.472  19.488  0.00  0.00    +0.000 OA
ATOM      5  N   UNL     1       5.055   5.339  17.374  0.00  0.00    +0.000 N 
ATOM      6  H   UNL     1       5.306   5.322  16.384  0.00  0.00    +0.000 HD
BRANCH   5   7
ATOM      7  C   UNL     1       3.962   4.515  17.727  0.00  0.00    +0.000 A 
ATOM      8  C   UNL     1       4.060   3.120  17.771  0.00  0.00    +0.000 A 
ATOM      9  C   UNL     1       2.942   2.351  18.113  0.00  0.00    +0.000 A 
ATOM     10  C   UNL     1       1.724   2.975  18.384  0.00  0.00    +0.000 A 
ATOM     11 CL   UNL     1       0.346   2.021  18.774  0.00  0.00    +0.000 Cl
ATOM     12  C   UNL     1       1.614   4.360  18.339  0.00  0.00    +0.000 A 
ATOM     13  C   UNL     1       2.740   5.119  18.038  0.00  0.00    +0.000 A 
ATOM     14  F   UNL     1       2.622   6.455  17.968  0.00  0.00    +0.000 F 
ENDBRANCH   5   7
ENDBRANCH   2   3
BRANCH   2  15
ATOM     15  C   UNL     1       8.171   7.220  18.643  0.00  0.00    +0.000 C 
BRANCH  15  16
ATOM     16  C   UNL     1       8.324   8.723  18.436  0.00  0.00    +0.000 C 
ATOM     17  O   UNL     1       7.595   9.309  17.641  0.00  0.00    +0.000 OA
ATOM     18  N   UNL     1       9.327   9.325  19.165  0.00  0.00    +0.000 N 
ATOM     19  H   UNL     1      10.135   8.752  19.396  0.00  0.00    +0.000 HD
BRANCH  18  20
ATOM     20  C   UNL     1       9.560  10.721  19.129  0.00  0.00    +0.000 A 
ATOM     21  C   UNL     1       9.960  11.387  17.967  0.00  0.00    +0.000 A 
ATOM     22  C   UNL     1      10.194  12.770  17.991  0.00  0.00    +0.000 A 
ATOM     23  C   UNL     1      10.056  13.476  19.185  0.00  0.00    +0.000 A 
ATOM     24 CL   UNL     1      10.392  15.163  19.224  0.00  0.00    +0.000 Cl
ATOM     25  C   UNL     1       9.648  12.827  20.347  0.00  0.00    +0.000 A 
ATOM     26  C   UNL     1       9.376  11.463  20.300  0.00  0.00    +0.000 A 
ATOM     27  F   UNL     1       8.990  10.835  21.422  0.00  0.00    +0.000 F 
ENDBRANCH  18  20
ENDBRANCH  15  16
ENDBRANCH   2  15
TORSDOF 5
ENDMDL
MODEL 9
REMARK VINA RESULT:      -7.5      1.011      6.274
REMARK  Name = 
REMARK  5 active torsions:
REMARK  status: ('A' for Active; 'I' for Inactive)
REMARK    1  A    between atoms: C_2  and  C_3
REMARK    2  A    between atoms: C_2  and  C_15
REMARK    3  A    between atoms: C_3  and  C_4
REMARK    4  A    between atoms: N_6  and  C_7
REMARK    5  A    between atoms: N_17  and  C_18
REMARK                            x       y       z     vdW  Elec       q    Type
REMARK                         _______ _______ _______ _____ _____    ______ ____
ROOT
ATOM      1  C   UNL     1       4.848   2.012  20.714  0.00  0.00    +0.000 C 
ATOM      2  C   UNL     1       3.972   2.822  20.085  0.00  0.00    +0.000 C 
ENDROOT
BRANCH   2   3
ATOM      3  C   UNL     1       4.288   3.111  18.643  0.00  0.00    +0.000 C 
ATOM      4  O   UNL     1       3.650   2.534  17.752  0.00  0.00    +0.000 OA
ATOM      5  N   UNL     1       5.327   3.973  18.385  0.00  0.00    +0.000 N 
ATOM      6  H   UNL     1       6.007   4.157  19.126  0.00  0.00    +0.000 HD
BRANCH   5   7
ATOM      7  C   UNL     1       5.779   4.257  17.077  0.00  0.00    +0.000 A 
ATOM      8  C   UNL     1       4.917   4.269  15.974  0.00  0.00    +0.000 A 
ATOM      9  C   UNL     1       5.419   4.542  14.697  0.00  0.00    +0.000 A 
ATOM     10  C   UNL     1       6.784   4.776  14.520  0.00  0.00    +0.000 A 
ATOM     11 CL   UNL     1       7.399   5.082  12.943  0.00  0.00    +0.000 Cl
ATOM     12  C   UNL     1       7.649   4.762  15.609  0.00  0.00    +0.000 A 
ATOM     13  C   UNL     1       7.136   4.529  16.879  0.00  0.00    +0.000 A 
ATOM     14  F   UNL     1       7.980   4.488  17.923  0.00  0.00    +0.000 F 
ENDBRANCH   5   7
ENDBRANCH   2   3
BRANCH   2  15
ATOM     15  C   UNL     1       2.686   3.223  20.746  0.00  0.00    +0.000 C 
BRANCH  15  16
ATOM     16  C   UNL     1       2.017   4.466  20.169  0.00  0.00    +0.000 C 
ATOM     17  O   UNL     1       0.859   4.408  19.767  0.00  0.00    +0.000 OA
ATOM     18  N   UNL     1       2.806   5.595  20.115  0.00  0.00    +0.000 N 
ATOM     19  H   UNL     1       3.807   5.453  20.008  0.00  0.00    +0.000 HD
BRANCH  18  20
ATOM     20  C   UNL     1       2.316   6.844  19.660  0.00  0.00    +0.000 A 
ATOM     21  C   UNL     1       2.485   7.284  18.344  0.00  0.00    +0.000 A 
ATOM     22  C   UNL     1       1.994   8.537  17.951  0.00  0.00    +0.000 A 
ATOM     23  C   UNL     1       1.363   9.359  18.883  0.00  0.00    +0.000 A 
ATOM     24 CL   UNL     1       0.806  10.917  18.411  0.00  0.00    +0.000 Cl
ATOM     25  C   UNL     1       1.179   8.929  20.195  0.00  0.00    +0.000 A 
ATOM     26  C   UNL     1       1.631   7.665  20.561  0.00  0.00    +0.000 A 
ATOM     27  F   UNL     1       1.460   7.252  21.827  0.00  0.00    +0.000 F 
ENDBRANCH  18  20
ENDBRANCH  15  16
ENDBRANCH   2  15
TORSDOF 5
ENDMDL
