MODEL 1
REMARK VINA RESULT:      -8.0      0.000      0.000
REMARK  Name = 
REMARK  5 active torsions:
REMARK  status: ('A' for Active; 'I' for Inactive)
REMARK    1  A    between atoms: C_2  and  C_12
REMARK    2  A    between atoms: N_3  and  C_4
REMARK    3  A    between atoms: C_4  and  C_5
REMARK    4  A    between atoms: C_10  and  O_11
REMARK    5  A    between atoms: C_16  and  O_17
REMARK                            x       y       z     vdW  Elec       q    Type
REMARK                         _______ _______ _______ _____ _____    ______ ____
ROOT
ATOM      1  O   UNL     1       7.014   4.487  18.431  0.00  0.00    +0.000 OA
ATOM      2  C   UNL     1       6.111   4.913  17.718  0.00  0.00    +0.000 C 
ATOM      3  N   UNL     1       4.928   5.411  18.194  0.00  0.00    +0.000 N 
ATOM      4  H   UNL     1       4.319   5.914  17.565  0.00  0.00    +0.000 HD
ENDROOT
BRANCH   2   5
ATOM      5  C   UNL     1       6.151   4.864  16.275  0.00  0.00    +0.000 A 
ATOM      6  C   UNL     1       5.243   4.290  15.398  0.00  0.00    +0.000 A 
ATOM      7  C   UNL     1       5.910   4.110  14.172  0.00  0.00    +0.000 A 
ATOM      8  C   UNL     1       5.669   3.281  13.066  0.00  0.00    +0.000 A 
ATOM      9  C   UNL     1       6.557   3.365  11.997  0.00  0.00    +0.000 A 
ATOM     10  C   UNL     1       7.527   4.353  11.927  0.00  0.00    +0.000 A 
ATOM     11  C   UNL     1       7.800   5.161  13.039  0.00  0.00    +0.000 A 
ATOM     12  C   UNL     1       7.034   4.925  14.184  0.00  0.00    +0.000 A 
ATOM     13  N   UNL     1       7.215   5.308  15.509  0.00  0.00    +0.000 N 
ATOM     14  H   UNL     1       8.063   5.699  15.884  0.00  0.00    +0.000 HD
BRANCH   9  15
ATOM     15  O   UNL     1       6.531   2.403  11.029  0.00  0.00    +0.000 OA
ATOM     16  H   UNL     1       6.426   2.882  10.185  0.00  0.00    +0.000 HD
ENDBRANCH   9  15
ENDBRANCH   2   5
BRANCH   3  17
ATOM     17  C   UNL     1       4.557   5.520  19.578  0.00  0.00    +0.000 C 
BRANCH  17  18
ATOM     18  C   UNL     1       3.418   4.590  19.898  0.00  0.00    +0.000 A 
ATOM     19  C   UNL     1       2.153   5.130  20.181  0.00  0.00    +0.000 A 
ATOM     20  C   UNL     1       1.078   4.296  20.486  0.00  0.00    +0.000 A 
ATOM     21  C   UNL     1       1.244   2.913  20.501  0.00  0.00    +0.000 A 
ATOM     22  C   UNL     1       2.496   2.359  20.221  0.00  0.00    +0.000 A 
ATOM     23  C   UNL     1       3.565   3.198  19.924  0.00  0.00    +0.000 A 
BRANCH  23  24
ATOM     24  O   UNL     1       4.794   2.653  19.649  0.00  0.00    +0.000 OA
ATOM     25  H   UNL     1       5.289   3.282  19.093  0.00  0.00    +0.000 HD
ENDBRANCH  23  24
ENDBRANCH  17  18
ENDBRANCH   3  17
TORSDOF 5
ENDMDL
MODEL 2
REMARK VINA RESULT:      -7.9      1.699      7.264
REMARK  Name = 
REMARK  5 active torsions:
REMARK  status: ('A' for Active; 'I' for Inactive)
REMARK    1  A    between atoms: C_2  and  C_12
REMARK    2  A    between atoms: N_3  and  C_4
REMARK    3  A    between atoms: C_4  and  C_5
REMARK    4  A    between atoms: C_10  and  O_11
REMARK    5  A    between atoms: C_16  and  O_17
REMARK                            x       y       z     vdW  Elec       q    Type
REMARK                         _______ _______ _______ _____ _____    ______ ____
ROOT
ATOM      1  O   UNL     1       7.606   4.836  18.558  0.00  0.00    +0.000 OA
ATOM      2  C   UNL     1       6.492   4.754  18.051  0.00  0.00    +0.000 C 
ATOM      3  N   UNL     1       6.222   5.045  16.742  0.00  0.00    +0.000 N 
ATOM      4  H   UNL     1       5.330   4.773  16.353  0.00  0.00    +0.000 HD
ENDROOT
BRANCH   2   5
ATOM      5  C   UNL     1       5.304   4.420  18.803  0.00  0.00    +0.000 A 
ATOM      6  C   UNL     1       4.712   3.180  18.988  0.00  0.00    +0.000 A 
ATOM      7  C   UNL     1       3.386   3.412  19.399  0.00  0.00    +0.000 A 
ATOM      8  C   UNL     1       2.228   2.620  19.382  0.00  0.00    +0.000 A 
ATOM      9  C   UNL     1       1.057   3.186  19.880  0.00  0.00    +0.000 A 
ATOM     10  C   UNL     1       1.058   4.404  20.544  0.00  0.00    +0.000 A 
ATOM     11  C   UNL     1       2.199   5.217  20.535  0.00  0.00    +0.000 A 
ATOM     12  C   UNL     1       3.312   4.723  19.849  0.00  0.00    +0.000 A 
ATOM     13  N   UNL     1       4.468   5.350  19.394  0.00  0.00    +0.000 N 
ATOM     14  H   UNL     1       4.601   6.346  19.349  0.00  0.00    +0.000 HD
BRANCH   9  15
ATOM     15  O   UNL     1      -0.137   2.572  19.639  0.00  0.00    +0.000 OA
ATOM     16  H   UNL     1      -0.135   2.357  18.687  0.00  0.00    +0.000 HD
ENDBRANCH   9  15
ENDBRANCH   2   5
BRANCH   3  17
ATOM     17  C   UNL     1       7.178   5.478  15.762  0.00  0.00    +0.000 C 
BRANCH  17  18
ATOM     18  C   UNL     1       6.895   4.846  14.426  0.00  0.00    +0.000 A 
ATOM     19  C   UNL     1       5.792   3.987  14.295  0.00  0.00    +0.000 A 
ATOM     20  C   UNL     1       5.505   3.381  13.072  0.00  0.00    +0.000 A 
ATOM     21  C   UNL     1       6.304   3.633  11.960  0.00  0.00    +0.000 A 
ATOM     22  C   UNL     1       7.404   4.486  12.072  0.00  0.00    +0.000 A 
ATOM     23  C   UNL     1       7.688   5.082  13.296  0.00  0.00    +0.000 A 
BRANCH  23  24
ATOM     24  O   UNL     1       8.769   5.920  13.405  0.00  0.00    +0.000 OA
ATOM     25  H   UNL     1       9.185   5.996  12.526  0.00  0.00    +0.000 HD
ENDBRANCH  23  24
ENDBRANCH  17  18
ENDBRANCH   3  17
TORSDOF 5
ENDMDL
MODEL 3
REMARK VINA RESULT:      -7.8      2.026      7.483
REMARK  Name = 
REMARK  5 active torsions:
REMARK  status: ('A' for Active; 'I' for Inactive)
REMARK    1  A    between atoms: C_2  and  C_12
REMARK    2  A    between atoms: N_3  and  C_4
REMARK    3  A    between atoms: C_4  and  C_5
REMARK    4  A    between atoms: C_10  and  O_11
REMARK    5  A    between atoms: C_16  and  O_17
REMARK                            x       y       z     vdW  Elec       q    Type
REMARK                         _______ _______ _______ _____ _____    ______ ____
ROOT
ATOM      1  O   UNL     1       4.852   7.120  16.500  0.00  0.00    +0.000 OA
ATOM      2  C   UNL     1       4.878   5.991  16.981  0.00  0.00    +0.000 C 
ATOM      3  N   UNL     1       5.870   5.079  16.744  0.00  0.00    +0.000 N 
ATOM      4  H   UNL     1       5.921   4.251  17.319  0.00  0.00    +0.000 HD
ENDROOT
BRANCH   2   5
ATOM      5  C   UNL     1       3.812   5.454  17.795  0.00  0.00    +0.000 A 
ATOM      6  C   UNL     1       3.450   5.793  19.090  0.00  0.00    +0.000 A 
ATOM      7  C   UNL     1       2.676   4.732  19.594  0.00  0.00    +0.000 A 
ATOM      8  C   UNL     1       2.349   4.322  20.895  0.00  0.00    +0.000 A 
ATOM      9  C   UNL     1       1.540   3.196  21.029  0.00  0.00    +0.000 A 
ATOM     10  C   UNL     1       0.917   2.609  19.937  0.00  0.00    +0.000 A 
ATOM     11  C   UNL     1       1.264   2.988  18.633  0.00  0.00    +0.000 A 
ATOM     12  C   UNL     1       2.237   3.983  18.510  0.00  0.00    +0.000 A 
ATOM     13  N   UNL     1       3.014   4.385  17.428  0.00  0.00    +0.000 N 
ATOM     14  H   UNL     1       3.105   3.874  16.566  0.00  0.00    +0.000 HD
BRANCH   9  15
ATOM     15  O   UNL     1       1.419   2.600  22.250  0.00  0.00    +0.000 OA
ATOM     16  H   UNL     1       0.497   2.284  22.298  0.00  0.00    +0.000 HD
ENDBRANCH   9  15
ENDBRANCH   2   5
BRANCH   3  17
ATOM     17  C   UNL     1       7.025   5.288  15.916  0.00  0.00    +0.000 C 
BRANCH  17  18
ATOM     18  C   UNL     1       6.790   4.751  14.531  0.00  0.00    +0.000 A 
ATOM     19  C   UNL     1       5.701   3.893  14.304  0.00  0.00    +0.000 A 
ATOM     20  C   UNL     1       5.458   3.374  13.033  0.00  0.00    +0.000 A 
ATOM     21  C   UNL     1       6.289   3.713  11.966  0.00  0.00    +0.000 A 
ATOM     22  C   UNL     1       7.376   4.565  12.174  0.00  0.00    +0.000 A 
ATOM     23  C   UNL     1       7.615   5.073  13.446  0.00  0.00    +0.000 A 
BRANCH  23  24
ATOM     24  O   UNL     1       8.683   5.912  13.648  0.00  0.00    +0.000 OA
ATOM     25  H   UNL     1       9.080   5.696  14.512  0.00  0.00    +0.000 HD
ENDBRANCH  23  24
ENDBRANCH  17  18
ENDBRANCH   3  17
TORSDOF 5
ENDMDL
MODEL 4
REMARK VINA RESULT:      -7.8      1.781      7.554
REMARK  Name = 
REMARK  5 active torsions:
REMARK  status: ('A' for Active; 'I' for Inactive)
REMARK    1  A    between atoms: C_2  and  C_12
REMARK    2  A    between atoms: N_3  and  C_4
REMARK    3  A    between atoms: C_4  and  C_5
REMARK    4  A    between atoms: C_10  and  O_11
REMARK    5  A    between atoms: C_16  and  O_17
REMARK                            x       y       z     vdW  Elec       q    Type
REMARK                         _______ _______ _______ _____ _____    ______ ____
ROOT
ATOM      1  O   UNL     1       7.079   4.621  18.417  0.00  0.00    +0.000 OA
ATOM      2  C   UNL     1       6.026   4.727  17.796  0.00  0.00    +0.000 C 
ATOM      3  N   UNL     1       5.945   5.100  16.482  0.00  0.00    +0.000 N 
ATOM      4  H   UNL     1       5.071   4.981  15.992  0.00  0.00    +0.000 HD
ENDROOT
BRANCH   2   5
ATOM      5  C   UNL     1       4.728   4.552  18.405  0.00  0.00    +0.000 A 
ATOM      6  C   UNL     1       4.295   4.948  19.661  0.00  0.00    +0.000 A 
ATOM      7  C   UNL     1       3.147   4.192  19.961  0.00  0.00    +0.000 A 
ATOM      8  C   UNL     1       2.501   3.872  21.164  0.00  0.00    +0.000 A 
ATOM      9  C   UNL     1       1.359   3.079  21.087  0.00  0.00    +0.000 A 
ATOM     10  C   UNL     1       0.761   2.772  19.874  0.00  0.00    +0.000 A 
ATOM     11  C   UNL     1       1.416   3.055  18.667  0.00  0.00    +0.000 A 
ATOM     12  C   UNL     1       2.667   3.671  18.767  0.00  0.00    +0.000 A 
ATOM     13  N   UNL     1       3.694   3.825  17.841  0.00  0.00    +0.000 N 
ATOM     14  H   UNL     1       3.751   3.343  16.960  0.00  0.00    +0.000 HD
BRANCH   9  15
ATOM     15  O   UNL     1       0.856   2.517  22.225  0.00  0.00    +0.000 OA
ATOM     16  H   UNL     1       1.589   2.528  22.869  0.00  0.00    +0.000 HD
ENDBRANCH   9  15
ENDBRANCH   2   5
BRANCH   3  17
ATOM     17  C   UNL     1       7.055   5.417  15.628  0.00  0.00    +0.000 C 
BRANCH  17  18
ATOM     18  C   UNL     1       6.866   4.811  14.264  0.00  0.00    +0.000 A 
ATOM     19  C   UNL     1       5.807   3.913  14.054  0.00  0.00    +0.000 A 
ATOM     20  C   UNL     1       5.608   3.330  12.803  0.00  0.00    +0.000 A 
ATOM     21  C   UNL     1       6.452   3.643  11.740  0.00  0.00    +0.000 A 
ATOM     22  C   UNL     1       7.510   4.535  11.931  0.00  0.00    +0.000 A 
ATOM     23  C   UNL     1       7.706   5.107  13.183  0.00  0.00    +0.000 A 
BRANCH  23  24
ATOM     24  O   UNL     1       8.746   5.984  13.368  0.00  0.00    +0.000 OA
ATOM     25  H   UNL     1       8.372   6.854  13.600  0.00  0.00    +0.000 HD
ENDBRANCH  23  24
ENDBRANCH  17  18
ENDBRANCH   3  17
TORSDOF 5
ENDMDL
MODEL 5
REMARK VINA RESULT:      -7.5      1.096      1.515
REMARK  Name = 
REMARK  5 active torsions:
REMARK  status: ('A' for Active; 'I' for Inactive)
REMARK    1  A    between atoms: C_2  and  C_12
REMARK    2  A    between atoms: N_3  and  C_4
REMARK    3  A    between atoms: C_4  and  C_5
REMARK    4  A    between atoms: C_10  and  O_11
REMARK    5  A    between atoms: C_16  and  O_17
REMARK                            x       y       z     vdW  Elec       q    Type
REMARK                         _______ _______ _______ _____ _____    ______ ____
ROOT
ATOM      1  O   UNL     1       7.308   5.531  18.214  0.00  0.00    +0.000 OA
ATOM      2  C   UNL     1       6.271   5.360  17.581  0.00  0.00    +0.000 C 
ATOM      3  N   UNL     1       5.033   5.253  18.153  0.00  0.00    +0.000 N 
ATOM      4  H   UNL     1       4.215   5.306  17.564  0.00  0.00    +0.000 HD
ENDROOT
BRANCH   2   5
ATOM      5  C   UNL     1       6.241   5.166  16.150  0.00  0.00    +0.000 A 
ATOM      6  C   UNL     1       5.240   4.608  15.369  0.00  0.00    +0.000 A 
ATOM      7  C   UNL     1       5.828   4.240  14.145  0.00  0.00    +0.000 A 
ATOM      8  C   UNL     1       5.454   3.337  13.138  0.00  0.00    +0.000 A 
ATOM      9  C   UNL     1       6.295   3.222  12.035  0.00  0.00    +0.000 A 
ATOM     10  C   UNL     1       7.357   4.090  11.831  0.00  0.00    +0.000 A 
ATOM     11  C   UNL     1       7.760   4.970  12.844  0.00  0.00    +0.000 A 
ATOM     12  C   UNL     1       7.027   4.929  14.034  0.00  0.00    +0.000 A 
ATOM     13  N   UNL     1       7.307   5.419  15.306  0.00  0.00    +0.000 N 
ATOM     14  H   UNL     1       8.207   5.753  15.608  0.00  0.00    +0.000 HD
BRANCH   9  15
ATOM     15  O   UNL     1       6.128   2.178  11.172  0.00  0.00    +0.000 OA
ATOM     16  H   UNL     1       6.881   1.579  11.334  0.00  0.00    +0.000 HD
ENDBRANCH   9  15
ENDBRANCH   2   5
BRANCH   3  17
ATOM     17  C   UNL     1       4.746   5.327  19.559  0.00  0.00    +0.000 C 
BRANCH  17  18
ATOM     18  C   UNL     1       3.473   4.593  19.881  0.00  0.00    +0.000 A 
ATOM     19  C   UNL     1       3.446   3.192  19.784  0.00  0.00    +0.000 A 
ATOM     20  C   UNL     1       2.280   2.483  20.072  0.00  0.00    +0.000 A 
ATOM     21  C   UNL     1       1.129   3.157  20.471  0.00  0.00    +0.000 A 
ATOM     22  C   UNL     1       1.138   4.551  20.574  0.00  0.00    +0.000 A 
ATOM     23  C   UNL     1       2.303   5.252  20.280  0.00  0.00    +0.000 A 
BRANCH  23  24
ATOM     24  O   UNL     1       2.310   6.620  20.381  0.00  0.00    +0.000 OA
ATOM     25  H   UNL     1       3.103   6.955  19.923  0.00  0.00    +0.000 HD
ENDBRANCH  23  24
ENDBRANCH  17  18
ENDBRANCH   3  17
TORSDOF 5
ENDMDL
MODEL 6
REMARK VINA RESULT:      -7.4      5.673      7.295
REMARK  Name = 
REMARK  5 active torsions:
REMARK  status: ('A' for Active; 'I' for Inactive)
REMARK    1  A    between atoms: C_2  and  C_12
REMARK    2  A    between atoms: N_3  and  C_4
REMARK    3  A    between atoms: C_4  and  C_5
REMARK    4  A    between atoms: C_10  and  O_11
REMARK    5  A    between atoms: C_16  and  O_17
REMARK                            x       y       z     vdW  Elec       q    Type
REMARK                         _______ _______ _______ _____ _____    ______ ____
ROOT
ATOM      1  O   UNL     1       8.385   6.817  18.923  0.00  0.00    +0.000 OA
ATOM      2  C   UNL     1       8.037   7.793  18.266  0.00  0.00    +0.000 C 
ATOM      3  N   UNL     1       7.205   7.730  17.181  0.00  0.00    +0.000 N 
ATOM      4  H   UNL     1       6.814   8.585  16.813  0.00  0.00    +0.000 HD
ENDROOT
BRANCH   2   5
ATOM      5  C   UNL     1       8.532   9.129  18.509  0.00  0.00    +0.000 A 
ATOM      6  C   UNL     1       8.562  10.215  17.649  0.00  0.00    +0.000 A 
ATOM      7  C   UNL     1       9.505  11.124  18.163  0.00  0.00    +0.000 A 
ATOM      8  C   UNL     1      10.228  12.180  17.588  0.00  0.00    +0.000 A 
ATOM      9  C   UNL     1      11.098  12.887  18.414  0.00  0.00    +0.000 A 
ATOM     10  C   UNL     1      11.118  12.697  19.788  0.00  0.00    +0.000 A 
ATOM     11  C   UNL     1      10.428  11.624  20.367  0.00  0.00    +0.000 A 
ATOM     12  C   UNL     1       9.720  10.793  19.494  0.00  0.00    +0.000 A 
ATOM     13  N   UNL     1       9.188   9.519  19.663  0.00  0.00    +0.000 N 
ATOM     14  H   UNL     1       9.391   8.910  20.438  0.00  0.00    +0.000 HD
BRANCH   9  15
ATOM     15  O   UNL     1      12.015  13.729  17.855  0.00  0.00    +0.000 OA
ATOM     16  H   UNL     1      12.322  13.283  17.044  0.00  0.00    +0.000 HD
ENDBRANCH   9  15
ENDBRANCH   2   5
BRANCH   3  17
ATOM     17  C   UNL     1       6.611   6.537  16.646  0.00  0.00    +0.000 C 
BRANCH  17  18
ATOM     18  C   UNL     1       5.424   6.118  17.470  0.00  0.00    +0.000 A 
ATOM     19  C   UNL     1       4.231   6.855  17.378  0.00  0.00    +0.000 A 
ATOM     20  C   UNL     1       3.115   6.496  18.131  0.00  0.00    +0.000 A 
ATOM     21  C   UNL     1       3.165   5.391  18.978  0.00  0.00    +0.000 A 
ATOM     22  C   UNL     1       4.343   4.647  19.082  0.00  0.00    +0.000 A 
ATOM     23  C   UNL     1       5.455   5.015  18.332  0.00  0.00    +0.000 A 
BRANCH  23  24
ATOM     24  O   UNL     1       6.611   4.282  18.434  0.00  0.00    +0.000 OA
ATOM     25  H   UNL     1       6.691   3.967  19.353  0.00  0.00    +0.000 HD
ENDBRANCH  23  24
ENDBRANCH  17  18
ENDBRANCH   3  17
TORSDOF 5
ENDMDL
MODEL 7
REMARK VINA RESULT:      -7.2      1.976      7.381
REMARK  Name = 
REMARK  5 active torsions:
REMARK  status: ('A' for Active; 'I' for Inactive)
REMARK    1  A    between atoms: C_2  and  C_12
REMARK    2  A    between atoms: N_3  and  C_4
REMARK    3  A    between atoms: C_4  and  C_5
REMARK    4  A    between atoms: C_10  and  O_11
REMARK    5  A    between atoms: C_16  and  O_17
REMARK                            x       y       z     vdW  Elec       q    Type
REMARK                         _______ _______ _______ _____ _____    ______ ____
ROOT
ATOM      1  O   UNL     1       5.285   7.004  16.831  0.00  0.00    +0.000 OA
ATOM      2  C   UNL     1       5.444   5.823  17.122  0.00  0.00    +0.000 C 
ATOM      3  N   UNL     1       6.413   5.023  16.581  0.00  0.00    +0.000 N 
ATOM      4  H   UNL     1       6.602   4.127  17.005  0.00  0.00    +0.000 HD
ENDROOT
BRANCH   2   5
ATOM      5  C   UNL     1       4.566   5.104  18.017  0.00  0.00    +0.000 A 
ATOM      6  C   UNL     1       4.122   3.793  17.933  0.00  0.00    +0.000 A 
ATOM      7  C   UNL     1       2.980   3.690  18.749  0.00  0.00    +0.000 A 
ATOM      8  C   UNL     1       1.915   2.779  18.791  0.00  0.00    +0.000 A 
ATOM      9  C   UNL     1       0.931   2.987  19.754  0.00  0.00    +0.000 A 
ATOM     10  C   UNL     1       1.079   3.931  20.760  0.00  0.00    +0.000 A 
ATOM     11  C   UNL     1       2.120   4.868  20.707  0.00  0.00    +0.000 A 
ATOM     12  C   UNL     1       2.987   4.776  19.614  0.00  0.00    +0.000 A 
ATOM     13  N   UNL     1       3.911   5.676  19.093  0.00  0.00    +0.000 N 
ATOM     14  H   UNL     1       3.976   6.647  19.350  0.00  0.00    +0.000 HD
BRANCH   9  15
ATOM     15  O   UNL     1      -0.249   2.306  19.664  0.00  0.00    +0.000 OA
ATOM     16  H   UNL     1      -0.604   2.275  20.573  0.00  0.00    +0.000 HD
ENDBRANCH   9  15
ENDBRANCH   2   5
BRANCH   3  17
ATOM     17  C   UNL     1       7.389   5.426  15.607  0.00  0.00    +0.000 C 
BRANCH  17  18
ATOM     18  C   UNL     1       7.071   4.836  14.260  0.00  0.00    +0.000 A 
ATOM     19  C   UNL     1       6.008   3.926  14.145  0.00  0.00    +0.000 A 
ATOM     20  C   UNL     1       5.690   3.358  12.912  0.00  0.00    +0.000 A 
ATOM     21  C   UNL     1       6.418   3.697  11.774  0.00  0.00    +0.000 A 
ATOM     22  C   UNL     1       7.478   4.602  11.870  0.00  0.00    +0.000 A 
ATOM     23  C   UNL     1       7.793   5.159  13.105  0.00  0.00    +0.000 A 
BRANCH  23  24
ATOM     24  O   UNL     1       8.835   6.049  13.198  0.00  0.00    +0.000 OA
ATOM     25  H   UNL     1       9.658   5.578  12.969  0.00  0.00    +0.000 HD
ENDBRANCH  23  24
ENDBRANCH  17  18
ENDBRANCH   3  17
TORSDOF 5
ENDMDL
MODEL 8
REMARK VINA RESULT:      -7.2      3.730      7.669
REMARK  Name = 
REMARK  5 active torsions:
REMARK  status: ('A' for Active; 'I' for Inactive)
REMARK    1  A    between atoms: C_2  and  C_12
REMARK    2  A    between atoms: N_3  and  C_4
REMARK    3  A    between atoms: C_4  and  C_5
REMARK    4  A    between atoms: C_10  and  O_11
REMARK    5  A    between atoms: C_16  and  O_17
REMARK                            x       y       z     vdW  Elec       q    Type
REMARK                         _______ _______ _______ _____ _____    ______ ____
ROOT
ATOM      1  O   UNL     1       4.567   5.468  19.723  0.00  0.00    +0.000 OA
ATOM      2  C   UNL     1       3.590   5.616  18.996  0.00  0.00    +0.000 C 
ATOM      3  N   UNL     1       3.288   4.798  17.942  0.00  0.00    +0.000 N 
ATOM      4  H   UNL     1       2.377   4.867  17.513  0.00  0.00    +0.000 HD
ENDROOT
BRANCH   2   5
ATOM      5  C   UNL     1       2.678   6.730  19.114  0.00  0.00    +0.000 A 
ATOM      6  C   UNL     1       2.226   7.593  18.127  0.00  0.00    +0.000 A 
ATOM      7  C   UNL     1       1.730   8.739  18.775  0.00  0.00    +0.000 A 
ATOM      8  C   UNL     1       1.496  10.054  18.345  0.00  0.00    +0.000 A 
ATOM      9  C   UNL     1       0.987  10.953  19.279  0.00  0.00    +0.000 A 
ATOM     10  C   UNL     1       0.544  10.539  20.526  0.00  0.00    +0.000 A 
ATOM     11  C   UNL     1       0.805   9.239  20.978  0.00  0.00    +0.000 A 
ATOM     12  C   UNL     1       1.504   8.403  20.103  0.00  0.00    +0.000 A 
ATOM     13  N   UNL     1       2.173   7.201  20.313  0.00  0.00    +0.000 N 
ATOM     14  H   UNL     1       2.399   6.820  21.216  0.00  0.00    +0.000 HD
BRANCH   9  15
ATOM     15  O   UNL     1       0.999  12.288  18.998  0.00  0.00    +0.000 OA
ATOM     16  H   UNL     1       1.932  12.564  19.073  0.00  0.00    +0.000 HD
ENDBRANCH   9  15
ENDBRANCH   2   5
BRANCH   3  17
ATOM     17  C   UNL     1       4.045   3.652  17.523  0.00  0.00    +0.000 C 
BRANCH  17  18
ATOM     18  C   UNL     1       5.151   4.058  16.587  0.00  0.00    +0.000 A 
ATOM     19  C   UNL     1       4.869   4.216  15.220  0.00  0.00    +0.000 A 
ATOM     20  C   UNL     1       5.872   4.587  14.326  0.00  0.00    +0.000 A 
ATOM     21  C   UNL     1       7.168   4.818  14.782  0.00  0.00    +0.000 A 
ATOM     22  C   UNL     1       7.467   4.665  16.139  0.00  0.00    +0.000 A 
ATOM     23  C   UNL     1       6.462   4.289  17.023  0.00  0.00    +0.000 A 
BRANCH  23  24
ATOM     24  O   UNL     1       6.756   4.141  18.356  0.00  0.00    +0.000 OA
ATOM     25  H   UNL     1       5.961   3.802  18.807  0.00  0.00    +0.000 HD
ENDBRANCH  23  24
ENDBRANCH  17  18
ENDBRANCH   3  17
TORSDOF 5
ENDMDL
MODEL 9
REMARK VINA RESULT:      -7.1      5.553      7.345
REMARK  Name = 
REMARK  5 active torsions:
REMARK  status: ('A' for Active; 'I' for Inactive)
REMARK    1  A    between atoms: C_2  and  C_12
REMARK    2  A    between atoms: N_3  and  C_4
REMARK    3  A    between atoms: C_4  and  C_5
REMARK    4  A    between atoms: C_10  and  O_11
REMARK    5  A    between atoms: C_16  and  O_17
REMARK                            x       y       z     vdW  Elec       q    Type
REMARK                         _______ _______ _______ _____ _____    ______ ____
ROOT
ATOM      1  O   UNL     1       7.803   7.363  16.698  0.00  0.00    +0.000 OA
ATOM      2  C   UNL     1       8.093   7.629  17.860  0.00  0.00    +0.000 C 
ATOM      3  N   UNL     1       8.070   6.722  18.883  0.00  0.00    +0.000 N 
ATOM      4  H   UNL     1       8.500   6.965  19.764  0.00  0.00    +0.000 HD
ENDROOT
BRANCH   2   5
ATOM      5  C   UNL     1       8.414   8.965  18.309  0.00  0.00    +0.000 A 
ATOM      6  C   UNL     1       8.245  10.170  17.644  0.00  0.00    +0.000 A 
ATOM      7  C   UNL     1       9.083  11.109  18.274  0.00  0.00    +0.000 A 
ATOM      8  C   UNL     1       9.620  12.338  17.861  0.00  0.00    +0.000 A 
ATOM      9  C   UNL     1      10.431  13.019  18.766  0.00  0.00    +0.000 A 
ATOM     10  C   UNL     1      10.555  12.613  20.086  0.00  0.00    +0.000 A 
ATOM     11  C   UNL     1      10.053  11.371  20.498  0.00  0.00    +0.000 A 
ATOM     12  C   UNL     1       9.417  10.601  19.521  0.00  0.00    +0.000 A 
ATOM     13  N   UNL     1       9.075   9.252  19.489  0.00  0.00    +0.000 N 
ATOM     14  H   UNL     1       9.403   8.561  20.142  0.00  0.00    +0.000 HD
BRANCH   9  15
ATOM     15  O   UNL     1      11.190  14.065  18.328  0.00  0.00    +0.000 OA
ATOM     16  H   UNL     1      11.084  14.766  18.999  0.00  0.00    +0.000 HD
ENDBRANCH   9  15
ENDBRANCH   2   5
BRANCH   3  17
ATOM     17  C   UNL     1       7.717   5.334  18.769  0.00  0.00    +0.000 C 
BRANCH  17  18
ATOM     18  C   UNL     1       6.272   5.183  18.376  0.00  0.00    +0.000 A 
ATOM     19  C   UNL     1       5.272   5.505  19.308  0.00  0.00    +0.000 A 
ATOM     20  C   UNL     1       3.924   5.372  18.977  0.00  0.00    +0.000 A 
ATOM     21  C   UNL     1       3.553   4.929  17.709  0.00  0.00    +0.000 A 
ATOM     22  C   UNL     1       4.535   4.606  16.770  0.00  0.00    +0.000 A 
ATOM     23  C   UNL     1       5.878   4.735  17.110  0.00  0.00    +0.000 A 
BRANCH  23  24
ATOM     24  O   UNL     1       6.841   4.418  16.185  0.00  0.00    +0.000 OA
ATOM     25  H   UNL     1       6.533   3.645  15.678  0.00  0.00    +0.000 HD
ENDBRANCH  23  24
ENDBRANCH  17  18
ENDBRANCH   3  17
TORSDOF 5
ENDMDL
