MODEL 1
REMARK VINA RESULT:      -8.9      0.000      0.000
REMARK  Name = 
REMARK  7 active torsions:
REMARK  status: ('A' for Active; 'I' for Inactive)
REMARK    1  A    between atoms: C_1  and  N_2
REMARK    2  A    between atoms: N_2  and  C_3
REMARK    3  A    between atoms: N_5  and  C_6
REMARK    4  A    between atoms: C_6  and  C_8
REMARK    5  A    between atoms: C_19  and  O_20
REMARK    6  A    between atoms: O_20  and  C_21
REMARK    7  A    between atoms: C_21  and  C_22
REMARK                            x       y       z     vdW  Elec       q    Type
REMARK                         _______ _______ _______ _____ _____    ______ ____
ROOT
ATOM      1  C   UNL     1       5.494   5.413  15.844  0.00  0.00    +0.000 A 
ATOM      2  C   UNL     1       5.319   6.800  16.060  0.00  0.00    +0.000 A 
ATOM      3  N   UNL     1       4.461   7.073  17.048  0.00  0.00    +0.000 NA
ATOM      4  N   UNL     1       4.085   5.853  17.475  0.00  0.00    +0.000 N 
ATOM      5  C   UNL     1       4.680   4.816  16.794  0.00  0.00    +0.000 A 
ATOM      6  N   UNL     1       4.424   3.517  17.120  0.00  0.00    +0.000 NA
ATOM      7  N   UNL     1       3.628   3.219  18.081  0.00  0.00    +0.000 N 
ATOM      8  O   UNL     1       3.395   2.006  18.400  0.00  0.00    +0.000 OA
ATOM      9  C   UNL     1       2.959   4.282  18.851  0.00  0.00    +0.000 A 
ATOM     10  C   UNL     1       2.093   3.975  19.904  0.00  0.00    +0.000 A 
ATOM     11  C   UNL     1       1.499   5.011  20.634  0.00  0.00    +0.000 A 
ATOM     12  C   UNL     1       1.770   6.350  20.327  0.00  0.00    +0.000 A 
ATOM     13  C   UNL     1       2.596   6.659  19.242  0.00  0.00    +0.000 A 
ATOM     14  C   UNL     1       3.198   5.621  18.529  0.00  0.00    +0.000 A 
ENDROOT
BRANCH   1  15
ATOM     15  C   UNL     1       6.328   4.733  14.872  0.00  0.00    +0.000 C 
ATOM     16  O   UNL     1       7.537   4.591  15.015  0.00  0.00    +0.000 OA
BRANCH  15  21
ATOM     17  C   UNL     1       4.278   3.215  11.477  0.00  0.00    +0.000 C 
ATOM     18  N   UNL     1       5.591   2.807  11.949  0.00  0.00    +0.000 N 
ATOM     19  C   UNL     1       6.312   1.800  11.193  0.00  0.00    +0.000 C 
ATOM     20  C   UNL     1       6.144   3.382  13.071  0.00  0.00    +0.000 C 
ATOM     21  N   UNL     1       5.588   4.288  13.801  0.00  0.00    +0.000 NA
ENDBRANCH  15  21
ENDBRANCH   1  15
BRANCH  12  22
ATOM     22  O   UNL     1       1.192   7.276  21.161  0.00  0.00    +0.000 OA
BRANCH  22  23
ATOM     23  C   UNL     1       1.252   8.624  20.681  0.00  0.00    +0.000 C 
BRANCH  23  24
ATOM     24  C   UNL     1       0.384   9.497  21.536  0.00  0.00    +0.000 A 
ATOM     25  C   UNL     1      -0.319   9.221  22.692  0.00  0.00    +0.000 A 
ATOM     26  C   UNL     1      -0.993  10.372  23.205  0.00  0.00    +0.000 A 
ATOM     27  C   UNL     1      -0.789  11.484  22.421  0.00  0.00    +0.000 A 
ATOM     28  S   UNL     1       0.198  11.145  21.071  0.00  0.00    +0.000 S 
ENDBRANCH  23  24
ENDBRANCH  22  23
ENDBRANCH  12  22
TORSDOF 5
ENDMDL
MODEL 2
REMARK VINA RESULT:      -8.5      1.288      1.503
REMARK  Name = 
REMARK  7 active torsions:
REMARK  status: ('A' for Active; 'I' for Inactive)
REMARK    1  A    between atoms: C_1  and  N_2
REMARK    2  A    between atoms: N_2  and  C_3
REMARK    3  A    between atoms: N_5  and  C_6
REMARK    4  A    between atoms: C_6  and  C_8
REMARK    5  A    between atoms: C_19  and  O_20
REMARK    6  A    between atoms: O_20  and  C_21
REMARK    7  A    between atoms: C_21  and  C_22
REMARK                            x       y       z     vdW  Elec       q    Type
REMARK                         _______ _______ _______ _____ _____    ______ ____
ROOT
ATOM      1  C   UNL     1       6.289   5.485  17.030  0.00  0.00    +0.000 A 
ATOM      2  C   UNL     1       5.847   6.805  16.775  0.00  0.00    +0.000 A 
ATOM      3  N   UNL     1       4.767   7.143  17.487  0.00  0.00    +0.000 NA
ATOM      4  N   UNL     1       4.515   6.035  18.209  0.00  0.00    +0.000 N 
ATOM      5  C   UNL     1       5.403   5.008  17.982  0.00  0.00    +0.000 A 
ATOM      6  N   UNL     1       5.300   3.825  18.653  0.00  0.00    +0.000 NA
ATOM      7  N   UNL     1       4.379   3.635  19.526  0.00  0.00    +0.000 N 
ATOM      8  O   UNL     1       4.287   2.535  20.166  0.00  0.00    +0.000 OA
ATOM      9  C   UNL     1       3.398   4.695  19.816  0.00  0.00    +0.000 A 
ATOM     10  C   UNL     1       2.392   4.505  20.768  0.00  0.00    +0.000 A 
ATOM     11  C   UNL     1       1.496   5.545  21.041  0.00  0.00    +0.000 A 
ATOM     12  C   UNL     1       1.602   6.774  20.379  0.00  0.00    +0.000 A 
ATOM     13  C   UNL     1       2.576   6.947  19.390  0.00  0.00    +0.000 A 
ATOM     14  C   UNL     1       3.476   5.912  19.135  0.00  0.00    +0.000 A 
ENDROOT
BRANCH   1  15
ATOM     15  C   UNL     1       7.410   4.765  16.456  0.00  0.00    +0.000 C 
ATOM     16  O   UNL     1       8.192   4.105  17.130  0.00  0.00    +0.000 OA
BRANCH  15  21
ATOM     17  C   UNL     1       7.407   5.038  12.218  0.00  0.00    +0.000 C 
ATOM     18  N   UNL     1       6.574   4.166  13.030  0.00  0.00    +0.000 N 
ATOM     19  C   UNL     1       5.656   3.266  12.355  0.00  0.00    +0.000 C 
ATOM     20  C   UNL     1       6.674   4.177  14.402  0.00  0.00    +0.000 C 
ATOM     21  N   UNL     1       7.464   4.929  15.092  0.00  0.00    +0.000 NA
ENDBRANCH  15  21
ENDBRANCH   1  15
BRANCH  12  22
ATOM     22  O   UNL     1       0.717   7.742  20.785  0.00  0.00    +0.000 OA
BRANCH  22  23
ATOM     23  C   UNL     1       1.237   8.646  21.767  0.00  0.00    +0.000 C 
BRANCH  23  24
ATOM     24  C   UNL     1       0.229   9.721  22.042  0.00  0.00    +0.000 A 
ATOM     25  C   UNL     1      -0.485  10.021  23.185  0.00  0.00    +0.000 A 
ATOM     26  C   UNL     1      -1.320  11.168  23.017  0.00  0.00    +0.000 A 
ATOM     27  C   UNL     1      -1.222  11.700  21.752  0.00  0.00    +0.000 A 
ATOM     28  S   UNL     1      -0.141  10.819  20.769  0.00  0.00    +0.000 S 
ENDBRANCH  23  24
ENDBRANCH  22  23
ENDBRANCH  12  22
TORSDOF 5
ENDMDL
MODEL 3
REMARK VINA RESULT:      -8.4      0.981      1.181
REMARK  Name = 
REMARK  7 active torsions:
REMARK  status: ('A' for Active; 'I' for Inactive)
REMARK    1  A    between atoms: C_1  and  N_2
REMARK    2  A    between atoms: N_2  and  C_3
REMARK    3  A    between atoms: N_5  and  C_6
REMARK    4  A    between atoms: C_6  and  C_8
REMARK    5  A    between atoms: C_19  and  O_20
REMARK    6  A    between atoms: O_20  and  C_21
REMARK    7  A    between atoms: C_21  and  C_22
REMARK                            x       y       z     vdW  Elec       q    Type
REMARK                         _______ _______ _______ _____ _____    ______ ____
ROOT
ATOM      1  C   UNL     1       5.456   5.366  15.846  0.00  0.00    +0.000 A 
ATOM      2  C   UNL     1       5.251   6.747  16.074  0.00  0.00    +0.000 A 
ATOM      3  N   UNL     1       4.380   6.993  17.058  0.00  0.00    +0.000 NA
ATOM      4  N   UNL     1       4.027   5.761  17.471  0.00  0.00    +0.000 N 
ATOM      5  C   UNL     1       4.648   4.743  16.784  0.00  0.00    +0.000 A 
ATOM      6  N   UNL     1       4.416   3.436  17.096  0.00  0.00    +0.000 NA
ATOM      7  N   UNL     1       3.620   3.112  18.048  0.00  0.00    +0.000 N 
ATOM      8  O   UNL     1       3.410   1.891  18.353  0.00  0.00    +0.000 OA
ATOM      9  C   UNL     1       2.924   4.154  18.823  0.00  0.00    +0.000 A 
ATOM     10  C   UNL     1       2.057   3.818  19.867  0.00  0.00    +0.000 A 
ATOM     11  C   UNL     1       1.437   4.834  20.603  0.00  0.00    +0.000 A 
ATOM     12  C   UNL     1       1.682   6.182  20.311  0.00  0.00    +0.000 A 
ATOM     13  C   UNL     1       2.509   6.518  19.235  0.00  0.00    +0.000 A 
ATOM     14  C   UNL     1       3.137   5.500  18.516  0.00  0.00    +0.000 A 
ENDROOT
BRANCH   1  15
ATOM     15  C   UNL     1       6.311   4.713  14.873  0.00  0.00    +0.000 C 
ATOM     16  O   UNL     1       7.522   4.603  15.019  0.00  0.00    +0.000 OA
BRANCH  15  21
ATOM     17  C   UNL     1       4.311   3.157  11.465  0.00  0.00    +0.000 C 
ATOM     18  N   UNL     1       5.634   2.785  11.937  0.00  0.00    +0.000 N 
ATOM     19  C   UNL     1       6.387   1.803  11.175  0.00  0.00    +0.000 C 
ATOM     20  C   UNL     1       6.168   3.368  13.063  0.00  0.00    +0.000 C 
ATOM     21  N   UNL     1       5.586   4.254  13.798  0.00  0.00    +0.000 NA
ENDBRANCH  15  21
ENDBRANCH   1  15
BRANCH  12  22
ATOM     22  O   UNL     1       1.079   7.087  21.149  0.00  0.00    +0.000 OA
BRANCH  22  23
ATOM     23  C   UNL     1       1.658   8.396  21.122  0.00  0.00    +0.000 C 
BRANCH  23  24
ATOM     24  C   UNL     1       0.724   9.343  20.430  0.00  0.00    +0.000 A 
ATOM     25  C   UNL     1      -0.452   9.928  20.857  0.00  0.00    +0.000 A 
ATOM     26  C   UNL     1      -1.006  10.807  19.877  0.00  0.00    +0.000 A 
ATOM     27  C   UNL     1      -0.243  10.857  18.734  0.00  0.00    +0.000 A 
ATOM     28  S   UNL     1       1.128   9.846  18.834  0.00  0.00    +0.000 S 
ENDBRANCH  23  24
ENDBRANCH  22  23
ENDBRANCH  12  22
TORSDOF 5
ENDMDL
MODEL 4
REMARK VINA RESULT:      -8.2      1.779      2.116
REMARK  Name = 
REMARK  7 active torsions:
REMARK  status: ('A' for Active; 'I' for Inactive)
REMARK    1  A    between atoms: C_1  and  N_2
REMARK    2  A    between atoms: N_2  and  C_3
REMARK    3  A    between atoms: N_5  and  C_6
REMARK    4  A    between atoms: C_6  and  C_8
REMARK    5  A    between atoms: C_19  and  O_20
REMARK    6  A    between atoms: O_20  and  C_21
REMARK    7  A    between atoms: C_21  and  C_22
REMARK                            x       y       z     vdW  Elec       q    Type
REMARK                         _______ _______ _______ _____ _____    ______ ____
ROOT
ATOM      1  C   UNL     1       6.269   5.559  17.034  0.00  0.00    +0.000 A 
ATOM      2  C   UNL     1       5.884   6.897  16.782  0.00  0.00    +0.000 A 
ATOM      3  N   UNL     1       4.808   7.274  17.479  0.00  0.00    +0.000 NA
ATOM      4  N   UNL     1       4.501   6.173  18.190  0.00  0.00    +0.000 N 
ATOM      5  C   UNL     1       5.349   5.112  17.970  0.00  0.00    +0.000 A 
ATOM      6  N   UNL     1       5.188   3.931  18.631  0.00  0.00    +0.000 NA
ATOM      7  N   UNL     1       4.247   3.772  19.488  0.00  0.00    +0.000 N 
ATOM      8  O   UNL     1       4.101   2.673  20.120  0.00  0.00    +0.000 OA
ATOM      9  C   UNL     1       3.305   4.870  19.771  0.00  0.00    +0.000 A 
ATOM     10  C   UNL     1       2.278   4.715  20.706  0.00  0.00    +0.000 A 
ATOM     11  C   UNL     1       1.420   5.789  20.972  0.00  0.00    +0.000 A 
ATOM     12  C   UNL     1       1.586   7.017  20.320  0.00  0.00    +0.000 A 
ATOM     13  C   UNL     1       2.582   7.156  19.348  0.00  0.00    +0.000 A 
ATOM     14  C   UNL     1       3.443   6.087  19.099  0.00  0.00    +0.000 A 
ENDROOT
BRANCH   1  15
ATOM     15  C   UNL     1       7.368   4.797  16.472  0.00  0.00    +0.000 C 
ATOM     16  O   UNL     1       8.117   4.108  17.155  0.00  0.00    +0.000 OA
BRANCH  15  21
ATOM     17  C   UNL     1       7.438   5.062  12.235  0.00  0.00    +0.000 C 
ATOM     18  N   UNL     1       6.609   4.174  13.033  0.00  0.00    +0.000 N 
ATOM     19  C   UNL     1       5.723   3.254  12.343  0.00  0.00    +0.000 C 
ATOM     20  C   UNL     1       6.683   4.190  14.407  0.00  0.00    +0.000 C 
ATOM     21  N   UNL     1       7.444   4.960  15.109  0.00  0.00    +0.000 NA
ENDBRANCH  15  21
ENDBRANCH   1  15
BRANCH  12  22
ATOM     22  O   UNL     1       0.735   8.018  20.719  0.00  0.00    +0.000 OA
BRANCH  22  23
ATOM     23  C   UNL     1       1.173   9.338  20.380  0.00  0.00    +0.000 C 
BRANCH  23  24
ATOM     24  C   UNL     1       0.089  10.045  19.622  0.00  0.00    +0.000 A 
ATOM     25  C   UNL     1      -0.322   9.926  18.309  0.00  0.00    +0.000 A 
ATOM     26  C   UNL     1      -1.432  10.774  18.010  0.00  0.00    +0.000 A 
ATOM     27  C   UNL     1      -1.826  11.516  19.100  0.00  0.00    +0.000 A 
ATOM     28  S   UNL     1      -0.860  11.203  20.471  0.00  0.00    +0.000 S 
ENDBRANCH  23  24
ENDBRANCH  22  23
ENDBRANCH  12  22
TORSDOF 5
ENDMDL
MODEL 5
REMARK VINA RESULT:      -7.8      5.570     10.679
REMARK  Name = 
REMARK  7 active torsions:
REMARK  status: ('A' for Active; 'I' for Inactive)
REMARK    1  A    between atoms: C_1  and  N_2
REMARK    2  A    between atoms: N_2  and  C_3
REMARK    3  A    between atoms: N_5  and  C_6
REMARK    4  A    between atoms: C_6  and  C_8
REMARK    5  A    between atoms: C_19  and  O_20
REMARK    6  A    between atoms: O_20  and  C_21
REMARK    7  A    between atoms: C_21  and  C_22
REMARK                            x       y       z     vdW  Elec       q    Type
REMARK                         _______ _______ _______ _____ _____    ______ ____
ROOT
ATOM      1  C   UNL     1      -0.961  11.390  22.542  0.00  0.00    +0.000 A 
ATOM      2  C   UNL     1      -0.748  10.162  23.211  0.00  0.00    +0.000 A 
ATOM      3  N   UNL     1      -0.058   9.279  22.481  0.00  0.00    +0.000 NA
ATOM      4  N   UNL     1       0.181   9.946  21.336  0.00  0.00    +0.000 N 
ATOM      5  C   UNL     1      -0.332  11.223  21.318  0.00  0.00    +0.000 A 
ATOM      6  N   UNL     1      -0.157  12.039  20.239  0.00  0.00    +0.000 NA
ATOM      7  N   UNL     1       0.501  11.647  19.210  0.00  0.00    +0.000 N 
ATOM      8  O   UNL     1       0.680  12.411  18.204  0.00  0.00    +0.000 OA
ATOM      9  C   UNL     1       1.077  10.291  19.167  0.00  0.00    +0.000 A 
ATOM     10  C   UNL     1       1.801   9.850  18.056  0.00  0.00    +0.000 A 
ATOM     11  C   UNL     1       2.359   8.567  18.061  0.00  0.00    +0.000 A 
ATOM     12  C   UNL     1       2.209   7.725  19.170  0.00  0.00    +0.000 A 
ATOM     13  C   UNL     1       1.443   8.147  20.261  0.00  0.00    +0.000 A 
ATOM     14  C   UNL     1       0.902   9.433  20.255  0.00  0.00    +0.000 A 
ENDROOT
BRANCH   1  15
ATOM     15  C   UNL     1      -1.661  12.575  22.997  0.00  0.00    +0.000 C 
ATOM     16  O   UNL     1      -1.159  13.393  23.759  0.00  0.00    +0.000 OA
BRANCH  15  21
ATOM     17  C   UNL     1      -5.681  12.743  21.639  0.00  0.00    +0.000 C 
ATOM     18  N   UNL     1      -5.233  12.760  23.022  0.00  0.00    +0.000 N 
ATOM     19  C   UNL     1      -6.236  12.813  24.070  0.00  0.00    +0.000 C 
ATOM     20  C   UNL     1      -3.893  12.701  23.327  0.00  0.00    +0.000 C 
ATOM     21  N   UNL     1      -2.930  12.641  22.470  0.00  0.00    +0.000 NA
ENDBRANCH  15  21
ENDBRANCH   1  15
BRANCH  12  22
ATOM     22  O   UNL     1       2.867   6.522  19.092  0.00  0.00    +0.000 OA
BRANCH  22  23
ATOM     23  C   UNL     1       2.341   5.623  18.110  0.00  0.00    +0.000 C 
BRANCH  23  24
ATOM     24  C   UNL     1       1.935   4.340  18.772  0.00  0.00    +0.000 A 
ATOM     25  C   UNL     1       1.738   3.076  18.252  0.00  0.00    +0.000 A 
ATOM     26  C   UNL     1       1.388   2.125  19.259  0.00  0.00    +0.000 A 
ATOM     27  C   UNL     1       1.323   2.694  20.510  0.00  0.00    +0.000 A 
ATOM     28  S   UNL     1       1.670   4.364  20.473  0.00  0.00    +0.000 S 
ENDBRANCH  23  24
ENDBRANCH  22  23
ENDBRANCH  12  22
TORSDOF 5
ENDMDL
MODEL 6
REMARK VINA RESULT:      -7.7      2.447      4.758
REMARK  Name = 
REMARK  7 active torsions:
REMARK  status: ('A' for Active; 'I' for Inactive)
REMARK    1  A    between atoms: C_1  and  N_2
REMARK    2  A    between atoms: N_2  and  C_3
REMARK    3  A    between atoms: N_5  and  C_6
REMARK    4  A    between atoms: C_6  and  C_8
REMARK    5  A    between atoms: C_19  and  O_20
REMARK    6  A    between atoms: O_20  and  C_21
REMARK    7  A    between atoms: C_21  and  C_22
REMARK                            x       y       z     vdW  Elec       q    Type
REMARK                         _______ _______ _______ _____ _____    ______ ____
ROOT
ATOM      1  C   UNL     1       2.562   5.131  19.089  0.00  0.00    +0.000 A 
ATOM      2  C   UNL     1       2.265   4.834  20.440  0.00  0.00    +0.000 A 
ATOM      3  N   UNL     1       1.859   5.901  21.135  0.00  0.00    +0.000 NA
ATOM      4  N   UNL     1       1.890   6.892  20.225  0.00  0.00    +0.000 N 
ATOM      5  C   UNL     1       2.298   6.487  18.974  0.00  0.00    +0.000 A 
ATOM      6  N   UNL     1       2.361   7.366  17.933  0.00  0.00    +0.000 NA
ATOM      7  N   UNL     1       2.033   8.597  18.083  0.00  0.00    +0.000 N 
ATOM      8  O   UNL     1       2.077   9.420  17.108  0.00  0.00    +0.000 OA
ATOM      9  C   UNL     1       1.587   9.094  19.396  0.00  0.00    +0.000 A 
ATOM     10  C   UNL     1       1.220  10.431  19.574  0.00  0.00    +0.000 A 
ATOM     11  C   UNL     1       0.772  10.862  20.828  0.00  0.00    +0.000 A 
ATOM     12  C   UNL     1       0.678   9.967  21.901  0.00  0.00    +0.000 A 
ATOM     13  C   UNL     1       1.092   8.642  21.737  0.00  0.00    +0.000 A 
ATOM     14  C   UNL     1       1.523   8.215  20.481  0.00  0.00    +0.000 A 
ENDROOT
BRANCH   1  15
ATOM     15  C   UNL     1       3.030   4.251  18.036  0.00  0.00    +0.000 C 
ATOM     16  O   UNL     1       2.292   3.474  17.442  0.00  0.00    +0.000 OA
BRANCH  15  21
ATOM     17  C   UNL     1       7.148   4.639  17.076  0.00  0.00    +0.000 C 
ATOM     18  N   UNL     1       6.070   4.329  16.153  0.00  0.00    +0.000 N 
ATOM     19  C   UNL     1       6.402   4.098  14.758  0.00  0.00    +0.000 C 
ATOM     20  C   UNL     1       4.771   4.233  16.596  0.00  0.00    +0.000 C 
ATOM     21  N   UNL     1       4.377   4.409  17.812  0.00  0.00    +0.000 NA
ENDBRANCH  15  21
ENDBRANCH   1  15
BRANCH  12  22
ATOM     22  O   UNL     1       0.152  10.486  23.059  0.00  0.00    +0.000 OA
BRANCH  22  23
ATOM     23  C   UNL     1      -1.276  10.591  23.066  0.00  0.00    +0.000 C 
BRANCH  23  24
ATOM     24  C   UNL     1      -1.671  12.037  23.090  0.00  0.00    +0.000 A 
ATOM     25  C   UNL     1      -0.908  13.186  23.014  0.00  0.00    +0.000 A 
ATOM     26  C   UNL     1      -1.707  14.370  23.035  0.00  0.00    +0.000 A 
ATOM     27  C   UNL     1      -3.049  14.088  23.134  0.00  0.00    +0.000 A 
ATOM     28  S   UNL     1      -3.348  12.410  23.211  0.00  0.00    +0.000 S 
ENDBRANCH  23  24
ENDBRANCH  22  23
ENDBRANCH  12  22
TORSDOF 5
ENDMDL
MODEL 7
REMARK VINA RESULT:      -7.6      5.548     10.738
REMARK  Name = 
REMARK  7 active torsions:
REMARK  status: ('A' for Active; 'I' for Inactive)
REMARK    1  A    between atoms: C_1  and  N_2
REMARK    2  A    between atoms: N_2  and  C_3
REMARK    3  A    between atoms: N_5  and  C_6
REMARK    4  A    between atoms: C_6  and  C_8
REMARK    5  A    between atoms: C_19  and  O_20
REMARK    6  A    between atoms: O_20  and  C_21
REMARK    7  A    between atoms: C_21  and  C_22
REMARK                            x       y       z     vdW  Elec       q    Type
REMARK                         _______ _______ _______ _____ _____    ______ ____
ROOT
ATOM      1  C   UNL     1      -0.998  11.439  22.519  0.00  0.00    +0.000 A 
ATOM      2  C   UNL     1      -0.818  10.301  23.340  0.00  0.00    +0.000 A 
ATOM      3  N   UNL     1      -0.128   9.325  22.741  0.00  0.00    +0.000 NA
ATOM      4  N   UNL     1       0.145   9.841  21.528  0.00  0.00    +0.000 N 
ATOM      5  C   UNL     1      -0.347  11.113  21.340  0.00  0.00    +0.000 A 
ATOM      6  N   UNL     1      -0.136  11.786  20.172  0.00  0.00    +0.000 NA
ATOM      7  N   UNL     1       0.537  11.259  19.215  0.00  0.00    +0.000 N 
ATOM      8  O   UNL     1       0.749  11.890  18.126  0.00  0.00    +0.000 OA
ATOM      9  C   UNL     1       1.091   9.901  19.353  0.00  0.00    +0.000 A 
ATOM     10  C   UNL     1       1.830   9.315  18.322  0.00  0.00    +0.000 A 
ATOM     11  C   UNL     1       2.367   8.035  18.499  0.00  0.00    +0.000 A 
ATOM     12  C   UNL     1       2.181   7.340  19.701  0.00  0.00    +0.000 A 
ATOM     13  C   UNL     1       1.399   7.904  20.714  0.00  0.00    +0.000 A 
ATOM     14  C   UNL     1       0.880   9.187  20.536  0.00  0.00    +0.000 A 
ENDROOT
BRANCH   1  15
ATOM     15  C   UNL     1      -1.688  12.681  22.808  0.00  0.00    +0.000 C 
ATOM     16  O   UNL     1      -1.175  13.595  23.445  0.00  0.00    +0.000 OA
BRANCH  15  21
ATOM     17  C   UNL     1      -5.715  12.647  21.461  0.00  0.00    +0.000 C 
ATOM     18  N   UNL     1      -5.264  12.710  22.841  0.00  0.00    +0.000 N 
ATOM     19  C   UNL     1      -6.266  12.739  23.892  0.00  0.00    +0.000 C 
ATOM     20  C   UNL     1      -3.922  12.715  23.143  0.00  0.00    +0.000 C 
ATOM     21  N   UNL     1      -2.959  12.681  22.284  0.00  0.00    +0.000 NA
ENDBRANCH  15  21
ENDBRANCH   1  15
BRANCH  12  22
ATOM     22  O   UNL     1       2.820   6.128  19.788  0.00  0.00    +0.000 OA
BRANCH  22  23
ATOM     23  C   UNL     1       1.966   5.032  20.136  0.00  0.00    +0.000 C 
BRANCH  23  24
ATOM     24  C   UNL     1       2.321   3.837  19.302  0.00  0.00    +0.000 A 
ATOM     25  C   UNL     1       1.617   3.187  18.307  0.00  0.00    +0.000 A 
ATOM     26  C   UNL     1       2.355   2.102  17.742  0.00  0.00    +0.000 A 
ATOM     27  C   UNL     1       3.591   1.955  18.328  0.00  0.00    +0.000 A 
ATOM     28  S   UNL     1       3.859   3.108  19.557  0.00  0.00    +0.000 S 
ENDBRANCH  23  24
ENDBRANCH  22  23
ENDBRANCH  12  22
TORSDOF 5
ENDMDL
MODEL 8
REMARK VINA RESULT:      -7.6      5.414     10.892
REMARK  Name = 
REMARK  7 active torsions:
REMARK  status: ('A' for Active; 'I' for Inactive)
REMARK    1  A    between atoms: C_1  and  N_2
REMARK    2  A    between atoms: N_2  and  C_3
REMARK    3  A    between atoms: N_5  and  C_6
REMARK    4  A    between atoms: C_6  and  C_8
REMARK    5  A    between atoms: C_19  and  O_20
REMARK    6  A    between atoms: O_20  and  C_21
REMARK    7  A    between atoms: C_21  and  C_22
REMARK                            x       y       z     vdW  Elec       q    Type
REMARK                         _______ _______ _______ _____ _____    ______ ____
ROOT
ATOM      1  C   UNL     1      -1.110  11.027  22.618  0.00  0.00    +0.000 A 
ATOM      2  C   UNL     1      -0.556   9.975  23.385  0.00  0.00    +0.000 A 
ATOM      3  N   UNL     1       0.207   9.147  22.666  0.00  0.00    +0.000 NA
ATOM      4  N   UNL     1       0.151   9.672  21.428  0.00  0.00    +0.000 N 
ATOM      5  C   UNL     1      -0.621  10.809  21.340  0.00  0.00    +0.000 A 
ATOM      6  N   UNL     1      -0.762  11.477  20.159  0.00  0.00    +0.000 NA
ATOM      7  N   UNL     1      -0.171  11.073  19.094  0.00  0.00    +0.000 N 
ATOM      8  O   UNL     1      -0.289  11.702  17.990  0.00  0.00    +0.000 OA
ATOM      9  C   UNL     1       0.670   9.864  19.121  0.00  0.00    +0.000 A 
ATOM     10  C   UNL     1       1.324   9.414  17.971  0.00  0.00    +0.000 A 
ATOM     11  C   UNL     1       2.139   8.279  18.040  0.00  0.00    +0.000 A 
ATOM     12  C   UNL     1       2.314   7.596  19.250  0.00  0.00    +0.000 A 
ATOM     13  C   UNL     1       1.620   8.015  20.390  0.00  0.00    +0.000 A 
ATOM     14  C   UNL     1       0.822   9.156  20.317  0.00  0.00    +0.000 A 
ENDROOT
BRANCH   1  15
ATOM     15  C   UNL     1      -1.983  12.108  23.035  0.00  0.00    +0.000 C 
ATOM     16  O   UNL     1      -3.140  11.927  23.394  0.00  0.00    +0.000 OA
BRANCH  15  21
ATOM     17  C   UNL     1      -0.141  15.934  23.070  0.00  0.00    +0.000 C 
ATOM     18  N   UNL     1      -0.916  15.336  24.145  0.00  0.00    +0.000 N 
ATOM     19  C   UNL     1      -1.122  16.108  25.358  0.00  0.00    +0.000 C 
ATOM     20  C   UNL     1      -1.461  14.080  24.004  0.00  0.00    +0.000 C 
ATOM     21  N   UNL     1      -1.343  13.323  22.966  0.00  0.00    +0.000 NA
ENDBRANCH  15  21
ENDBRANCH   1  15
BRANCH  12  22
ATOM     22  O   UNL     1       3.198   6.545  19.213  0.00  0.00    +0.000 OA
BRANCH  22  23
ATOM     23  C   UNL     1       3.664   6.209  17.901  0.00  0.00    +0.000 C 
BRANCH  23  24
ATOM     24  C   UNL     1       5.163   6.225  17.884  0.00  0.00    +0.000 A 
ATOM     25  C   UNL     1       6.051   6.921  17.087  0.00  0.00    +0.000 A 
ATOM     26  C   UNL     1       7.411   6.666  17.441  0.00  0.00    +0.000 A 
ATOM     27  C   UNL     1       7.517   5.780  18.489  0.00  0.00    +0.000 A 
ATOM     28  S   UNL     1       5.990   5.250  19.037  0.00  0.00    +0.000 S 
ENDBRANCH  23  24
ENDBRANCH  22  23
ENDBRANCH  12  22
TORSDOF 5
ENDMDL
MODEL 9
REMARK VINA RESULT:      -7.5      5.769     10.717
REMARK  Name = 
REMARK  7 active torsions:
REMARK  status: ('A' for Active; 'I' for Inactive)
REMARK    1  A    between atoms: C_1  and  N_2
REMARK    2  A    between atoms: N_2  and  C_3
REMARK    3  A    between atoms: N_5  and  C_6
REMARK    4  A    between atoms: C_6  and  C_8
REMARK    5  A    between atoms: C_19  and  O_20
REMARK    6  A    between atoms: O_20  and  C_21
REMARK    7  A    between atoms: C_21  and  C_22
REMARK                            x       y       z     vdW  Elec       q    Type
REMARK                         _______ _______ _______ _____ _____    ______ ____
ROOT
ATOM      1  C   UNL     1      -0.992  11.065  22.630  0.00  0.00    +0.000 A 
ATOM      2  C   UNL     1      -0.589   9.856  23.246  0.00  0.00    +0.000 A 
ATOM      3  N   UNL     1       0.128   9.070  22.438  0.00  0.00    +0.000 NA
ATOM      4  N   UNL     1       0.193   9.779  21.296  0.00  0.00    +0.000 N 
ATOM      5  C   UNL     1      -0.456  10.991  21.354  0.00  0.00    +0.000 A 
ATOM      6  N   UNL     1      -0.464  11.840  20.287  0.00  0.00    +0.000 NA
ATOM      7  N   UNL     1       0.143  11.542  19.197  0.00  0.00    +0.000 N 
ATOM      8  O   UNL     1       0.151  12.339  18.201  0.00  0.00    +0.000 OA
ATOM      9  C   UNL     1       0.858  10.260  19.070  0.00  0.00    +0.000 A 
ATOM     10  C   UNL     1       1.529   9.922  17.891  0.00  0.00    +0.000 A 
ATOM     11  C   UNL     1       2.223   8.710  17.815  0.00  0.00    +0.000 A 
ATOM     12  C   UNL     1       2.261   7.837  18.910  0.00  0.00    +0.000 A 
ATOM     13  C   UNL     1       1.549   8.151  20.072  0.00  0.00    +0.000 A 
ATOM     14  C   UNL     1       0.872   9.368  20.145  0.00  0.00    +0.000 A 
ENDROOT
BRANCH   1  15
ATOM     15  C   UNL     1      -1.777  12.156  23.174  0.00  0.00    +0.000 C 
ATOM     16  O   UNL     1      -2.894  11.999  23.651  0.00  0.00    +0.000 OA
BRANCH  15  21
ATOM     17  C   UNL     1       0.095  15.966  23.046  0.00  0.00    +0.000 C 
ATOM     18  N   UNL     1      -0.992  15.565  23.923  0.00  0.00    +0.000 N 
ATOM     19  C   UNL     1      -1.534  16.549  24.843  0.00  0.00    +0.000 C 
ATOM     20  C   UNL     1      -1.510  14.292  23.863  0.00  0.00    +0.000 C 
ATOM     21  N   UNL     1      -1.106  13.353  23.076  0.00  0.00    +0.000 NA
ENDBRANCH  15  21
ENDBRANCH   1  15
BRANCH  12  22
ATOM     22  O   UNL     1       3.037   6.716  18.745  0.00  0.00    +0.000 OA
BRANCH  22  23
ATOM     23  C   UNL     1       3.097   5.862  19.893  0.00  0.00    +0.000 C 
BRANCH  23  24
ATOM     24  C   UNL     1       2.249   4.648  19.658  0.00  0.00    +0.000 A 
ATOM     25  C   UNL     1       1.390   3.968  20.499  0.00  0.00    +0.000 A 
ATOM     26  C   UNL     1       0.747   2.873  19.846  0.00  0.00    +0.000 A 
ATOM     27  C   UNL     1       1.140   2.748  18.533  0.00  0.00    +0.000 A 
ATOM     28  S   UNL     1       2.284   3.935  18.092  0.00  0.00    +0.000 S 
ENDBRANCH  23  24
ENDBRANCH  22  23
ENDBRANCH  12  22
TORSDOF 5
ENDMDL
