MODEL 1
REMARK VINA RESULT:      -6.4      0.000      0.000
REMARK  Name = 
REMARK  8 active torsions:
REMARK  status: ('A' for Active; 'I' for Inactive)
REMARK    1  A    between atoms: C_2  and  C_3
REMARK    2  A    between atoms: C_2  and  O_12
REMARK    3  A    between atoms: C_3  and  C_4
REMARK    4  A    between atoms: C_4  and  C_5
REMARK    5  A    between atoms: O_12  and  C_13
REMARK    6  A    between atoms: C_13  and  C_14
REMARK    7  A    between atoms: C_14  and  C_15
REMARK    8  A    between atoms: C_15  and  C_16
REMARK                            x       y       z     vdW  Elec       q    Type
REMARK                         _______ _______ _______ _____ _____    ______ ____
ROOT
ATOM      1  O   UNL     1       1.938   2.889  22.226  0.00  0.00    +0.000 OA
ATOM      2  C   UNL     1       1.580   3.103  21.074  0.00  0.00    +0.000 C 
ENDROOT
BRANCH   2   3
ATOM      3  C   UNL     1       1.197   4.472  20.553  0.00  0.00    +0.000 C 
BRANCH   3   4
ATOM      4  C   UNL     1       2.368   5.449  20.534  0.00  0.00    +0.000 C 
BRANCH   4   5
ATOM      5  C   UNL     1       1.967   6.867  20.219  0.00  0.00    +0.000 A 
ATOM      6  C   UNL     1       2.366   7.468  19.017  0.00  0.00    +0.000 A 
ATOM      7  C   UNL     1       1.925   8.749  18.681  0.00  0.00    +0.000 A 
ATOM      8  C   UNL     1       1.088   9.441  19.554  0.00  0.00    +0.000 A 
ATOM      9  I   UNL     1       0.376  11.324  19.032  0.00  0.00    +0.000 I 
ATOM     10  C   UNL     1       0.709   8.871  20.769  0.00  0.00    +0.000 A 
ATOM     11  C   UNL     1       1.153   7.587  21.099  0.00  0.00    +0.000 A 
ENDBRANCH   4   5
ENDBRANCH   3   4
ENDBRANCH   2   3
BRANCH   2  12
ATOM     12  O   UNL     1       1.664   2.204  20.059  0.00  0.00    +0.000 OA
BRANCH  12  13
ATOM     13  C   UNL     1       1.334   2.701  18.761  0.00  0.00    +0.000 C 
BRANCH  13  14
ATOM     14  C   UNL     1       2.275   2.177  17.690  0.00  0.00    +0.000 C 
BRANCH  14  15
ATOM     15  C   UNL     1       3.696   2.111  18.250  0.00  0.00    +0.000 C 
BRANCH  15  16
ATOM     16  C   UNL     1       4.380   3.429  18.238  0.00  0.00    +0.000 A 
ATOM     17  C   UNL     1       4.359   4.404  17.267  0.00  0.00    +0.000 A 
ATOM     18  N   UNL     1       5.174   5.394  17.737  0.00  0.00    +0.000 N 
ATOM     19  C   UNL     1       5.656   4.994  18.948  0.00  0.00    +0.000 A 
ATOM     20  N   UNL     1       5.191   3.810  19.282  0.00  0.00    +0.000 NA
ATOM     21  H   UNL     1       5.394   6.268  17.273  0.00  0.00    +0.000 HD
ENDBRANCH  15  16
ENDBRANCH  14  15
ENDBRANCH  13  14
ENDBRANCH  12  13
ENDBRANCH   2  12
TORSDOF 8
ENDMDL
MODEL 2
REMARK VINA RESULT:      -6.2      5.343      7.476
REMARK  Name = 
REMARK  8 active torsions:
REMARK  status: ('A' for Active; 'I' for Inactive)
REMARK    1  A    between atoms: C_2  and  C_3
REMARK    2  A    between atoms: C_2  and  O_12
REMARK    3  A    between atoms: C_3  and  C_4
REMARK    4  A    between atoms: C_4  and  C_5
REMARK    5  A    between atoms: O_12  and  C_13
REMARK    6  A    between atoms: C_13  and  C_14
REMARK    7  A    between atoms: C_14  and  C_15
REMARK    8  A    between atoms: C_15  and  C_16
REMARK                            x       y       z     vdW  Elec       q    Type
REMARK                         _______ _______ _______ _____ _____    ______ ____
ROOT
ATOM      1  O   UNL     1       7.677   5.593  15.379  0.00  0.00    +0.000 OA
ATOM      2  C   UNL     1       6.592   5.997  15.777  0.00  0.00    +0.000 C 
ENDROOT
BRANCH   2   3
ATOM      3  C   UNL     1       5.276   5.314  15.470  0.00  0.00    +0.000 C 
BRANCH   3   4
ATOM      4  C   UNL     1       5.207   3.889  16.009  0.00  0.00    +0.000 C 
BRANCH   4   5
ATOM      5  C   UNL     1       4.352   3.750  17.243  0.00  0.00    +0.000 A 
ATOM      6  C   UNL     1       2.986   3.453  17.131  0.00  0.00    +0.000 A 
ATOM      7  C   UNL     1       2.210   3.238  18.271  0.00  0.00    +0.000 A 
ATOM      8  C   UNL     1       2.796   3.330  19.532  0.00  0.00    +0.000 A 
ATOM      9  I   UNL     1       1.660   2.949  21.231  0.00  0.00    +0.000 I 
ATOM     10  C   UNL     1       4.144   3.658  19.661  0.00  0.00    +0.000 A 
ATOM     11  C   UNL     1       4.918   3.871  18.516  0.00  0.00    +0.000 A 
ENDBRANCH   4   5
ENDBRANCH   3   4
ENDBRANCH   2   3
BRANCH   2  12
ATOM     12  O   UNL     1       6.423   6.980  16.700  0.00  0.00    +0.000 OA
BRANCH  12  13
ATOM     13  C   UNL     1       7.544   7.232  17.550  0.00  0.00    +0.000 C 
BRANCH  13  14
ATOM     14  C   UNL     1       7.848   8.715  17.671  0.00  0.00    +0.000 C 
BRANCH  14  15
ATOM     15  C   UNL     1       8.843   8.939  18.810  0.00  0.00    +0.000 C 
BRANCH  15  16
ATOM     16  C   UNL     1       9.127  10.375  19.052  0.00  0.00    +0.000 A 
ATOM     17  C   UNL     1       9.396  11.015  20.241  0.00  0.00    +0.000 A 
ATOM     18  N   UNL     1       9.553  12.331  19.912  0.00  0.00    +0.000 N 
ATOM     19  C   UNL     1       9.374  12.445  18.565  0.00  0.00    +0.000 A 
ATOM     20  N   UNL     1       9.118  11.279  18.014  0.00  0.00    +0.000 NA
ATOM     21  H   UNL     1       9.758  13.093  20.547  0.00  0.00    +0.000 HD
ENDBRANCH  15  16
ENDBRANCH  14  15
ENDBRANCH  13  14
ENDBRANCH  12  13
ENDBRANCH   2  12
TORSDOF 8
ENDMDL
MODEL 3
REMARK VINA RESULT:      -6.2      6.908      8.177
REMARK  Name = 
REMARK  8 active torsions:
REMARK  status: ('A' for Active; 'I' for Inactive)
REMARK    1  A    between atoms: C_2  and  C_3
REMARK    2  A    between atoms: C_2  and  O_12
REMARK    3  A    between atoms: C_3  and  C_4
REMARK    4  A    between atoms: C_4  and  C_5
REMARK    5  A    between atoms: O_12  and  C_13
REMARK    6  A    between atoms: C_13  and  C_14
REMARK    7  A    between atoms: C_14  and  C_15
REMARK    8  A    between atoms: C_15  and  C_16
REMARK                            x       y       z     vdW  Elec       q    Type
REMARK                         _______ _______ _______ _____ _____    ______ ____
ROOT
ATOM      1  O   UNL     1       8.186   6.966  18.778  0.00  0.00    +0.000 OA
ATOM      2  C   UNL     1       7.787   7.701  17.883  0.00  0.00    +0.000 C 
ENDROOT
BRANCH   2   3
ATOM      3  C   UNL     1       8.065   9.188  17.828  0.00  0.00    +0.000 C 
BRANCH   3   4
ATOM      4  C   UNL     1       9.033   9.651  18.912  0.00  0.00    +0.000 C 
BRANCH   4   5
ATOM      5  C   UNL     1       9.631  11.009  18.648  0.00  0.00    +0.000 A 
ATOM      6  C   UNL     1      10.919  11.320  19.108  0.00  0.00    +0.000 A 
ATOM      7  C   UNL     1      11.511  12.544  18.791  0.00  0.00    +0.000 A 
ATOM      8  C   UNL     1      10.811  13.469  18.020  0.00  0.00    +0.000 A 
ATOM      9  I   UNL     1      11.711  15.268  17.492  0.00  0.00    +0.000 I 
ATOM     10  C   UNL     1       9.517  13.189  17.583  0.00  0.00    +0.000 A 
ATOM     11  C   UNL     1       8.930  11.961  17.902  0.00  0.00    +0.000 A 
ENDBRANCH   4   5
ENDBRANCH   3   4
ENDBRANCH   2   3
BRANCH   2  12
ATOM     12  O   UNL     1       7.220   7.271  16.725  0.00  0.00    +0.000 OA
BRANCH  12  13
ATOM     13  C   UNL     1       5.859   6.845  16.822  0.00  0.00    +0.000 C 
BRANCH  13  14
ATOM     14  C   UNL     1       5.596   5.583  16.020  0.00  0.00    +0.000 C 
BRANCH  14  15
ATOM     15  C   UNL     1       6.924   4.999  15.539  0.00  0.00    +0.000 C 
BRANCH  15  16
ATOM     16  C   UNL     1       6.884   4.572  14.118  0.00  0.00    +0.000 A 
ATOM     17  C   UNL     1       7.666   4.994  13.066  0.00  0.00    +0.000 A 
ATOM     18  N   UNL     1       7.200   4.312  11.978  0.00  0.00    +0.000 N 
ATOM     19  C   UNL     1       6.172   3.520  12.395  0.00  0.00    +0.000 A 
ATOM     20  N   UNL     1       5.958   3.651  13.686  0.00  0.00    +0.000 NA
ATOM     21  H   UNL     1       7.545   4.381  11.028  0.00  0.00    +0.000 HD
ENDBRANCH  15  16
ENDBRANCH  14  15
ENDBRANCH  13  14
ENDBRANCH  12  13
ENDBRANCH   2  12
TORSDOF 8
ENDMDL
MODEL 4
REMARK VINA RESULT:      -6.2      1.814      2.628
REMARK  Name = 
REMARK  8 active torsions:
REMARK  status: ('A' for Active; 'I' for Inactive)
REMARK    1  A    between atoms: C_2  and  C_3
REMARK    2  A    between atoms: C_2  and  O_12
REMARK    3  A    between atoms: C_3  and  C_4
REMARK    4  A    between atoms: C_4  and  C_5
REMARK    5  A    between atoms: O_12  and  C_13
REMARK    6  A    between atoms: C_13  and  C_14
REMARK    7  A    between atoms: C_14  and  C_15
REMARK    8  A    between atoms: C_15  and  C_16
REMARK                            x       y       z     vdW  Elec       q    Type
REMARK                         _______ _______ _______ _____ _____    ______ ____
ROOT
ATOM      1  O   UNL     1       1.066   3.294  18.728  0.00  0.00    +0.000 OA
ATOM      2  C   UNL     1       1.820   4.258  18.699  0.00  0.00    +0.000 C 
ENDROOT
BRANCH   2   3
ATOM      3  C   UNL     1       2.132   5.118  19.905  0.00  0.00    +0.000 C 
BRANCH   3   4
ATOM      4  C   UNL     1       3.014   6.316  19.568  0.00  0.00    +0.000 C 
BRANCH   4   5
ATOM      5  C   UNL     1       2.248   7.603  19.402  0.00  0.00    +0.000 A 
ATOM      6  C   UNL     1       2.184   8.236  18.152  0.00  0.00    +0.000 A 
ATOM      7  C   UNL     1       1.405   9.380  17.973  0.00  0.00    +0.000 A 
ATOM      8  C   UNL     1       0.692   9.904  19.049  0.00  0.00    +0.000 A 
ATOM      9  I   UNL     1      -0.520  11.571  18.775  0.00  0.00    +0.000 I 
ATOM     10  C   UNL     1       0.772   9.307  20.306  0.00  0.00    +0.000 A 
ATOM     11  C   UNL     1       1.553   8.160  20.479  0.00  0.00    +0.000 A 
ENDBRANCH   4   5
ENDBRANCH   3   4
ENDBRANCH   2   3
BRANCH   2  12
ATOM     12  O   UNL     1       2.629   4.576  17.654  0.00  0.00    +0.000 OA
BRANCH  12  13
ATOM     13  C   UNL     1       3.432   3.510  17.145  0.00  0.00    +0.000 C 
BRANCH  13  14
ATOM     14  C   UNL     1       4.903   3.883  17.076  0.00  0.00    +0.000 C 
BRANCH  14  15
ATOM     15  C   UNL     1       5.038   5.338  16.626  0.00  0.00    +0.000 C 
BRANCH  15  16
ATOM     16  C   UNL     1       6.192   6.030  17.253  0.00  0.00    +0.000 A 
ATOM     17  C   UNL     1       6.964   5.628  18.320  0.00  0.00    +0.000 A 
ATOM     18  N   UNL     1       7.866   6.637  18.508  0.00  0.00    +0.000 N 
ATOM     19  C   UNL     1       7.614   7.597  17.573  0.00  0.00    +0.000 A 
ATOM     20  N   UNL     1       6.609   7.258  16.796  0.00  0.00    +0.000 NA
ATOM     21  H   UNL     1       8.589   6.677  19.216  0.00  0.00    +0.000 HD
ENDBRANCH  15  16
ENDBRANCH  14  15
ENDBRANCH  13  14
ENDBRANCH  12  13
ENDBRANCH   2  12
TORSDOF 8
ENDMDL
MODEL 5
REMARK VINA RESULT:      -6.2      5.735      7.041
REMARK  Name = 
REMARK  8 active torsions:
REMARK  status: ('A' for Active; 'I' for Inactive)
REMARK    1  A    between atoms: C_2  and  C_3
REMARK    2  A    between atoms: C_2  and  O_12
REMARK    3  A    between atoms: C_3  and  C_4
REMARK    4  A    between atoms: C_4  and  C_5
REMARK    5  A    between atoms: O_12  and  C_13
REMARK    6  A    between atoms: C_13  and  C_14
REMARK    7  A    between atoms: C_14  and  C_15
REMARK    8  A    between atoms: C_15  and  C_16
REMARK                            x       y       z     vdW  Elec       q    Type
REMARK                         _______ _______ _______ _____ _____    ______ ____
ROOT
ATOM      1  O   UNL     1       7.738   6.564  16.273  0.00  0.00    +0.000 OA
ATOM      2  C   UNL     1       7.190   7.157  17.194  0.00  0.00    +0.000 C 
ENDROOT
BRANCH   2   3
ATOM      3  C   UNL     1       7.519   8.580  17.592  0.00  0.00    +0.000 C 
BRANCH   3   4
ATOM      4  C   UNL     1       8.640   8.665  18.622  0.00  0.00    +0.000 C 
BRANCH   4   5
ATOM      5  C   UNL     1       9.085  10.074  18.916  0.00  0.00    +0.000 A 
ATOM      6  C   UNL     1       9.091  11.044  17.902  0.00  0.00    +0.000 A 
ATOM      7  C   UNL     1       9.419  12.370  18.189  0.00  0.00    +0.000 A 
ATOM      8  C   UNL     1       9.754  12.731  19.493  0.00  0.00    +0.000 A 
ATOM      9  I   UNL     1      10.182  14.717  19.938  0.00  0.00    +0.000 I 
ATOM     10  C   UNL     1       9.786  11.773  20.505  0.00  0.00    +0.000 A 
ATOM     11  C   UNL     1       9.455  10.446  20.212  0.00  0.00    +0.000 A 
ENDBRANCH   4   5
ENDBRANCH   3   4
ENDBRANCH   2   3
BRANCH   2  12
ATOM     12  O   UNL     1       6.091   6.710  17.856  0.00  0.00    +0.000 OA
BRANCH  12  13
ATOM     13  C   UNL     1       4.962   6.392  17.039  0.00  0.00    +0.000 C 
BRANCH  13  14
ATOM     14  C   UNL     1       3.942   5.543  17.778  0.00  0.00    +0.000 C 
BRANCH  14  15
ATOM     15  C   UNL     1       3.884   4.152  17.146  0.00  0.00    +0.000 C 
BRANCH  15  16
ATOM     16  C   UNL     1       2.891   3.264  17.801  0.00  0.00    +0.000 A 
ATOM     17  C   UNL     1       2.992   1.922  18.091  0.00  0.00    +0.000 A 
ATOM     18  N   UNL     1       1.797   1.590  18.663  0.00  0.00    +0.000 N 
ATOM     19  C   UNL     1       1.026   2.714  18.697  0.00  0.00    +0.000 A 
ATOM     20  N   UNL     1       1.661   3.746  18.186  0.00  0.00    +0.000 NA
ATOM     21  H   UNL     1       1.520   0.674  18.998  0.00  0.00    +0.000 HD
ENDBRANCH  15  16
ENDBRANCH  14  15
ENDBRANCH  13  14
ENDBRANCH  12  13
ENDBRANCH   2  12
TORSDOF 8
ENDMDL
MODEL 6
REMARK VINA RESULT:      -6.1      2.325      3.851
REMARK  Name = 
REMARK  8 active torsions:
REMARK  status: ('A' for Active; 'I' for Inactive)
REMARK    1  A    between atoms: C_2  and  C_3
REMARK    2  A    between atoms: C_2  and  O_12
REMARK    3  A    between atoms: C_3  and  C_4
REMARK    4  A    between atoms: C_4  and  C_5
REMARK    5  A    between atoms: O_12  and  C_13
REMARK    6  A    between atoms: C_13  and  C_14
REMARK    7  A    between atoms: C_14  and  C_15
REMARK    8  A    between atoms: C_15  and  C_16
REMARK                            x       y       z     vdW  Elec       q    Type
REMARK                         _______ _______ _______ _____ _____    ______ ____
ROOT
ATOM      1  O   UNL     1       4.341   2.308  19.797  0.00  0.00    +0.000 OA
ATOM      2  C   UNL     1       4.783   3.311  19.250  0.00  0.00    +0.000 C 
ENDROOT
BRANCH   2   3
ATOM      3  C   UNL     1       4.219   3.888  17.969  0.00  0.00    +0.000 C 
BRANCH   3   4
ATOM      4  C   UNL     1       2.706   4.072  18.017  0.00  0.00    +0.000 C 
BRANCH   4   5
ATOM      5  C   UNL     1       2.266   5.247  18.852  0.00  0.00    +0.000 A 
ATOM      6  C   UNL     1       1.683   5.045  20.112  0.00  0.00    +0.000 A 
ATOM      7  C   UNL     1       1.354   6.131  20.926  0.00  0.00    +0.000 A 
ATOM      8  C   UNL     1       1.598   7.427  20.477  0.00  0.00    +0.000 A 
ATOM      9  I   UNL     1       1.170   9.046  21.709  0.00  0.00    +0.000 I 
ATOM     10  C   UNL     1       2.146   7.646  19.214  0.00  0.00    +0.000 A 
ATOM     11  C   UNL     1       2.475   6.555  18.404  0.00  0.00    +0.000 A 
ENDBRANCH   4   5
ENDBRANCH   3   4
ENDBRANCH   2   3
BRANCH   2  12
ATOM     12  O   UNL     1       5.696   4.153  19.801  0.00  0.00    +0.000 OA
BRANCH  12  13
ATOM     13  C   UNL     1       5.876   5.400  19.126  0.00  0.00    +0.000 C 
BRANCH  13  14
ATOM     14  C   UNL     1       7.333   5.665  18.791  0.00  0.00    +0.000 C 
BRANCH  14  15
ATOM     15  C   UNL     1       7.419   6.474  17.496  0.00  0.00    +0.000 C 
BRANCH  15  16
ATOM     16  C   UNL     1       6.804   5.775  16.340  0.00  0.00    +0.000 A 
ATOM     17  C   UNL     1       5.631   6.064  15.679  0.00  0.00    +0.000 A 
ATOM     18  N   UNL     1       5.516   5.102  14.717  0.00  0.00    +0.000 N 
ATOM     19  C   UNL     1       6.596   4.276  14.826  0.00  0.00    +0.000 A 
ATOM     20  N   UNL     1       7.397   4.659  15.796  0.00  0.00    +0.000 NA
ATOM     21  H   UNL     1       4.764   5.005  14.045  0.00  0.00    +0.000 HD
ENDBRANCH  15  16
ENDBRANCH  14  15
ENDBRANCH  13  14
ENDBRANCH  12  13
ENDBRANCH   2  12
TORSDOF 8
ENDMDL
MODEL 7
REMARK VINA RESULT:      -6.1      6.633      8.385
REMARK  Name = 
REMARK  8 active torsions:
REMARK  status: ('A' for Active; 'I' for Inactive)
REMARK    1  A    between atoms: C_2  and  C_3
REMARK    2  A    between atoms: C_2  and  O_12
REMARK    3  A    between atoms: C_3  and  C_4
REMARK    4  A    between atoms: C_4  and  C_5
REMARK    5  A    between atoms: O_12  and  C_13
REMARK    6  A    between atoms: C_13  and  C_14
REMARK    7  A    between atoms: C_14  and  C_15
REMARK    8  A    between atoms: C_15  and  C_16
REMARK                            x       y       z     vdW  Elec       q    Type
REMARK                         _______ _______ _______ _____ _____    ______ ____
ROOT
ATOM      1  O   UNL     1       8.218   6.689  18.936  0.00  0.00    +0.000 OA
ATOM      2  C   UNL     1       7.737   7.188  17.926  0.00  0.00    +0.000 C 
ENDROOT
BRANCH   2   3
ATOM      3  C   UNL     1       6.839   6.439  16.964  0.00  0.00    +0.000 C 
BRANCH   3   4
ATOM      4  C   UNL     1       5.380   6.873  17.054  0.00  0.00    +0.000 C 
BRANCH   4   5
ATOM      5  C   UNL     1       4.533   5.972  17.915  0.00  0.00    +0.000 A 
ATOM      6  C   UNL     1       5.079   4.810  18.480  0.00  0.00    +0.000 A 
ATOM      7  C   UNL     1       4.324   4.018  19.347  0.00  0.00    +0.000 A 
ATOM      8  C   UNL     1       3.013   4.382  19.647  0.00  0.00    +0.000 A 
ATOM      9  I   UNL     1       1.904   3.243  20.988  0.00  0.00    +0.000 I 
ATOM     10  C   UNL     1       2.444   5.515  19.068  0.00  0.00    +0.000 A 
ATOM     11  C   UNL     1       3.205   6.304  18.200  0.00  0.00    +0.000 A 
ENDBRANCH   4   5
ENDBRANCH   3   4
ENDBRANCH   2   3
BRANCH   2  12
ATOM     12  O   UNL     1       7.769   8.513  17.627  0.00  0.00    +0.000 OA
BRANCH  12  13
ATOM     13  C   UNL     1       8.611   9.316  18.458  0.00  0.00    +0.000 C 
BRANCH  13  14
ATOM     14  C   UNL     1       8.716  10.745  17.954  0.00  0.00    +0.000 C 
BRANCH  14  15
ATOM     15  C   UNL     1      10.107  11.295  18.271  0.00  0.00    +0.000 C 
BRANCH  15  16
ATOM     16  C   UNL     1      10.286  12.699  17.824  0.00  0.00    +0.000 A 
ATOM     17  C   UNL     1      11.123  13.196  16.850  0.00  0.00    +0.000 A 
ATOM     18  N   UNL     1      10.920  14.546  16.859  0.00  0.00    +0.000 N 
ATOM     19  C   UNL     1       9.990  14.819  17.818  0.00  0.00    +0.000 A 
ATOM     20  N   UNL     1       9.583  13.722  18.418  0.00  0.00    +0.000 NA
ATOM     21  H   UNL     1      11.378  15.230  16.269  0.00  0.00    +0.000 HD
ENDBRANCH  15  16
ENDBRANCH  14  15
ENDBRANCH  13  14
ENDBRANCH  12  13
ENDBRANCH   2  12
TORSDOF 8
ENDMDL
MODEL 8
REMARK VINA RESULT:      -6.0      1.861      2.808
REMARK  Name = 
REMARK  8 active torsions:
REMARK  status: ('A' for Active; 'I' for Inactive)
REMARK    1  A    between atoms: C_2  and  C_3
REMARK    2  A    between atoms: C_2  and  O_12
REMARK    3  A    between atoms: C_3  and  C_4
REMARK    4  A    between atoms: C_4  and  C_5
REMARK    5  A    between atoms: O_12  and  C_13
REMARK    6  A    between atoms: C_13  and  C_14
REMARK    7  A    between atoms: C_14  and  C_15
REMARK    8  A    between atoms: C_15  and  C_16
REMARK                            x       y       z     vdW  Elec       q    Type
REMARK                         _______ _______ _______ _____ _____    ______ ____
ROOT
ATOM      1  O   UNL     1       1.143   3.995  17.519  0.00  0.00    +0.000 OA
ATOM      2  C   UNL     1       2.029   4.066  18.361  0.00  0.00    +0.000 C 
ENDROOT
BRANCH   2   3
ATOM      3  C   UNL     1       1.878   4.793  19.681  0.00  0.00    +0.000 C 
BRANCH   3   4
ATOM      4  C   UNL     1       2.823   5.982  19.815  0.00  0.00    +0.000 C 
BRANCH   4   5
ATOM      5  C   UNL     1       2.154   7.314  19.591  0.00  0.00    +0.000 A 
ATOM      6  C   UNL     1       1.475   7.953  20.639  0.00  0.00    +0.000 A 
ATOM      7  C   UNL     1       0.929   9.226  20.461  0.00  0.00    +0.000 A 
ATOM      8  C   UNL     1       1.051   9.862  19.227  0.00  0.00    +0.000 A 
ATOM      9  I   UNL     1       0.296  11.782  18.974  0.00  0.00    +0.000 I 
ATOM     10  C   UNL     1       1.693   9.226  18.166  0.00  0.00    +0.000 A 
ATOM     11  C   UNL     1       2.239   7.952  18.350  0.00  0.00    +0.000 A 
ENDBRANCH   4   5
ENDBRANCH   3   4
ENDBRANCH   2   3
BRANCH   2  12
ATOM     12  O   UNL     1       3.185   3.352  18.330  0.00  0.00    +0.000 OA
BRANCH  12  13
ATOM     13  C   UNL     1       3.872   3.338  17.077  0.00  0.00    +0.000 C 
BRANCH  13  14
ATOM     14  C   UNL     1       4.703   4.592  16.867  0.00  0.00    +0.000 C 
BRANCH  14  15
ATOM     15  C   UNL     1       5.793   4.665  17.936  0.00  0.00    +0.000 C 
BRANCH  15  16
ATOM     16  C   UNL     1       6.590   5.916  17.860  0.00  0.00    +0.000 A 
ATOM     17  C   UNL     1       6.450   6.978  16.996  0.00  0.00    +0.000 A 
ATOM     18  N   UNL     1       7.448   7.847  17.334  0.00  0.00    +0.000 N 
ATOM     19  C   UNL     1       8.148   7.294  18.365  0.00  0.00    +0.000 A 
ATOM     20  N   UNL     1       7.652   6.126  18.710  0.00  0.00    +0.000 NA
ATOM     21  H   UNL     1       7.647   8.740  16.898  0.00  0.00    +0.000 HD
ENDBRANCH  15  16
ENDBRANCH  14  15
ENDBRANCH  13  14
ENDBRANCH  12  13
ENDBRANCH   2  12
TORSDOF 8
ENDMDL
MODEL 9
REMARK VINA RESULT:      -5.9      2.597      5.141
REMARK  Name = 
REMARK  8 active torsions:
REMARK  status: ('A' for Active; 'I' for Inactive)
REMARK    1  A    between atoms: C_2  and  C_3
REMARK    2  A    between atoms: C_2  and  O_12
REMARK    3  A    between atoms: C_3  and  C_4
REMARK    4  A    between atoms: C_4  and  C_5
REMARK    5  A    between atoms: O_12  and  C_13
REMARK    6  A    between atoms: C_13  and  C_14
REMARK    7  A    between atoms: C_14  and  C_15
REMARK    8  A    between atoms: C_15  and  C_16
REMARK                            x       y       z     vdW  Elec       q    Type
REMARK                         _______ _______ _______ _____ _____    ______ ____
ROOT
ATOM      1  O   UNL     1       0.862   2.745  18.323  0.00  0.00    +0.000 OA
ATOM      2  C   UNL     1       1.799   2.643  19.104  0.00  0.00    +0.000 C 
ENDROOT
BRANCH   2   3
ATOM      3  C   UNL     1       3.109   1.965  18.762  0.00  0.00    +0.000 C 
BRANCH   3   4
ATOM      4  C   UNL     1       3.680   2.418  17.422  0.00  0.00    +0.000 C 
BRANCH   4   5
ATOM      5  C   UNL     1       4.498   3.681  17.509  0.00  0.00    +0.000 A 
ATOM      6  C   UNL     1       5.205   3.990  18.680  0.00  0.00    +0.000 A 
ATOM      7  C   UNL     1       6.033   5.113  18.735  0.00  0.00    +0.000 A 
ATOM      8  C   UNL     1       6.149   5.939  17.619  0.00  0.00    +0.000 A 
ATOM      9  I   UNL     1       7.429   7.577  17.673  0.00  0.00    +0.000 I 
ATOM     10  C   UNL     1       5.427   5.665  16.459  0.00  0.00    +0.000 A 
ATOM     11  C   UNL     1       4.600   4.538  16.409  0.00  0.00    +0.000 A 
ENDBRANCH   4   5
ENDBRANCH   3   4
ENDBRANCH   2   3
BRANCH   2  12
ATOM     12  O   UNL     1       1.882   3.282  20.300  0.00  0.00    +0.000 OA
BRANCH  12  13
ATOM     13  C   UNL     1       1.075   4.453  20.435  0.00  0.00    +0.000 C 
BRANCH  13  14
ATOM     14  C   UNL     1       1.911   5.710  20.603  0.00  0.00    +0.000 C 
BRANCH  14  15
ATOM     15  C   UNL     1       2.416   6.172  19.236  0.00  0.00    +0.000 C 
BRANCH  15  16
ATOM     16  C   UNL     1       2.128   7.603  18.970  0.00  0.00    +0.000 A 
ATOM     17  C   UNL     1       1.523   8.530  19.790  0.00  0.00    +0.000 A 
ATOM     18  N   UNL     1       1.478   9.681  19.056  0.00  0.00    +0.000 N 
ATOM     19  C   UNL     1       2.040   9.420  17.841  0.00  0.00    +0.000 A 
ATOM     20  N   UNL     1       2.447   8.172  17.759  0.00  0.00    +0.000 NA
ATOM     21  H   UNL     1       1.092  10.570  19.349  0.00  0.00    +0.000 HD
ENDBRANCH  15  16
ENDBRANCH  14  15
ENDBRANCH  13  14
ENDBRANCH  12  13
ENDBRANCH   2  12
TORSDOF 8
ENDMDL
