MODEL 1
REMARK VINA RESULT:      -6.9      0.000      0.000
REMARK  Name = 
REMARK  6 active torsions:
REMARK  status: ('A' for Active; 'I' for Inactive)
REMARK    1  A    between atoms: C_1  and  N_2
REMARK    2  A    between atoms: N_4  and  N_5
REMARK    3  A    between atoms: N_8  and  C_9
REMARK    4  A    between atoms: C_9  and  C_10
REMARK    5  A    between atoms: C_10  and  C_11
REMARK    6  A    between atoms: C_15  and  C_16
REMARK                            x       y       z     vdW  Elec       q    Type
REMARK                         _______ _______ _______ _____ _____    ______ ____
ROOT
ATOM      1  C   UNL     1       7.531   4.956  18.195  0.00  0.00    +0.000 C 
ATOM      2  N   UNL     1       7.471   4.439  16.841  0.00  0.00    +0.000 N 
ATOM      3  C   UNL     1       6.319   4.133  16.162  0.00  0.00    +0.000 C 
ATOM      4  N   UNL     1       6.052   4.227  14.894  0.00  0.00    +0.000 NA
ATOM      5  N   UNL     1       5.353   3.645  17.002  0.00  0.00    +0.000 N 
ATOM      6  H   UNL     1       8.173   4.876  16.236  0.00  0.00    +0.000 HD
ATOM      7  H   UNL     1       5.611   3.459  17.955  0.00  0.00    +0.000 HD
ENDROOT
BRANCH   4   8
ATOM      8  N   UNL     1       6.966   4.672  14.018  0.00  0.00    +0.000 N 
ATOM      9  O   UNL     1       7.791   5.550  14.325  0.00  0.00    +0.000 OA
ATOM     10  O   UNL     1       6.926   4.183  12.880  0.00  0.00    +0.000 OA
ENDBRANCH   4   8
BRANCH   5  11
ATOM     11  C   UNL     1       3.939   3.697  16.684  0.00  0.00    +0.000 C 
BRANCH  11  12
ATOM     12  C   UNL     1       3.046   3.620  17.933  0.00  0.00    +0.000 C 
ATOM     13  C   UNL     1       1.729   4.394  17.724  0.00  0.00    +0.000 C 
ATOM     14  C   UNL     1       2.713   2.146  18.191  0.00  0.00    +0.000 C 
ATOM     15  O   UNL     1       2.421   2.058  19.586  0.00  0.00    +0.000 OA
ATOM     16  C   UNL     1       3.290   2.975  20.261  0.00  0.00    +0.000 C 
ATOM     17  C   UNL     1       3.786   3.993  19.233  0.00  0.00    +0.000 C 
ATOM     18  C   UNL     1       3.613   5.423  19.740  0.00  0.00    +0.000 C 
ENDBRANCH  11  12
ENDBRANCH   5  11
TORSDOF 3
ENDMDL
MODEL 2
REMARK VINA RESULT:      -6.8      0.812      1.411
REMARK  Name = 
REMARK  6 active torsions:
REMARK  status: ('A' for Active; 'I' for Inactive)
REMARK    1  A    between atoms: C_1  and  N_2
REMARK    2  A    between atoms: N_4  and  N_5
REMARK    3  A    between atoms: N_8  and  C_9
REMARK    4  A    between atoms: C_9  and  C_10
REMARK    5  A    between atoms: C_10  and  C_11
REMARK    6  A    between atoms: C_15  and  C_16
REMARK                            x       y       z     vdW  Elec       q    Type
REMARK                         _______ _______ _______ _____ _____    ______ ____
ROOT
ATOM      1  C   UNL     1       7.688   5.136  18.108  0.00  0.00    +0.000 C 
ATOM      2  N   UNL     1       7.527   4.532  16.799  0.00  0.00    +0.000 N 
ATOM      3  C   UNL     1       6.327   4.194  16.227  0.00  0.00    +0.000 C 
ATOM      4  N   UNL     1       5.969   4.207  14.978  0.00  0.00    +0.000 NA
ATOM      5  N   UNL     1       5.422   3.771  17.165  0.00  0.00    +0.000 N 
ATOM      6  H   UNL     1       8.186   4.921  16.117  0.00  0.00    +0.000 HD
ATOM      7  H   UNL     1       5.748   3.645  18.107  0.00  0.00    +0.000 HD
ENDROOT
BRANCH   4   8
ATOM      8  N   UNL     1       6.819   4.584  14.011  0.00  0.00    +0.000 N 
ATOM      9  O   UNL     1       7.633   5.508  14.181  0.00  0.00    +0.000 OA
ATOM     10  O   UNL     1       6.730   3.983  12.930  0.00  0.00    +0.000 OA
ENDBRANCH   4   8
BRANCH   5  11
ATOM     11  C   UNL     1       3.989   3.817  16.947  0.00  0.00    +0.000 C 
BRANCH  11  12
ATOM     12  C   UNL     1       3.190   3.848  18.260  0.00  0.00    +0.000 C 
ATOM     13  C   UNL     1       3.629   5.028  19.151  0.00  0.00    +0.000 C 
ATOM     14  C   UNL     1       1.707   4.019  17.914  0.00  0.00    +0.000 C 
ATOM     15  O   UNL     1       0.989   3.474  19.019  0.00  0.00    +0.000 OA
ATOM     16  C   UNL     1       1.735   2.348  19.497  0.00  0.00    +0.000 C 
ATOM     17  C   UNL     1       3.172   2.491  18.993  0.00  0.00    +0.000 C 
ATOM     18  C   UNL     1       4.179   2.304  20.125  0.00  0.00    +0.000 C 
ENDBRANCH  11  12
ENDBRANCH   5  11
TORSDOF 3
ENDMDL
MODEL 3
REMARK VINA RESULT:      -6.7      1.104      1.116
REMARK  Name = 
REMARK  6 active torsions:
REMARK  status: ('A' for Active; 'I' for Inactive)
REMARK    1  A    between atoms: C_1  and  N_2
REMARK    2  A    between atoms: N_4  and  N_5
REMARK    3  A    between atoms: N_8  and  C_9
REMARK    4  A    between atoms: C_9  and  C_10
REMARK    5  A    between atoms: C_10  and  C_11
REMARK    6  A    between atoms: C_15  and  C_16
REMARK                            x       y       z     vdW  Elec       q    Type
REMARK                         _______ _______ _______ _____ _____    ______ ____
ROOT
ATOM      1  C   UNL     1       7.829   5.510  18.806  0.00  0.00    +0.000 C 
ATOM      2  N   UNL     1       7.468   4.784  17.603  0.00  0.00    +0.000 N 
ATOM      3  C   UNL     1       6.205   4.713  17.072  0.00  0.00    +0.000 C 
ATOM      4  N   UNL     1       5.830   4.636  15.830  0.00  0.00    +0.000 NA
ATOM      5  N   UNL     1       5.245   4.709  18.049  0.00  0.00    +0.000 N 
ATOM      6  H   UNL     1       8.189   4.864  16.880  0.00  0.00    +0.000 HD
ATOM      7  H   UNL     1       5.550   4.641  19.004  0.00  0.00    +0.000 HD
ENDROOT
BRANCH   4   8
ATOM      8  N   UNL     1       6.724   4.608  14.830  0.00  0.00    +0.000 N 
ATOM      9  O   UNL     1       7.690   5.389  14.796  0.00  0.00    +0.000 OA
ATOM     10  O   UNL     1       6.519   3.783  13.927  0.00  0.00    +0.000 OA
ENDBRANCH   4   8
BRANCH   5  11
ATOM     11  C   UNL     1       3.877   5.122  17.805  0.00  0.00    +0.000 C 
BRANCH  11  12
ATOM     12  C   UNL     1       2.848   4.134  18.378  0.00  0.00    +0.000 C 
ATOM     13  C   UNL     1       1.475   4.302  17.695  0.00  0.00    +0.000 C 
ATOM     14  C   UNL     1       3.354   2.711  18.117  0.00  0.00    +0.000 C 
ATOM     15  O   UNL     1       2.739   1.896  19.114  0.00  0.00    +0.000 OA
ATOM     16  C   UNL     1       2.659   2.677  20.312  0.00  0.00    +0.000 C 
ATOM     17  C   UNL     1       2.781   4.150  19.918  0.00  0.00    +0.000 C 
ATOM     18  C   UNL     1       1.673   4.988  20.552  0.00  0.00    +0.000 C 
ENDBRANCH  11  12
ENDBRANCH   5  11
TORSDOF 3
ENDMDL
MODEL 4
REMARK VINA RESULT:      -6.7      2.233      2.995
REMARK  Name = 
REMARK  6 active torsions:
REMARK  status: ('A' for Active; 'I' for Inactive)
REMARK    1  A    between atoms: C_1  and  N_2
REMARK    2  A    between atoms: N_4  and  N_5
REMARK    3  A    between atoms: N_8  and  C_9
REMARK    4  A    between atoms: C_9  and  C_10
REMARK    5  A    between atoms: C_10  and  C_11
REMARK    6  A    between atoms: C_15  and  C_16
REMARK                            x       y       z     vdW  Elec       q    Type
REMARK                         _______ _______ _______ _____ _____    ______ ____
ROOT
ATOM      1  C   UNL     1       5.960   4.147  14.904  0.00  0.00    +0.000 C 
ATOM      2  N   UNL     1       6.121   4.735  16.221  0.00  0.00    +0.000 N 
ATOM      3  C   UNL     1       5.490   4.307  17.361  0.00  0.00    +0.000 C 
ATOM      4  N   UNL     1       5.908   4.304  18.591  0.00  0.00    +0.000 NA
ATOM      5  N   UNL     1       4.229   3.843  17.095  0.00  0.00    +0.000 N 
ATOM      6  H   UNL     1       7.092   5.014  16.396  0.00  0.00    +0.000 HD
ATOM      7  H   UNL     1       3.870   3.967  16.164  0.00  0.00    +0.000 HD
ENDROOT
BRANCH   4   8
ATOM      8  N   UNL     1       7.123   4.771  18.918  0.00  0.00    +0.000 N 
ATOM      9  O   UNL     1       8.132   4.489  18.249  0.00  0.00    +0.000 OA
ATOM     10  O   UNL     1       7.190   5.474  19.937  0.00  0.00    +0.000 OA
ENDBRANCH   4   8
BRANCH   5  11
ATOM     11  C   UNL     1       3.536   2.914  17.966  0.00  0.00    +0.000 C 
BRANCH  11  12
ATOM     12  C   UNL     1       2.297   3.535  18.632  0.00  0.00    +0.000 C 
ATOM     13  C   UNL     1       1.471   4.351  17.617  0.00  0.00    +0.000 C 
ATOM     14  C   UNL     1       1.424   2.397  19.173  0.00  0.00    +0.000 C 
ATOM     15  O   UNL     1       0.660   2.972  20.233  0.00  0.00    +0.000 OA
ATOM     16  C   UNL     1       1.496   3.930  20.890  0.00  0.00    +0.000 C 
ATOM     17  C   UNL     1       2.625   4.304  19.928  0.00  0.00    +0.000 C 
ATOM     18  C   UNL     1       2.777   5.819  19.812  0.00  0.00    +0.000 C 
ENDBRANCH  11  12
ENDBRANCH   5  11
TORSDOF 3
ENDMDL
MODEL 5
REMARK VINA RESULT:      -6.6      2.205      3.070
REMARK  Name = 
REMARK  6 active torsions:
REMARK  status: ('A' for Active; 'I' for Inactive)
REMARK    1  A    between atoms: C_1  and  N_2
REMARK    2  A    between atoms: N_4  and  N_5
REMARK    3  A    between atoms: N_8  and  C_9
REMARK    4  A    between atoms: C_9  and  C_10
REMARK    5  A    between atoms: C_10  and  C_11
REMARK    6  A    between atoms: C_15  and  C_16
REMARK                            x       y       z     vdW  Elec       q    Type
REMARK                         _______ _______ _______ _____ _____    ______ ____
ROOT
ATOM      1  C   UNL     1       4.119   6.802  17.590  0.00  0.00    +0.000 C 
ATOM      2  N   UNL     1       5.420   6.252  17.923  0.00  0.00    +0.000 N 
ATOM      3  C   UNL     1       5.637   5.007  18.458  0.00  0.00    +0.000 C 
ATOM      4  N   UNL     1       6.632   4.191  18.282  0.00  0.00    +0.000 NA
ATOM      5  N   UNL     1       4.628   4.639  19.307  0.00  0.00    +0.000 N 
ATOM      6  H   UNL     1       6.129   6.505  17.229  0.00  0.00    +0.000 HD
ATOM      7  H   UNL     1       3.931   5.327  19.533  0.00  0.00    +0.000 HD
ENDROOT
BRANCH   4   8
ATOM      8  N   UNL     1       7.664   4.506  17.484  0.00  0.00    +0.000 N 
ATOM      9  O   UNL     1       7.505   5.165  16.442  0.00  0.00    +0.000 OA
ATOM     10  O   UNL     1       8.778   4.082  17.824  0.00  0.00    +0.000 OA
ENDBRANCH   4   8
BRANCH   5  11
ATOM     11  C   UNL     1       4.336   3.254  19.623  0.00  0.00    +0.000 C 
BRANCH  11  12
ATOM     12  C   UNL     1       2.828   2.960  19.664  0.00  0.00    +0.000 C 
ATOM     13  C   UNL     1       2.485   1.698  18.846  0.00  0.00    +0.000 C 
ATOM     14  C   UNL     1       2.426   2.722  21.124  0.00  0.00    +0.000 C 
ATOM     15  O   UNL     1       1.035   3.034  21.195  0.00  0.00    +0.000 OA
ATOM     16  C   UNL     1       0.799   4.131  20.305  0.00  0.00    +0.000 C 
ATOM     17  C   UNL     1       1.959   4.183  19.309  0.00  0.00    +0.000 C 
ATOM     18  C   UNL     1       1.454   4.278  17.872  0.00  0.00    +0.000 C 
ENDBRANCH  11  12
ENDBRANCH   5  11
TORSDOF 3
ENDMDL
MODEL 6
REMARK VINA RESULT:      -6.6      1.252      2.181
REMARK  Name = 
REMARK  6 active torsions:
REMARK  status: ('A' for Active; 'I' for Inactive)
REMARK    1  A    between atoms: C_1  and  N_2
REMARK    2  A    between atoms: N_4  and  N_5
REMARK    3  A    between atoms: N_8  and  C_9
REMARK    4  A    between atoms: C_9  and  C_10
REMARK    5  A    between atoms: C_10  and  C_11
REMARK    6  A    between atoms: C_15  and  C_16
REMARK                            x       y       z     vdW  Elec       q    Type
REMARK                         _______ _______ _______ _____ _____    ______ ____
ROOT
ATOM      1  C   UNL     1       7.943   4.975  18.359  0.00  0.00    +0.000 C 
ATOM      2  N   UNL     1       7.557   4.396  17.086  0.00  0.00    +0.000 N 
ATOM      3  C   UNL     1       6.266   4.218  16.658  0.00  0.00    +0.000 C 
ATOM      4  N   UNL     1       5.774   4.277  15.457  0.00  0.00    +0.000 NA
ATOM      5  N   UNL     1       5.426   3.919  17.697  0.00  0.00    +0.000 N 
ATOM      6  H   UNL     1       8.179   4.694  16.329  0.00  0.00    +0.000 HD
ATOM      7  H   UNL     1       5.837   3.752  18.599  0.00  0.00    +0.000 HD
ENDROOT
BRANCH   4   8
ATOM      8  N   UNL     1       6.551   4.538  14.395  0.00  0.00    +0.000 N 
ATOM      9  O   UNL     1       6.459   3.885  13.341  0.00  0.00    +0.000 OA
ATOM     10  O   UNL     1       7.384   5.447  14.528  0.00  0.00    +0.000 OA
ENDBRANCH   4   8
BRANCH   5  11
ATOM     11  C   UNL     1       3.996   4.152  17.641  0.00  0.00    +0.000 C 
BRANCH  11  12
ATOM     12  C   UNL     1       3.295   3.868  18.980  0.00  0.00    +0.000 C 
ATOM     13  C   UNL     1       4.007   2.739  19.752  0.00  0.00    +0.000 C 
ATOM     14  C   UNL     1       3.341   5.145  19.825  0.00  0.00    +0.000 C 
ATOM     15  O   UNL     1       2.242   5.047  20.729  0.00  0.00    +0.000 OA
ATOM     16  C   UNL     1       1.171   4.403  20.029  0.00  0.00    +0.000 C 
ATOM     17  C   UNL     1       1.774   3.658  18.837  0.00  0.00    +0.000 C 
ATOM     18  C   UNL     1       1.279   2.215  18.776  0.00  0.00    +0.000 C 
ENDBRANCH  11  12
ENDBRANCH   5  11
TORSDOF 3
ENDMDL
MODEL 7
REMARK VINA RESULT:      -6.5      2.730      6.054
REMARK  Name = 
REMARK  6 active torsions:
REMARK  status: ('A' for Active; 'I' for Inactive)
REMARK    1  A    between atoms: C_1  and  N_2
REMARK    2  A    between atoms: N_4  and  N_5
REMARK    3  A    between atoms: N_8  and  C_9
REMARK    4  A    between atoms: C_9  and  C_10
REMARK    5  A    between atoms: C_10  and  C_11
REMARK    6  A    between atoms: C_15  and  C_16
REMARK                            x       y       z     vdW  Elec       q    Type
REMARK                         _______ _______ _______ _____ _____    ______ ____
ROOT
ATOM      1  C   UNL     1       3.788   1.656  18.107  0.00  0.00    +0.000 C 
ATOM      2  N   UNL     1       3.489   2.301  19.372  0.00  0.00    +0.000 N 
ATOM      3  C   UNL     1       3.793   3.601  19.688  0.00  0.00    +0.000 C 
ATOM      4  N   UNL     1       3.151   4.446  20.437  0.00  0.00    +0.000 NA
ATOM      5  N   UNL     1       4.970   3.998  19.110  0.00  0.00    +0.000 N 
ATOM      6  H   UNL     1       2.574   2.018  19.735  0.00  0.00    +0.000 HD
ATOM      7  H   UNL     1       5.520   3.301  18.639  0.00  0.00    +0.000 HD
ENDROOT
BRANCH   4   8
ATOM      8  N   UNL     1       2.007   4.107  21.051  0.00  0.00    +0.000 N 
ATOM      9  O   UNL     1       0.901   4.476  20.621  0.00  0.00    +0.000 OA
ATOM     10  O   UNL     1       2.113   3.432  22.086  0.00  0.00    +0.000 OA
ENDBRANCH   4   8
BRANCH   5  11
ATOM     11  C   UNL     1       5.291   5.391  18.862  0.00  0.00    +0.000 C 
BRANCH  11  12
ATOM     12  C   UNL     1       6.275   5.575  17.696  0.00  0.00    +0.000 C 
ATOM     13  C   UNL     1       6.912   6.979  17.722  0.00  0.00    +0.000 C 
ATOM     14  C   UNL     1       7.387   4.530  17.838  0.00  0.00    +0.000 C 
ATOM     15  O   UNL     1       7.904   4.338  16.522  0.00  0.00    +0.000 OA
ATOM     16  C   UNL     1       6.803   4.444  15.613  0.00  0.00    +0.000 C 
ATOM     17  C   UNL     1       5.676   5.191  16.328  0.00  0.00    +0.000 C 
ATOM     18  C   UNL     1       5.131   6.328  15.468  0.00  0.00    +0.000 C 
ENDBRANCH  11  12
ENDBRANCH   5  11
TORSDOF 3
ENDMDL
MODEL 8
REMARK VINA RESULT:      -6.4      1.297      1.953
REMARK  Name = 
REMARK  6 active torsions:
REMARK  status: ('A' for Active; 'I' for Inactive)
REMARK    1  A    between atoms: C_1  and  N_2
REMARK    2  A    between atoms: N_4  and  N_5
REMARK    3  A    between atoms: N_8  and  C_9
REMARK    4  A    between atoms: C_9  and  C_10
REMARK    5  A    between atoms: C_10  and  C_11
REMARK    6  A    between atoms: C_15  and  C_16
REMARK                            x       y       z     vdW  Elec       q    Type
REMARK                         _______ _______ _______ _____ _____    ______ ____
ROOT
ATOM      1  C   UNL     1       7.802   6.447  18.406  0.00  0.00    +0.000 C 
ATOM      2  N   UNL     1       7.454   5.476  17.386  0.00  0.00    +0.000 N 
ATOM      3  C   UNL     1       6.180   5.205  16.955  0.00  0.00    +0.000 C 
ATOM      4  N   UNL     1       5.758   4.860  15.776  0.00  0.00    +0.000 NA
ATOM      5  N   UNL     1       5.269   5.314  17.973  0.00  0.00    +0.000 N 
ATOM      6  H   UNL     1       8.132   5.472  16.618  0.00  0.00    +0.000 HD
ATOM      7  H   UNL     1       5.621   5.456  18.903  0.00  0.00    +0.000 HD
ENDROOT
BRANCH   4   8
ATOM      8  N   UNL     1       6.605   4.710  14.746  0.00  0.00    +0.000 N 
ATOM      9  O   UNL     1       6.504   3.761  13.950  0.00  0.00    +0.000 OA
ATOM     10  O   UNL     1       7.511   5.550  14.648  0.00  0.00    +0.000 OA
ENDBRANCH   4   8
BRANCH   5  11
ATOM     11  C   UNL     1       3.860   5.562  17.739  0.00  0.00    +0.000 C 
BRANCH  11  12
ATOM     12  C   UNL     1       2.952   4.559  18.469  0.00  0.00    +0.000 C 
ATOM     13  C   UNL     1       2.616   5.047  19.893  0.00  0.00    +0.000 C 
ATOM     14  C   UNL     1       1.648   4.429  17.674  0.00  0.00    +0.000 C 
ATOM     15  O   UNL     1       1.122   3.145  18.008  0.00  0.00    +0.000 OA
ATOM     16  C   UNL     1       2.234   2.258  18.170  0.00  0.00    +0.000 C 
ATOM     17  C   UNL     1       3.480   3.111  18.417  0.00  0.00    +0.000 C 
ATOM     18  C   UNL     1       4.259   2.616  19.633  0.00  0.00    +0.000 C 
ENDBRANCH  11  12
ENDBRANCH   5  11
TORSDOF 3
ENDMDL
MODEL 9
REMARK VINA RESULT:      -6.4      2.130      2.977
REMARK  Name = 
REMARK  6 active torsions:
REMARK  status: ('A' for Active; 'I' for Inactive)
REMARK    1  A    between atoms: C_1  and  N_2
REMARK    2  A    between atoms: N_4  and  N_5
REMARK    3  A    between atoms: N_8  and  C_9
REMARK    4  A    between atoms: C_9  and  C_10
REMARK    5  A    between atoms: C_10  and  C_11
REMARK    6  A    between atoms: C_15  and  C_16
REMARK                            x       y       z     vdW  Elec       q    Type
REMARK                         _______ _______ _______ _____ _____    ______ ____
ROOT
ATOM      1  C   UNL     1       6.521   4.266  14.779  0.00  0.00    +0.000 C 
ATOM      2  N   UNL     1       6.465   5.411  15.669  0.00  0.00    +0.000 N 
ATOM      3  C   UNL     1       6.025   5.381  16.968  0.00  0.00    +0.000 C 
ATOM      4  N   UNL     1       6.418   6.075  17.994  0.00  0.00    +0.000 NA
ATOM      5  N   UNL     1       5.010   4.477  17.137  0.00  0.00    +0.000 N 
ATOM      6  H   UNL     1       7.274   6.027  15.547  0.00  0.00    +0.000 HD
ATOM      7  H   UNL     1       4.630   4.040  16.316  0.00  0.00    +0.000 HD
ENDROOT
BRANCH   4   8
ATOM      8  N   UNL     1       7.389   6.994  17.886  0.00  0.00    +0.000 N 
ATOM      9  O   UNL     1       8.308   7.075  18.720  0.00  0.00    +0.000 OA
ATOM     10  O   UNL     1       7.307   7.776  16.928  0.00  0.00    +0.000 OA
ENDBRANCH   4   8
BRANCH   5  11
ATOM     11  C   UNL     1       4.691   3.888  18.423  0.00  0.00    +0.000 C 
BRANCH  11  12
ATOM     12  C   UNL     1       3.197   3.991  18.769  0.00  0.00    +0.000 C 
ATOM     13  C   UNL     1       2.867   5.356  19.408  0.00  0.00    +0.000 C 
ATOM     14  C   UNL     1       2.394   3.850  17.471  0.00  0.00    +0.000 C 
ATOM     15  O   UNL     1       1.108   3.374  17.866  0.00  0.00    +0.000 OA
ATOM     16  C   UNL     1       1.304   2.482  18.969  0.00  0.00    +0.000 C 
ATOM     17  C   UNL     1       2.675   2.786  19.577  0.00  0.00    +0.000 C 
ATOM     18  C   UNL     1       2.586   2.955  21.091  0.00  0.00    +0.000 C 
ENDBRANCH  11  12
ENDBRANCH   5  11
TORSDOF 3
ENDMDL
