MODEL 1
REMARK VINA RESULT:      -8.0      0.000      0.000
REMARK  Name = 
REMARK  4 active torsions:
REMARK  status: ('A' for Active; 'I' for Inactive)
REMARK    1  A    between atoms: C_1  and  O_2
REMARK    2  A    between atoms: O_2  and  C_3
REMARK    3  A    between atoms: C_7  and  N_8
REMARK    4  A    between atoms: C_9  and  C_11
REMARK                            x       y       z     vdW  Elec       q    Type
REMARK                         _______ _______ _______ _____ _____    ______ ____
ROOT
ATOM      1  C   UNL     1       5.121   4.579  19.399  0.00  0.00    +0.000 C 
ATOM      2  C   UNL     1       4.750   3.070  19.351  0.00  0.00    +0.000 C 
ATOM      3  C   UNL     1       3.307   2.929  19.073  0.00  0.00    +0.000 A 
ATOM      4  N   UNL     1       2.672   1.875  18.483  0.00  0.00    +0.000 N 
ATOM      5  C   UNL     1       1.369   2.253  18.302  0.00  0.00    +0.000 A 
ATOM      6  N   UNL     1       1.143   3.466  18.759  0.00  0.00    +0.000 NA
ATOM      7  C   UNL     1       2.364   3.923  19.188  0.00  0.00    +0.000 A 
ATOM      8  C   UNL     1       2.694   5.384  19.404  0.00  0.00    +0.000 C 
ATOM      9  C   UNL     1       2.503   6.088  18.040  0.00  0.00    +0.000 C 
ATOM     10  C   UNL     1       2.579   7.602  18.112  0.00  0.00    +0.000 C 
ATOM     11  O   UNL     1       1.723   8.127  19.121  0.00  0.00    +0.000 OA
ATOM     12  C   UNL     1       2.005   7.584  20.410  0.00  0.00    +0.000 C 
ATOM     13  C   UNL     1       1.759   6.077  20.420  0.00  0.00    +0.000 C 
ATOM     14  N   UNL     1       4.088   5.497  19.983  0.00  0.00    +0.000 NA
ATOM     15  H   UNL     1       3.095   1.023  18.141  0.00  0.00    +0.000 HD
ATOM     16  H   UNL     1       3.995   5.193  20.956  0.00  0.00    +0.000 HD
ENDROOT
BRANCH   1  18
ATOM     17  N   UNL     1       5.920   4.069  17.152  0.00  0.00    +0.000 N 
ATOM     18  C   UNL     1       5.638   5.094  18.050  0.00  0.00    +0.000 C 
ATOM     19  O   UNL     1       5.721   6.298  17.812  0.00  0.00    +0.000 OA
ATOM     20  H   UNL     1       6.002   3.145  17.570  0.00  0.00    +0.000 HD
BRANCH  17  25
ATOM     21  C   UNL     1       5.594   3.835  13.464  0.00  0.00    +0.000 A 
ATOM     22  C   UNL     1       6.718   4.545  13.044  0.00  0.00    +0.000 A 
ATOM     23  C   UNL     1       7.601   5.075  13.975  0.00  0.00    +0.000 A 
ATOM     24  C   UNL     1       7.353   4.907  15.336  0.00  0.00    +0.000 A 
ATOM     25  C   UNL     1       6.219   4.216  15.779  0.00  0.00    +0.000 A 
ATOM     26  C   UNL     1       5.332   3.687  14.833  0.00  0.00    +0.000 A 
BRANCH  21  28
ATOM     27  C   UNL     1       5.408   2.436  11.564  0.00  0.00    +0.000 C 
ATOM     28  O   UNL     1       4.805   3.372  12.447  0.00  0.00    +0.000 OA
ENDBRANCH  21  28
ENDBRANCH  17  25
ENDBRANCH   1  18
TORSDOF 3
ENDMDL
MODEL 2
REMARK VINA RESULT:      -8.0      1.032      1.638
REMARK  Name = 
REMARK  4 active torsions:
REMARK  status: ('A' for Active; 'I' for Inactive)
REMARK    1  A    between atoms: C_1  and  O_2
REMARK    2  A    between atoms: O_2  and  C_3
REMARK    3  A    between atoms: C_7  and  N_8
REMARK    4  A    between atoms: C_9  and  C_11
REMARK                            x       y       z     vdW  Elec       q    Type
REMARK                         _______ _______ _______ _____ _____    ______ ____
ROOT
ATOM      1  C   UNL     1       5.024   4.562  19.516  0.00  0.00    +0.000 C 
ATOM      2  C   UNL     1       4.637   3.056  19.490  0.00  0.00    +0.000 C 
ATOM      3  C   UNL     1       3.194   2.926  19.208  0.00  0.00    +0.000 A 
ATOM      4  N   UNL     1       2.550   1.870  18.633  0.00  0.00    +0.000 N 
ATOM      5  C   UNL     1       1.252   2.260  18.441  0.00  0.00    +0.000 A 
ATOM      6  N   UNL     1       1.037   3.482  18.877  0.00  0.00    +0.000 NA
ATOM      7  C   UNL     1       2.261   3.933  19.304  0.00  0.00    +0.000 A 
ATOM      8  C   UNL     1       2.606   5.393  19.498  0.00  0.00    +0.000 C 
ATOM      9  C   UNL     1       2.428   6.078  18.121  0.00  0.00    +0.000 C 
ATOM     10  C   UNL     1       2.520   7.591  18.170  0.00  0.00    +0.000 C 
ATOM     11  O   UNL     1       1.666   8.141  19.167  0.00  0.00    +0.000 OA
ATOM     12  C   UNL     1       1.938   7.617  20.465  0.00  0.00    +0.000 C 
ATOM     13  C   UNL     1       1.675   6.112  20.499  0.00  0.00    +0.000 C 
ATOM     14  N   UNL     1       4.000   5.501  20.080  0.00  0.00    +0.000 NA
ATOM     15  H   UNL     1       2.965   1.009  18.307  0.00  0.00    +0.000 HD
ATOM     16  H   UNL     1       3.899   5.213  21.058  0.00  0.00    +0.000 HD
ENDROOT
BRANCH   1  18
ATOM     17  N   UNL     1       5.721   4.017  17.242  0.00  0.00    +0.000 N 
ATOM     18  C   UNL     1       5.552   5.049  18.160  0.00  0.00    +0.000 C 
ATOM     19  O   UNL     1       5.735   6.245  17.935  0.00  0.00    +0.000 OA
ATOM     20  H   UNL     1       5.731   3.084  17.646  0.00  0.00    +0.000 HD
BRANCH  17  25
ATOM     21  C   UNL     1       7.430   5.043  14.114  0.00  0.00    +0.000 A 
ATOM     22  C   UNL     1       6.645   4.407  13.151  0.00  0.00    +0.000 A 
ATOM     23  C   UNL     1       5.536   3.664  13.532  0.00  0.00    +0.000 A 
ATOM     24  C   UNL     1       5.213   3.545  14.882  0.00  0.00    +0.000 A 
ATOM     25  C   UNL     1       5.999   4.158  15.865  0.00  0.00    +0.000 A 
ATOM     26  C   UNL     1       7.120   4.902  15.473  0.00  0.00    +0.000 A 
BRANCH  21  28
ATOM     27  C   UNL     1       8.432   6.054  12.223  0.00  0.00    +0.000 C 
ATOM     28  O   UNL     1       8.495   5.735  13.606  0.00  0.00    +0.000 OA
ENDBRANCH  21  28
ENDBRANCH  17  25
ENDBRANCH   1  18
TORSDOF 3
ENDMDL
MODEL 3
REMARK VINA RESULT:      -7.6      2.362      6.983
REMARK  Name = 
REMARK  4 active torsions:
REMARK  status: ('A' for Active; 'I' for Inactive)
REMARK    1  A    between atoms: C_1  and  O_2
REMARK    2  A    between atoms: O_2  and  C_3
REMARK    3  A    between atoms: C_7  and  N_8
REMARK    4  A    between atoms: C_9  and  C_11
REMARK                            x       y       z     vdW  Elec       q    Type
REMARK                         _______ _______ _______ _____ _____    ______ ____
ROOT
ATOM      1  C   UNL     1       4.779   5.482  19.318  0.00  0.00    +0.000 C 
ATOM      2  C   UNL     1       6.078   5.643  18.479  0.00  0.00    +0.000 C 
ATOM      3  C   UNL     1       5.992   4.794  17.274  0.00  0.00    +0.000 A 
ATOM      4  N   UNL     1       6.625   4.978  16.080  0.00  0.00    +0.000 N 
ATOM      5  C   UNL     1       6.129   4.032  15.224  0.00  0.00    +0.000 A 
ATOM      6  N   UNL     1       5.243   3.256  15.810  0.00  0.00    +0.000 NA
ATOM      7  C   UNL     1       5.103   3.763  17.079  0.00  0.00    +0.000 A 
ATOM      8  C   UNL     1       3.921   3.480  17.979  0.00  0.00    +0.000 C 
ATOM      9  C   UNL     1       2.665   4.001  17.240  0.00  0.00    +0.000 C 
ATOM     10  C   UNL     1       1.356   3.606  17.897  0.00  0.00    +0.000 C 
ATOM     11  O   UNL     1       1.294   2.208  18.156  0.00  0.00    +0.000 OA
ATOM     12  C   UNL     1       2.377   1.757  18.968  0.00  0.00    +0.000 C 
ATOM     13  C   UNL     1       3.709   1.974  18.251  0.00  0.00    +0.000 C 
ATOM     14  N   UNL     1       4.165   4.113  19.332  0.00  0.00    +0.000 NA
ATOM     15  H   UNL     1       7.253   5.730  15.833  0.00  0.00    +0.000 HD
ATOM     16  H   UNL     1       4.870   3.519  19.777  0.00  0.00    +0.000 HD
ENDROOT
BRANCH   1  18
ATOM     17  N   UNL     1       2.791   6.719  20.002  0.00  0.00    +0.000 N 
ATOM     18  C   UNL     1       3.741   6.565  18.997  0.00  0.00    +0.000 C 
ATOM     19  O   UNL     1       3.817   7.242  17.973  0.00  0.00    +0.000 OA
ATOM     20  H   UNL     1       2.745   5.951  20.668  0.00  0.00    +0.000 HD
BRANCH  17  25
ATOM     21  C   UNL     1       0.119   8.882  21.396  0.00  0.00    +0.000 A 
ATOM     22  C   UNL     1      -0.027   9.827  20.380  0.00  0.00    +0.000 A 
ATOM     23  C   UNL     1       0.735   9.734  19.223  0.00  0.00    +0.000 A 
ATOM     24  C   UNL     1       1.656   8.698  19.083  0.00  0.00    +0.000 A 
ATOM     25  C   UNL     1       1.833   7.752  20.099  0.00  0.00    +0.000 A 
ATOM     26  C   UNL     1       1.064   7.855  21.265  0.00  0.00    +0.000 A 
BRANCH  21  28
ATOM     27  C   UNL     1      -0.785  10.435  22.936  0.00  0.00    +0.000 C 
ATOM     28  O   UNL     1      -0.685   9.092  22.482  0.00  0.00    +0.000 OA
ENDBRANCH  21  28
ENDBRANCH  17  25
ENDBRANCH   1  18
TORSDOF 3
ENDMDL
MODEL 4
REMARK VINA RESULT:      -7.2      2.336      6.663
REMARK  Name = 
REMARK  4 active torsions:
REMARK  status: ('A' for Active; 'I' for Inactive)
REMARK    1  A    between atoms: C_1  and  O_2
REMARK    2  A    between atoms: O_2  and  C_3
REMARK    3  A    between atoms: C_7  and  N_8
REMARK    4  A    between atoms: C_9  and  C_11
REMARK                            x       y       z     vdW  Elec       q    Type
REMARK                         _______ _______ _______ _____ _____    ______ ____
ROOT
ATOM      1  C   UNL     1       4.705   5.512  19.339  0.00  0.00    +0.000 C 
ATOM      2  C   UNL     1       5.983   5.676  18.470  0.00  0.00    +0.000 C 
ATOM      3  C   UNL     1       5.861   4.842  17.258  0.00  0.00    +0.000 A 
ATOM      4  N   UNL     1       6.466   5.036  16.050  0.00  0.00    +0.000 N 
ATOM      5  C   UNL     1       5.943   4.104  15.195  0.00  0.00    +0.000 A 
ATOM      6  N   UNL     1       5.067   3.326  15.794  0.00  0.00    +0.000 NA
ATOM      7  C   UNL     1       4.962   3.819  17.072  0.00  0.00    +0.000 A 
ATOM      8  C   UNL     1       3.800   3.532  17.998  0.00  0.00    +0.000 C 
ATOM      9  C   UNL     1       2.530   4.070  17.296  0.00  0.00    +0.000 C 
ATOM     10  C   UNL     1       1.235   3.675  17.981  0.00  0.00    +0.000 C 
ATOM     11  O   UNL     1       1.171   2.274  18.225  0.00  0.00    +0.000 OA
ATOM     12  C   UNL     1       2.270   1.808  19.004  0.00  0.00    +0.000 C 
ATOM     13  C   UNL     1       3.585   2.025  18.258  0.00  0.00    +0.000 C 
ATOM     14  N   UNL     1       4.082   4.148  19.352  0.00  0.00    +0.000 NA
ATOM     15  H   UNL     1       7.093   5.787  15.797  0.00  0.00    +0.000 HD
ATOM     16  H   UNL     1       4.794   3.544  19.772  0.00  0.00    +0.000 HD
ENDROOT
BRANCH   1  18
ATOM     17  N   UNL     1       2.741   6.752  20.086  0.00  0.00    +0.000 N 
ATOM     18  C   UNL     1       3.666   6.606  19.057  0.00  0.00    +0.000 C 
ATOM     19  O   UNL     1       3.722   7.296  18.040  0.00  0.00    +0.000 OA
ATOM     20  H   UNL     1       2.706   5.976  20.742  0.00  0.00    +0.000 HD
BRANCH  17  25
ATOM     21  C   UNL     1       0.692   9.734  19.265  0.00  0.00    +0.000 A 
ATOM     22  C   UNL     1      -0.128   9.821  20.390  0.00  0.00    +0.000 A 
ATOM     23  C   UNL     1       0.015   8.916  21.433  0.00  0.00    +0.000 A 
ATOM     24  C   UNL     1       0.974   7.909  21.348  0.00  0.00    +0.000 A 
ATOM     25  C   UNL     1       1.792   7.790  20.219  0.00  0.00    +0.000 A 
ATOM     26  C   UNL     1       1.639   8.704  19.169  0.00  0.00    +0.000 A 
BRANCH  21  28
ATOM     27  C   UNL     1      -0.464  11.712  18.673  0.00  0.00    +0.000 C 
ATOM     28  O   UNL     1       0.444  10.681  18.310  0.00  0.00    +0.000 OA
ENDBRANCH  21  28
ENDBRANCH  17  25
ENDBRANCH   1  18
TORSDOF 3
ENDMDL
MODEL 5
REMARK VINA RESULT:      -7.1      4.745      7.874
REMARK  Name = 
REMARK  4 active torsions:
REMARK  status: ('A' for Active; 'I' for Inactive)
REMARK    1  A    between atoms: C_1  and  O_2
REMARK    2  A    between atoms: O_2  and  C_3
REMARK    3  A    between atoms: C_7  and  N_8
REMARK    4  A    between atoms: C_9  and  C_11
REMARK                            x       y       z     vdW  Elec       q    Type
REMARK                         _______ _______ _______ _____ _____    ______ ____
ROOT
ATOM      1  C   UNL     1       1.004   9.611  22.414  0.00  0.00    +0.000 C 
ATOM      2  C   UNL     1      -0.139   9.850  23.441  0.00  0.00    +0.000 C 
ATOM      3  C   UNL     1      -1.030  10.916  22.943  0.00  0.00    +0.000 A 
ATOM      4  N   UNL     1      -2.349  11.104  23.238  0.00  0.00    +0.000 N 
ATOM      5  C   UNL     1      -2.789  12.121  22.435  0.00  0.00    +0.000 A 
ATOM      6  N   UNL     1      -1.828  12.595  21.673  0.00  0.00    +0.000 NA
ATOM      7  C   UNL     1      -0.735  11.807  21.938  0.00  0.00    +0.000 A 
ATOM      8  C   UNL     1       0.467  11.692  21.028  0.00  0.00    +0.000 C 
ATOM      9  C   UNL     1      -0.051  11.149  19.674  0.00  0.00    +0.000 C 
ATOM     10  C   UNL     1       0.983  11.173  18.564  0.00  0.00    +0.000 C 
ATOM     11  O   UNL     1       1.595  12.452  18.440  0.00  0.00    +0.000 OA
ATOM     12  C   UNL     1       2.206  12.883  19.654  0.00  0.00    +0.000 C 
ATOM     13  C   UNL     1       1.156  13.046  20.752  0.00  0.00    +0.000 C 
ATOM     14  N   UNL     1       1.514  10.826  21.696  0.00  0.00    +0.000 NA
ATOM     15  H   UNL     1      -2.924  10.536  23.845  0.00  0.00    +0.000 HD
ATOM     16  H   UNL     1       1.910  11.414  22.434  0.00  0.00    +0.000 HD
ENDROOT
BRANCH   1  18
ATOM     17  N   UNL     1       1.821   7.881  20.901  0.00  0.00    +0.000 N 
ATOM     18  C   UNL     1       0.681   8.471  21.439  0.00  0.00    +0.000 C 
ATOM     19  O   UNL     1      -0.477   8.113  21.233  0.00  0.00    +0.000 OA
ATOM     20  H   UNL     1       2.674   8.424  21.006  0.00  0.00    +0.000 HD
BRANCH  17  25
ATOM     21  C   UNL     1       1.446   4.308  19.976  0.00  0.00    +0.000 A 
ATOM     22  C   UNL     1       1.863   4.324  18.645  0.00  0.00    +0.000 A 
ATOM     23  C   UNL     1       2.297   5.506  18.061  0.00  0.00    +0.000 A 
ATOM     24  C   UNL     1       2.303   6.684  18.807  0.00  0.00    +0.000 A 
ATOM     25  C   UNL     1       1.868   6.694  20.137  0.00  0.00    +0.000 A 
ATOM     26  C   UNL     1       1.428   5.497  20.717  0.00  0.00    +0.000 A 
BRANCH  21  28
ATOM     27  C   UNL     1       1.654   2.616  21.618  0.00  0.00    +0.000 C 
ATOM     28  O   UNL     1       1.038   3.082  20.425  0.00  0.00    +0.000 OA
ENDBRANCH  21  28
ENDBRANCH  17  25
ENDBRANCH   1  18
TORSDOF 3
ENDMDL
MODEL 6
REMARK VINA RESULT:      -7.0      1.936      6.689
REMARK  Name = 
REMARK  4 active torsions:
REMARK  status: ('A' for Active; 'I' for Inactive)
REMARK    1  A    between atoms: C_1  and  O_2
REMARK    2  A    between atoms: O_2  and  C_3
REMARK    3  A    between atoms: C_7  and  N_8
REMARK    4  A    between atoms: C_9  and  C_11
REMARK                            x       y       z     vdW  Elec       q    Type
REMARK                         _______ _______ _______ _____ _____    ______ ____
ROOT
ATOM      1  C   UNL     1       4.260   3.620  18.212  0.00  0.00    +0.000 C 
ATOM      2  C   UNL     1       5.128   3.789  19.491  0.00  0.00    +0.000 C 
ATOM      3  C   UNL     1       6.332   4.579  19.166  0.00  0.00    +0.000 A 
ATOM      4  N   UNL     1       7.073   5.352  20.010  0.00  0.00    +0.000 N 
ATOM      5  C   UNL     1       7.995   6.005  19.237  0.00  0.00    +0.000 A 
ATOM      6  N   UNL     1       7.893   5.674  17.968  0.00  0.00    +0.000 NA
ATOM      7  C   UNL     1       6.813   4.828  17.902  0.00  0.00    +0.000 A 
ATOM      8  C   UNL     1       6.056   4.519  16.629  0.00  0.00    +0.000 C 
ATOM      9  C   UNL     1       5.495   5.863  16.108  0.00  0.00    +0.000 C 
ATOM     10  C   UNL     1       4.888   5.781  14.720  0.00  0.00    +0.000 C 
ATOM     11  O   UNL     1       5.774   5.164  13.792  0.00  0.00    +0.000 OA
ATOM     12  C   UNL     1       6.170   3.857  14.205  0.00  0.00    +0.000 C 
ATOM     13  C   UNL     1       6.949   3.925  15.517  0.00  0.00    +0.000 C 
ATOM     14  N   UNL     1       5.006   3.467  16.920  0.00  0.00    +0.000 NA
ATOM     15  H   UNL     1       6.910   5.506  20.996  0.00  0.00    +0.000 HD
ATOM     16  H   UNL     1       5.531   2.594  17.028  0.00  0.00    +0.000 HD
ENDROOT
BRANCH   1  18
ATOM     17  N   UNL     1       3.412   5.799  18.909  0.00  0.00    +0.000 N 
ATOM     18  C   UNL     1       3.163   4.688  18.109  0.00  0.00    +0.000 C 
ATOM     19  O   UNL     1       2.212   4.558  17.339  0.00  0.00    +0.000 OA
ATOM     20  H   UNL     1       4.115   5.656  19.631  0.00  0.00    +0.000 HD
BRANCH  17  25
ATOM     21  C   UNL     1       1.274   8.613  20.036  0.00  0.00    +0.000 A 
ATOM     22  C   UNL     1       1.348   9.470  18.938  0.00  0.00    +0.000 A 
ATOM     23  C   UNL     1       2.078   9.107  17.814  0.00  0.00    +0.000 A 
ATOM     24  C   UNL     1       2.749   7.886  17.790  0.00  0.00    +0.000 A 
ATOM     25  C   UNL     1       2.706   7.021  18.889  0.00  0.00    +0.000 A 
ATOM     26  C   UNL     1       1.970   7.396  20.021  0.00  0.00    +0.000 A 
BRANCH  21  28
ATOM     27  C   UNL     1       1.200   9.212  22.325  0.00  0.00    +0.000 C 
ATOM     28  O   UNL     1       0.529   9.093  21.078  0.00  0.00    +0.000 OA
ENDBRANCH  21  28
ENDBRANCH  17  25
ENDBRANCH   1  18
TORSDOF 3
ENDMDL
MODEL 7
REMARK VINA RESULT:      -7.0      2.554      6.625
REMARK  Name = 
REMARK  4 active torsions:
REMARK  status: ('A' for Active; 'I' for Inactive)
REMARK    1  A    between atoms: C_1  and  O_2
REMARK    2  A    between atoms: O_2  and  C_3
REMARK    3  A    between atoms: C_7  and  N_8
REMARK    4  A    between atoms: C_9  and  C_11
REMARK                            x       y       z     vdW  Elec       q    Type
REMARK                         _______ _______ _______ _____ _____    ______ ____
ROOT
ATOM      1  C   UNL     1       2.472   5.310  17.836  0.00  0.00    +0.000 C 
ATOM      2  C   UNL     1       1.923   4.105  18.653  0.00  0.00    +0.000 C 
ATOM      3  C   UNL     1       3.052   3.341  19.218  0.00  0.00    +0.000 A 
ATOM      4  N   UNL     1       3.051   2.559  20.336  0.00  0.00    +0.000 N 
ATOM      5  C   UNL     1       4.348   2.177  20.549  0.00  0.00    +0.000 A 
ATOM      6  N   UNL     1       5.156   2.650  19.626  0.00  0.00    +0.000 NA
ATOM      7  C   UNL     1       4.365   3.433  18.821  0.00  0.00    +0.000 A 
ATOM      8  C   UNL     1       4.897   4.500  17.890  0.00  0.00    +0.000 C 
ATOM      9  C   UNL     1       5.643   5.528  18.774  0.00  0.00    +0.000 C 
ATOM     10  C   UNL     1       6.431   6.559  17.988  0.00  0.00    +0.000 C 
ATOM     11  O   UNL     1       7.283   5.951  17.022  0.00  0.00    +0.000 OA
ATOM     12  C   UNL     1       6.565   5.120  16.112  0.00  0.00    +0.000 C 
ATOM     13  C   UNL     1       5.907   3.958  16.854  0.00  0.00    +0.000 C 
ATOM     14  N   UNL     1       3.750   5.074  17.086  0.00  0.00    +0.000 NA
ATOM     15  H   UNL     1       2.272   2.383  20.955  0.00  0.00    +0.000 HD
ATOM     16  H   UNL     1       3.517   4.347  16.404  0.00  0.00    +0.000 HD
ENDROOT
BRANCH   1  18
ATOM     17  N   UNL     1       2.033   7.704  17.992  0.00  0.00    +0.000 N 
ATOM     18  C   UNL     1       2.534   6.596  18.670  0.00  0.00    +0.000 C 
ATOM     19  O   UNL     1       2.937   6.589  19.832  0.00  0.00    +0.000 OA
ATOM     20  H   UNL     1       1.942   7.584  16.987  0.00  0.00    +0.000 HD
BRANCH  17  25
ATOM     21  C   UNL     1       2.008  11.390  18.412  0.00  0.00    +0.000 A 
ATOM     22  C   UNL     1       1.217  11.531  19.553  0.00  0.00    +0.000 A 
ATOM     23  C   UNL     1       0.717  10.410  20.201  0.00  0.00    +0.000 A 
ATOM     24  C   UNL     1       0.997   9.139  19.701  0.00  0.00    +0.000 A 
ATOM     25  C   UNL     1       1.770   8.977  18.546  0.00  0.00    +0.000 A 
ATOM     26  C   UNL     1       2.268  10.113  17.895  0.00  0.00    +0.000 A 
BRANCH  21  28
ATOM     27  C   UNL     1       2.767  13.600  18.790  0.00  0.00    +0.000 C 
ATOM     28  O   UNL     1       2.431  12.572  17.868  0.00  0.00    +0.000 OA
ENDBRANCH  21  28
ENDBRANCH  17  25
ENDBRANCH   1  18
TORSDOF 3
ENDMDL
MODEL 8
REMARK VINA RESULT:      -7.0      2.411      6.765
REMARK  Name = 
REMARK  4 active torsions:
REMARK  status: ('A' for Active; 'I' for Inactive)
REMARK    1  A    between atoms: C_1  and  O_2
REMARK    2  A    between atoms: O_2  and  C_3
REMARK    3  A    between atoms: C_7  and  N_8
REMARK    4  A    between atoms: C_9  and  C_11
REMARK                            x       y       z     vdW  Elec       q    Type
REMARK                         _______ _______ _______ _____ _____    ______ ____
ROOT
ATOM      1  C   UNL     1       2.457   5.343  17.836  0.00  0.00    +0.000 C 
ATOM      2  C   UNL     1       1.914   4.149  18.672  0.00  0.00    +0.000 C 
ATOM      3  C   UNL     1       3.048   3.389  19.233  0.00  0.00    +0.000 A 
ATOM      4  N   UNL     1       3.059   2.619  20.359  0.00  0.00    +0.000 N 
ATOM      5  C   UNL     1       4.357   2.236  20.561  0.00  0.00    +0.000 A 
ATOM      6  N   UNL     1       5.155   2.698  19.623  0.00  0.00    +0.000 NA
ATOM      7  C   UNL     1       4.357   3.473  18.819  0.00  0.00    +0.000 A 
ATOM      8  C   UNL     1       4.881   4.529  17.870  0.00  0.00    +0.000 C 
ATOM      9  C   UNL     1       5.639   5.565  18.734  0.00  0.00    +0.000 C 
ATOM     10  C   UNL     1       6.420   6.585  17.927  0.00  0.00    +0.000 C 
ATOM     11  O   UNL     1       7.259   5.964  16.958  0.00  0.00    +0.000 OA
ATOM     12  C   UNL     1       6.529   5.125  16.066  0.00  0.00    +0.000 C 
ATOM     13  C   UNL     1       5.876   3.973  16.828  0.00  0.00    +0.000 C 
ATOM     14  N   UNL     1       3.725   5.097  17.073  0.00  0.00    +0.000 NA
ATOM     15  H   UNL     1       2.286   2.452  20.989  0.00  0.00    +0.000 HD
ATOM     16  H   UNL     1       3.483   4.363  16.402  0.00  0.00    +0.000 HD
ENDROOT
BRANCH   1  18
ATOM     17  N   UNL     1       1.956   7.725  18.001  0.00  0.00    +0.000 N 
ATOM     18  C   UNL     1       2.531   6.639  18.654  0.00  0.00    +0.000 C 
ATOM     19  O   UNL     1       3.005   6.654  19.789  0.00  0.00    +0.000 OA
ATOM     20  H   UNL     1       1.807   7.594  17.004  0.00  0.00    +0.000 HD
BRANCH  17  25
ATOM     21  C   UNL     1       0.817  10.311  20.405  0.00  0.00    +0.000 A 
ATOM     22  C   UNL     1       1.211  11.481  19.755  0.00  0.00    +0.000 A 
ATOM     23  C   UNL     1       1.824  11.420  18.511  0.00  0.00    +0.000 A 
ATOM     24  C   UNL     1       2.059  10.181  17.917  0.00  0.00    +0.000 A 
ATOM     25  C   UNL     1       1.691   8.995  18.560  0.00  0.00    +0.000 A 
ATOM     26  C   UNL     1       1.076   9.065  19.817  0.00  0.00    +0.000 A 
BRANCH  21  28
ATOM     27  C   UNL     1       0.293   9.423  22.536  0.00  0.00    +0.000 C 
ATOM     28  O   UNL     1       0.231  10.512  21.624  0.00  0.00    +0.000 OA
ENDBRANCH  21  28
ENDBRANCH  17  25
ENDBRANCH   1  18
TORSDOF 3
ENDMDL
MODEL 9
REMARK VINA RESULT:      -6.7      6.745     11.527
REMARK  Name = 
REMARK  4 active torsions:
REMARK  status: ('A' for Active; 'I' for Inactive)
REMARK    1  A    between atoms: C_1  and  O_2
REMARK    2  A    between atoms: O_2  and  C_3
REMARK    3  A    between atoms: C_7  and  N_8
REMARK    4  A    between atoms: C_9  and  C_11
REMARK                            x       y       z     vdW  Elec       q    Type
REMARK                         _______ _______ _______ _____ _____    ______ ____
ROOT
ATOM      1  C   UNL     1       0.507  12.820  19.164  0.00  0.00    +0.000 C 
ATOM      2  C   UNL     1      -0.673  13.234  18.239  0.00  0.00    +0.000 C 
ATOM      3  C   UNL     1      -1.470  12.040  17.899  0.00  0.00    +0.000 A 
ATOM      4  N   UNL     1      -2.789  11.990  17.553  0.00  0.00    +0.000 N 
ATOM      5  C   UNL     1      -3.125  10.666  17.473  0.00  0.00    +0.000 A 
ATOM      6  N   UNL     1      -2.098   9.884  17.725  0.00  0.00    +0.000 NA
ATOM      7  C   UNL     1      -1.070  10.733  18.053  0.00  0.00    +0.000 A 
ATOM      8  C   UNL     1       0.170  10.310  18.810  0.00  0.00    +0.000 C 
ATOM      9  C   UNL     1      -0.308   9.772  20.180  0.00  0.00    +0.000 C 
ATOM     10  C   UNL     1       0.783   9.100  20.992  0.00  0.00    +0.000 C 
ATOM     11  O   UNL     1       1.477   8.116  20.232  0.00  0.00    +0.000 OA
ATOM     12  C   UNL     1       2.048   8.652  19.040  0.00  0.00    +0.000 C 
ATOM     13  C   UNL     1       0.953   9.176  18.113  0.00  0.00    +0.000 C 
ATOM     14  N   UNL     1       1.126  11.481  18.890  0.00  0.00    +0.000 NA
ATOM     15  H   UNL     1      -3.429  12.770  17.479  0.00  0.00    +0.000 HD
ATOM     16  H   UNL     1       1.517  11.567  17.947  0.00  0.00    +0.000 HD
ENDROOT
BRANCH   1  18
ATOM     17  N   UNL     1      -1.049  13.636  20.857  0.00  0.00    +0.000 N 
ATOM     18  C   UNL     1       0.168  12.993  20.651  0.00  0.00    +0.000 C 
ATOM     19  O   UNL     1       0.898  12.541  21.531  0.00  0.00    +0.000 OA
ATOM     20  H   UNL     1      -1.416  14.126  20.045  0.00  0.00    +0.000 HD
BRANCH  17  25
ATOM     21  C   UNL     1      -3.293  12.854  23.706  0.00  0.00    +0.000 A 
ATOM     22  C   UNL     1      -3.046  13.934  24.554  0.00  0.00    +0.000 A 
ATOM     23  C   UNL     1      -2.162  14.935  24.173  0.00  0.00    +0.000 A 
ATOM     24  C   UNL     1      -1.511  14.853  22.944  0.00  0.00    +0.000 A 
ATOM     25  C   UNL     1      -1.729  13.767  22.088  0.00  0.00    +0.000 A 
ATOM     26  C   UNL     1      -2.618  12.759  22.481  0.00  0.00    +0.000 A 
BRANCH  21  28
ATOM     27  C   UNL     1      -5.480  12.421  24.499  0.00  0.00    +0.000 C 
ATOM     28  O   UNL     1      -4.178  11.937  24.203  0.00  0.00    +0.000 OA
ENDBRANCH  21  28
ENDBRANCH  17  25
ENDBRANCH   1  18
TORSDOF 3
ENDMDL
