MODEL 1
REMARK VINA RESULT:      -8.9      0.000      0.000
REMARK  Name = 
REMARK  5 active torsions:
REMARK  status: ('A' for Active; 'I' for Inactive)
REMARK    1  A    between atoms: C_1  and  O_2
REMARK    2  A    between atoms: O_2  and  C_3
REMARK    3  A    between atoms: C_6  and  O_7
REMARK    4  A    between atoms: O_7  and  C_8
REMARK    5  A    between atoms: C_17  and  C_19
REMARK                            x       y       z     vdW  Elec       q    Type
REMARK                         _______ _______ _______ _____ _____    ______ ____
ROOT
ATOM      1  C   UNL     1       3.238   4.048  18.819  0.00  0.00    +0.000 C 
ATOM      2  C   UNL     1       3.721   3.244  17.578  0.00  0.00    +0.000 C 
ATOM      3  C   UNL     1       5.052   3.809  16.967  0.00  0.00    +0.000 C 
ATOM      4  C   UNL     1       4.875   5.226  16.401  0.00  0.00    +0.000 C 
ATOM      5  C   UNL     1       4.501   6.136  17.561  0.00  0.00    +0.000 C 
ATOM      6  C   UNL     1       3.269   5.597  18.262  0.00  0.00    +0.000 C 
ATOM      7  N   UNL     1       2.622   6.459  19.232  0.00  0.00    +0.000 N 
ATOM      8  C   UNL     1       2.270   7.773  18.949  0.00  0.00    +0.000 C 
ATOM      9  O   UNL     1       2.506   8.346  17.892  0.00  0.00    +0.000 OA
ATOM     10  C   UNL     1       1.824   5.581  20.081  0.00  0.00    +0.000 C 
ATOM     11  C   UNL     1       1.786   4.214  19.350  0.00  0.00    +0.000 C 
ENDROOT
BRANCH   8  12
ATOM     12  C   UNL     1       1.521   8.596  20.022  0.00  0.00    +0.000 A 
ATOM     13  C   UNL     1       0.541   9.498  19.920  0.00  0.00    +0.000 A 
ATOM     14  N   UNL     1       0.275   9.988  21.171  0.00  0.00    +0.000 N 
ATOM     15  C   UNL     1       1.079   9.336  22.119  0.00  0.00    +0.000 A 
ATOM     16  O   UNL     1       1.100   9.511  23.319  0.00  0.00    +0.000 OA
ATOM     17  N   UNL     1       1.839   8.451  21.333  0.00  0.00    +0.000 N 
ATOM     18  H   UNL     1      -0.397  10.705  21.423  0.00  0.00    +0.000 HD
ATOM     19  H   UNL     1       2.540   7.808  21.723  0.00  0.00    +0.000 HD
ENDBRANCH   8  12
BRANCH   1  21
ATOM     20  C   UNL     1       4.309   2.221  20.222  0.00  0.00    +0.000 C 
ATOM     21  O   UNL     1       3.849   3.572  20.036  0.00  0.00    +0.000 OA
ENDBRANCH   1  21
BRANCH   4  22
ATOM     22  O   UNL     1       6.078   5.746  15.803  0.00  0.00    +0.000 OA
BRANCH  22  23
ATOM     23  C   UNL     1       6.438   5.115  14.631  0.00  0.00    +0.000 A 
ATOM     24  C   UNL     1       5.535   4.230  14.061  0.00  0.00    +0.000 A 
ATOM     25  C   UNL     1       5.853   3.641  12.826  0.00  0.00    +0.000 A 
ATOM     26  C   UNL     1       7.029   3.990  12.186  0.00  0.00    +0.000 A 
ATOM     27  C   UNL     1       7.854   4.930  12.816  0.00  0.00    +0.000 A 
ATOM     28  N   UNL     1       7.595   5.491  14.020  0.00  0.00    +0.000 NA
ENDBRANCH  22  23
ENDBRANCH   4  22
TORSDOF 4
ENDMDL
MODEL 2
REMARK VINA RESULT:      -8.8      2.069      2.654
REMARK  Name = 
REMARK  5 active torsions:
REMARK  status: ('A' for Active; 'I' for Inactive)
REMARK    1  A    between atoms: C_1  and  O_2
REMARK    2  A    between atoms: O_2  and  C_3
REMARK    3  A    between atoms: C_6  and  O_7
REMARK    4  A    between atoms: O_7  and  C_8
REMARK    5  A    between atoms: C_17  and  C_19
REMARK                            x       y       z     vdW  Elec       q    Type
REMARK                         _______ _______ _______ _____ _____    ______ ____
ROOT
ATOM      1  C   UNL     1       2.516   3.678  19.365  0.00  0.00    +0.000 C 
ATOM      2  C   UNL     1       2.898   2.761  18.169  0.00  0.00    +0.000 C 
ATOM      3  C   UNL     1       4.308   3.098  17.567  0.00  0.00    +0.000 C 
ATOM      4  C   UNL     1       4.351   4.500  16.942  0.00  0.00    +0.000 C 
ATOM      5  C   UNL     1       4.095   5.504  18.056  0.00  0.00    +0.000 C 
ATOM      6  C   UNL     1       2.785   5.181  18.749  0.00  0.00    +0.000 C 
ATOM      7  N   UNL     1       2.255   6.169  19.668  0.00  0.00    +0.000 N 
ATOM      8  C   UNL     1       2.106   7.507  19.325  0.00  0.00    +0.000 C 
ATOM      9  O   UNL     1       2.442   7.995  18.253  0.00  0.00    +0.000 OA
ATOM     10  C   UNL     1       1.322   5.454  20.532  0.00  0.00    +0.000 C 
ATOM     11  C   UNL     1       1.096   4.078  19.855  0.00  0.00    +0.000 C 
ENDROOT
BRANCH   8  12
ATOM     12  C   UNL     1       1.467   8.477  20.347  0.00  0.00    +0.000 A 
ATOM     13  C   UNL     1       0.652   9.522  20.184  0.00  0.00    +0.000 A 
ATOM     14  N   UNL     1       0.430  10.090  21.411  0.00  0.00    +0.000 N 
ATOM     15  C   UNL     1       1.085   9.346  22.405  0.00  0.00    +0.000 A 
ATOM     16  O   UNL     1       1.094   9.554  23.601  0.00  0.00    +0.000 OA
ATOM     17  N   UNL     1       1.714   8.324  21.672  0.00  0.00    +0.000 N 
ATOM     18  H   UNL     1      -0.123  10.914  21.619  0.00  0.00    +0.000 HD
ATOM     19  H   UNL     1       2.287   7.588  22.105  0.00  0.00    +0.000 HD
ENDBRANCH   8  12
BRANCH   1  21
ATOM     20  C   UNL     1       2.225   2.464  21.577  0.00  0.00    +0.000 C 
ATOM     21  O   UNL     1       3.029   3.171  20.614  0.00  0.00    +0.000 OA
ENDBRANCH   1  21
BRANCH   4  22
ATOM     22  O   UNL     1       5.628   4.812  16.352  0.00  0.00    +0.000 OA
BRANCH  22  23
ATOM     23  C   UNL     1       6.406   5.656  17.115  0.00  0.00    +0.000 A 
ATOM     24  C   UNL     1       7.104   5.114  18.185  0.00  0.00    +0.000 A 
ATOM     25  C   UNL     1       7.964   5.945  18.922  0.00  0.00    +0.000 A 
ATOM     26  C   UNL     1       8.132   7.264  18.540  0.00  0.00    +0.000 A 
ATOM     27  C   UNL     1       7.423   7.708  17.417  0.00  0.00    +0.000 A 
ATOM     28  N   UNL     1       6.562   6.945  16.705  0.00  0.00    +0.000 NA
ENDBRANCH  22  23
ENDBRANCH   4  22
TORSDOF 4
ENDMDL
MODEL 3
REMARK VINA RESULT:      -8.6      2.154      2.695
REMARK  Name = 
REMARK  5 active torsions:
REMARK  status: ('A' for Active; 'I' for Inactive)
REMARK    1  A    between atoms: C_1  and  O_2
REMARK    2  A    between atoms: O_2  and  C_3
REMARK    3  A    between atoms: C_6  and  O_7
REMARK    4  A    between atoms: O_7  and  C_8
REMARK    5  A    between atoms: C_17  and  C_19
REMARK                            x       y       z     vdW  Elec       q    Type
REMARK                         _______ _______ _______ _____ _____    ______ ____
ROOT
ATOM      1  C   UNL     1       2.401   3.449  19.477  0.00  0.00    +0.000 C 
ATOM      2  C   UNL     1       2.721   2.432  18.345  0.00  0.00    +0.000 C 
ATOM      3  C   UNL     1       4.141   2.648  17.714  0.00  0.00    +0.000 C 
ATOM      4  C   UNL     1       4.255   4.000  16.993  0.00  0.00    +0.000 C 
ATOM      5  C   UNL     1       4.065   5.090  18.036  0.00  0.00    +0.000 C 
ATOM      6  C   UNL     1       2.745   4.889  18.757  0.00  0.00    +0.000 C 
ATOM      7  N   UNL     1       2.279   5.965  19.608  0.00  0.00    +0.000 N 
ATOM      8  C   UNL     1       2.200   7.282  19.174  0.00  0.00    +0.000 C 
ATOM      9  O   UNL     1       2.552   7.676  18.069  0.00  0.00    +0.000 OA
ATOM     10  C   UNL     1       1.316   5.364  20.525  0.00  0.00    +0.000 C 
ATOM     11  C   UNL     1       1.009   3.959  19.946  0.00  0.00    +0.000 C 
ENDROOT
BRANCH   8  12
ATOM     12  C   UNL     1       1.625   8.354  20.130  0.00  0.00    +0.000 A 
ATOM     13  C   UNL     1       0.948   9.480  19.891  0.00  0.00    +0.000 A 
ATOM     14  N   UNL     1       0.727  10.112  21.087  0.00  0.00    +0.000 N 
ATOM     15  C   UNL     1       1.236   9.332  22.138  0.00  0.00    +0.000 A 
ATOM     16  O   UNL     1       1.205   9.579  23.325  0.00  0.00    +0.000 OA
ATOM     17  N   UNL     1       1.779   8.219  21.471  0.00  0.00    +0.000 N 
ATOM     18  H   UNL     1       0.264  11.001  21.239  0.00  0.00    +0.000 HD
ATOM     19  H   UNL     1       2.238   7.438  21.957  0.00  0.00    +0.000 HD
ENDBRANCH   8  12
BRANCH   1  21
ATOM     20  C   UNL     1       2.068   2.389  21.761  0.00  0.00    +0.000 C 
ATOM     21  O   UNL     1       2.897   3.001  20.756  0.00  0.00    +0.000 OA
ENDBRANCH   1  21
BRANCH   4  22
ATOM     22  O   UNL     1       5.542   4.199  16.376  0.00  0.00    +0.000 OA
BRANCH  22  23
ATOM     23  C   UNL     1       6.389   5.013  17.098  0.00  0.00    +0.000 A 
ATOM     24  C   UNL     1       6.497   6.344  16.721  0.00  0.00    +0.000 A 
ATOM     25  C   UNL     1       7.292   7.204  17.495  0.00  0.00    +0.000 A 
ATOM     26  C   UNL     1       7.908   6.721  18.635  0.00  0.00    +0.000 A 
ATOM     27  C   UNL     1       7.701   5.375  18.964  0.00  0.00    +0.000 A 
ATOM     28  N   UNL     1       6.970   4.512  18.223  0.00  0.00    +0.000 NA
ENDBRANCH  22  23
ENDBRANCH   4  22
TORSDOF 4
ENDMDL
MODEL 4
REMARK VINA RESULT:      -8.4      0.874      1.028
REMARK  Name = 
REMARK  5 active torsions:
REMARK  status: ('A' for Active; 'I' for Inactive)
REMARK    1  A    between atoms: C_1  and  O_2
REMARK    2  A    between atoms: O_2  and  C_3
REMARK    3  A    between atoms: C_6  and  O_7
REMARK    4  A    between atoms: O_7  and  C_8
REMARK    5  A    between atoms: C_17  and  C_19
REMARK                            x       y       z     vdW  Elec       q    Type
REMARK                         _______ _______ _______ _____ _____    ______ ____
ROOT
ATOM      1  C   UNL     1       3.132   3.940  18.787  0.00  0.00    +0.000 C 
ATOM      2  C   UNL     1       3.653   3.128  17.567  0.00  0.00    +0.000 C 
ATOM      3  C   UNL     1       5.034   3.650  17.033  0.00  0.00    +0.000 C 
ATOM      4  C   UNL     1       4.936   5.076  16.470  0.00  0.00    +0.000 C 
ATOM      5  C   UNL     1       4.533   5.991  17.616  0.00  0.00    +0.000 C 
ATOM      6  C   UNL     1       3.246   5.491  18.246  0.00  0.00    +0.000 C 
ATOM      7  N   UNL     1       2.579   6.368  19.187  0.00  0.00    +0.000 N 
ATOM      8  C   UNL     1       2.288   7.695  18.897  0.00  0.00    +0.000 C 
ATOM      9  O   UNL     1       2.600   8.268  17.859  0.00  0.00    +0.000 OA
ATOM     10  C   UNL     1       1.707   5.513  19.985  0.00  0.00    +0.000 C 
ATOM     11  C   UNL     1       1.661   4.153  19.242  0.00  0.00    +0.000 C 
ENDROOT
BRANCH   8  12
ATOM     12  C   UNL     1       1.511   8.538  19.935  0.00  0.00    +0.000 A 
ATOM     13  C   UNL     1       1.466   8.477  21.269  0.00  0.00    +0.000 A 
ATOM     14  N   UNL     1       0.566   9.409  21.712  0.00  0.00    +0.000 N 
ATOM     15  C   UNL     1       0.054  10.132  20.623  0.00  0.00    +0.000 A 
ATOM     16  O   UNL     1      -0.754  11.037  20.649  0.00  0.00    +0.000 OA
ATOM     17  N   UNL     1       0.703   9.546  19.522  0.00  0.00    +0.000 N 
ATOM     18  H   UNL     1       0.287   9.591  22.670  0.00  0.00    +0.000 HD
ATOM     19  H   UNL     1       0.552   9.848  18.551  0.00  0.00    +0.000 HD
ENDBRANCH   8  12
BRANCH   1  21
ATOM     20  C   UNL     1       4.376   2.192  20.147  0.00  0.00    +0.000 C 
ATOM     21  O   UNL     1       3.660   3.435  20.031  0.00  0.00    +0.000 OA
ENDBRANCH   1  21
BRANCH   4  22
ATOM     22  O   UNL     1       6.187   5.557  15.941  0.00  0.00    +0.000 OA
BRANCH  22  23
ATOM     23  C   UNL     1       6.519   5.022  14.715  0.00  0.00    +0.000 A 
ATOM     24  C   UNL     1       5.627   4.140  14.123  0.00  0.00    +0.000 A 
ATOM     25  C   UNL     1       5.913   3.649  12.839  0.00  0.00    +0.000 A 
ATOM     26  C   UNL     1       7.045   4.089  12.177  0.00  0.00    +0.000 A 
ATOM     27  C   UNL     1       7.860   5.019  12.835  0.00  0.00    +0.000 A 
ATOM     28  N   UNL     1       7.633   5.486  14.084  0.00  0.00    +0.000 NA
ENDBRANCH  22  23
ENDBRANCH   4  22
TORSDOF 4
ENDMDL
MODEL 5
REMARK VINA RESULT:      -8.3      3.379      4.569
REMARK  Name = 
REMARK  5 active torsions:
REMARK  status: ('A' for Active; 'I' for Inactive)
REMARK    1  A    between atoms: C_1  and  O_2
REMARK    2  A    between atoms: O_2  and  C_3
REMARK    3  A    between atoms: C_6  and  O_7
REMARK    4  A    between atoms: O_7  and  C_8
REMARK    5  A    between atoms: C_17  and  C_19
REMARK                            x       y       z     vdW  Elec       q    Type
REMARK                         _______ _______ _______ _____ _____    ______ ____
ROOT
ATOM      1  C   UNL     1       6.503   5.358  17.339  0.00  0.00    +0.000 C 
ATOM      2  C   UNL     1       7.541   5.063  16.219  0.00  0.00    +0.000 C 
ATOM      3  C   UNL     1       6.935   5.187  14.776  0.00  0.00    +0.000 C 
ATOM      4  C   UNL     1       5.847   4.134  14.513  0.00  0.00    +0.000 C 
ATOM      5  C   UNL     1       4.713   4.395  15.492  0.00  0.00    +0.000 C 
ATOM      6  C   UNL     1       5.247   4.383  16.912  0.00  0.00    +0.000 C 
ATOM      7  N   UNL     1       4.277   4.366  17.989  0.00  0.00    +0.000 N 
ATOM      8  C   UNL     1       3.231   3.453  18.041  0.00  0.00    +0.000 C 
ATOM      9  O   UNL     1       2.992   2.615  17.179  0.00  0.00    +0.000 OA
ATOM     10  C   UNL     1       4.983   4.844  19.173  0.00  0.00    +0.000 C 
ATOM     11  C   UNL     1       6.487   4.825  18.799  0.00  0.00    +0.000 C 
ENDROOT
BRANCH   8  12
ATOM     12  C   UNL     1       2.285   3.465  19.264  0.00  0.00    +0.000 A 
ATOM     13  C   UNL     1       1.204   4.200  19.539  0.00  0.00    +0.000 A 
ATOM     14  N   UNL     1       0.764   3.866  20.793  0.00  0.00    +0.000 N 
ATOM     15  C   UNL     1       1.563   2.840  21.320  0.00  0.00    +0.000 A 
ATOM     16  O   UNL     1       1.454   2.296  22.399  0.00  0.00    +0.000 OA
ATOM     17  N   UNL     1       2.502   2.614  20.298  0.00  0.00    +0.000 N 
ATOM     18  H   UNL     1      -0.019   4.266  21.299  0.00  0.00    +0.000 HD
ATOM     19  H   UNL     1       3.248   1.909  20.361  0.00  0.00    +0.000 HD
ENDBRANCH   8  12
BRANCH   1  21
ATOM     20  C   UNL     1       7.546   7.661  17.579  0.00  0.00    +0.000 C 
ATOM     21  O   UNL     1       6.419   6.768  17.633  0.00  0.00    +0.000 OA
ENDBRANCH   1  21
BRANCH   4  22
ATOM     22  O   UNL     1       5.305   4.210  13.180  0.00  0.00    +0.000 OA
BRANCH  22  23
ATOM     23  C   UNL     1       5.844   3.293  12.303  0.00  0.00    +0.000 A 
ATOM     24  C   UNL     1       7.194   3.394  11.999  0.00  0.00    +0.000 A 
ATOM     25  C   UNL     1       7.775   2.420  11.172  0.00  0.00    +0.000 A 
ATOM     26  C   UNL     1       7.007   1.362  10.720  0.00  0.00    +0.000 A 
ATOM     27  C   UNL     1       5.666   1.318  11.119  0.00  0.00    +0.000 A 
ATOM     28  N   UNL     1       5.065   2.257  11.887  0.00  0.00    +0.000 NA
ENDBRANCH  22  23
ENDBRANCH   4  22
TORSDOF 4
ENDMDL
MODEL 6
REMARK VINA RESULT:      -8.3      1.658      8.080
REMARK  Name = 
REMARK  5 active torsions:
REMARK  status: ('A' for Active; 'I' for Inactive)
REMARK    1  A    between atoms: C_1  and  O_2
REMARK    2  A    between atoms: O_2  and  C_3
REMARK    3  A    between atoms: C_6  and  O_7
REMARK    4  A    between atoms: O_7  and  C_8
REMARK    5  A    between atoms: C_17  and  C_19
REMARK                            x       y       z     vdW  Elec       q    Type
REMARK                         _______ _______ _______ _____ _____    ______ ____
ROOT
ATOM      1  C   UNL     1       2.427   4.489  19.459  0.00  0.00    +0.000 C 
ATOM      2  C   UNL     1       1.845   5.145  20.743  0.00  0.00    +0.000 C 
ATOM      3  C   UNL     1       1.107   6.500  20.454  0.00  0.00    +0.000 C 
ATOM      4  C   UNL     1       2.066   7.581  19.929  0.00  0.00    +0.000 C 
ATOM      5  C   UNL     1       2.622   7.090  18.602  0.00  0.00    +0.000 C 
ATOM      6  C   UNL     1       3.272   5.731  18.787  0.00  0.00    +0.000 C 
ATOM      7  N   UNL     1       4.072   5.220  17.692  0.00  0.00    +0.000 N 
ATOM      8  C   UNL     1       5.075   5.965  17.085  0.00  0.00    +0.000 C 
ATOM      9  O   UNL     1       5.353   7.124  17.369  0.00  0.00    +0.000 OA
ATOM     10  C   UNL     1       4.158   3.778  17.896  0.00  0.00    +0.000 C 
ATOM     11  C   UNL     1       3.644   3.529  19.338  0.00  0.00    +0.000 C 
ENDROOT
BRANCH   8  12
ATOM     12  C   UNL     1       5.924   5.312  15.969  0.00  0.00    +0.000 A 
ATOM     13  C   UNL     1       7.246   5.196  15.817  0.00  0.00    +0.000 A 
ATOM     14  N   UNL     1       7.489   4.588  14.614  0.00  0.00    +0.000 N 
ATOM     15  C   UNL     1       6.274   4.254  13.995  0.00  0.00    +0.000 A 
ATOM     16  O   UNL     1       6.114   3.698  12.928  0.00  0.00    +0.000 OA
ATOM     17  N   UNL     1       5.314   4.724  14.910  0.00  0.00    +0.000 N 
ATOM     18  H   UNL     1       8.390   4.381  14.198  0.00  0.00    +0.000 HD
ATOM     19  H   UNL     1       4.301   4.635  14.761  0.00  0.00    +0.000 HD
ENDBRANCH   8  12
BRANCH   1  21
ATOM     20  C   UNL     1       0.974   2.411  19.305  0.00  0.00    +0.000 C 
ATOM     21  O   UNL     1       1.450   3.667  18.787  0.00  0.00    +0.000 OA
ENDBRANCH   1  21
BRANCH   4  22
ATOM     22  O   UNL     1       1.412   8.843  19.694  0.00  0.00    +0.000 OA
BRANCH  22  23
ATOM     23  C   UNL     1       0.689   9.309  20.771  0.00  0.00    +0.000 A 
ATOM     24  C   UNL     1       1.094   8.932  22.043  0.00  0.00    +0.000 A 
ATOM     25  C   UNL     1       0.419   9.462  23.154  0.00  0.00    +0.000 A 
ATOM     26  C   UNL     1      -0.598  10.381  22.959  0.00  0.00    +0.000 A 
ATOM     27  C   UNL     1      -0.903  10.739  21.640  0.00  0.00    +0.000 A 
ATOM     28  N   UNL     1      -0.296  10.222  20.547  0.00  0.00    +0.000 NA
ENDBRANCH  22  23
ENDBRANCH   4  22
TORSDOF 4
ENDMDL
MODEL 7
REMARK VINA RESULT:      -8.1      1.635      8.036
REMARK  Name = 
REMARK  5 active torsions:
REMARK  status: ('A' for Active; 'I' for Inactive)
REMARK    1  A    between atoms: C_1  and  O_2
REMARK    2  A    between atoms: O_2  and  C_3
REMARK    3  A    between atoms: C_6  and  O_7
REMARK    4  A    between atoms: O_7  and  C_8
REMARK    5  A    between atoms: C_17  and  C_19
REMARK                            x       y       z     vdW  Elec       q    Type
REMARK                         _______ _______ _______ _____ _____    ______ ____
ROOT
ATOM      1  C   UNL     1       2.779   4.355  19.492  0.00  0.00    +0.000 C 
ATOM      2  C   UNL     1       2.273   5.073  20.776  0.00  0.00    +0.000 C 
ATOM      3  C   UNL     1       1.401   6.340  20.463  0.00  0.00    +0.000 C 
ATOM      4  C   UNL     1       2.210   7.440  19.759  0.00  0.00    +0.000 C 
ATOM      5  C   UNL     1       2.672   6.882  18.422  0.00  0.00    +0.000 C 
ATOM      6  C   UNL     1       3.448   5.596  18.642  0.00  0.00    +0.000 C 
ATOM      7  N   UNL     1       4.175   5.055  17.511  0.00  0.00    +0.000 N 
ATOM      8  C   UNL     1       5.048   5.819  16.746  0.00  0.00    +0.000 C 
ATOM      9  O   UNL     1       5.255   7.016  16.910  0.00  0.00    +0.000 OA
ATOM     10  C   UNL     1       4.400   3.646  17.815  0.00  0.00    +0.000 C 
ATOM     11  C   UNL     1       4.054   3.482  19.318  0.00  0.00    +0.000 C 
ENDROOT
BRANCH   8  12
ATOM     12  C   UNL     1       5.834   5.140  15.601  0.00  0.00    +0.000 A 
ATOM     13  C   UNL     1       7.145   5.049  15.360  0.00  0.00    +0.000 A 
ATOM     14  N   UNL     1       7.319   4.395  14.169  0.00  0.00    +0.000 N 
ATOM     15  C   UNL     1       6.073   4.005  13.653  0.00  0.00    +0.000 A 
ATOM     16  O   UNL     1       5.854   3.400  12.625  0.00  0.00    +0.000 OA
ATOM     17  N   UNL     1       5.168   4.490  14.614  0.00  0.00    +0.000 N 
ATOM     18  H   UNL     1       8.194   4.193  13.698  0.00  0.00    +0.000 HD
ATOM     19  H   UNL     1       4.149   4.370  14.542  0.00  0.00    +0.000 HD
ENDBRANCH   8  12
BRANCH   1  21
ATOM     20  C   UNL     1       0.918   2.662  19.836  0.00  0.00    +0.000 C 
ATOM     21  O   UNL     1       1.812   3.409  18.991  0.00  0.00    +0.000 OA
ENDBRANCH   1  21
BRANCH   4  22
ATOM     22  O   UNL     1       1.434   8.626  19.497  0.00  0.00    +0.000 OA
BRANCH  22  23
ATOM     23  C   UNL     1       0.898   9.205  20.628  0.00  0.00    +0.000 A 
ATOM     24  C   UNL     1      -0.217  10.018  20.480  0.00  0.00    +0.000 A 
ATOM     25  C   UNL     1      -0.823  10.550  21.630  0.00  0.00    +0.000 A 
ATOM     26  C   UNL     1      -0.329  10.215  22.878  0.00  0.00    +0.000 A 
ATOM     27  C   UNL     1       0.769   9.348  22.929  0.00  0.00    +0.000 A 
ATOM     28  N   UNL     1       1.397   8.845  21.842  0.00  0.00    +0.000 NA
ENDBRANCH  22  23
ENDBRANCH   4  22
TORSDOF 4
ENDMDL
MODEL 8
REMARK VINA RESULT:      -8.0      2.302      2.849
REMARK  Name = 
REMARK  5 active torsions:
REMARK  status: ('A' for Active; 'I' for Inactive)
REMARK    1  A    between atoms: C_1  and  O_2
REMARK    2  A    between atoms: O_2  and  C_3
REMARK    3  A    between atoms: C_6  and  O_7
REMARK    4  A    between atoms: O_7  and  C_8
REMARK    5  A    between atoms: C_17  and  C_19
REMARK                            x       y       z     vdW  Elec       q    Type
REMARK                         _______ _______ _______ _____ _____    ______ ____
ROOT
ATOM      1  C   UNL     1       2.366   3.464  19.504  0.00  0.00    +0.000 C 
ATOM      2  C   UNL     1       2.669   2.432  18.381  0.00  0.00    +0.000 C 
ATOM      3  C   UNL     1       4.086   2.631  17.735  0.00  0.00    +0.000 C 
ATOM      4  C   UNL     1       4.203   3.974  16.997  0.00  0.00    +0.000 C 
ATOM      5  C   UNL     1       4.029   5.077  18.029  0.00  0.00    +0.000 C 
ATOM      6  C   UNL     1       2.714   4.893  18.763  0.00  0.00    +0.000 C 
ATOM      7  N   UNL     1       2.263   5.982  19.606  0.00  0.00    +0.000 N 
ATOM      8  C   UNL     1       2.189   7.295  19.158  0.00  0.00    +0.000 C 
ATOM      9  O   UNL     1       2.534   7.673  18.045  0.00  0.00    +0.000 OA
ATOM     10  C   UNL     1       1.304   5.399  20.538  0.00  0.00    +0.000 C 
ATOM     11  C   UNL     1       0.982   3.989  19.978  0.00  0.00    +0.000 C 
ENDROOT
BRANCH   8  12
ATOM     12  C   UNL     1       1.629   8.381  20.106  0.00  0.00    +0.000 A 
ATOM     13  C   UNL     1       1.530   8.428  21.437  0.00  0.00    +0.000 A 
ATOM     14  N   UNL     1       0.893   9.591  21.781  0.00  0.00    +0.000 N 
ATOM     15  C   UNL     1       0.621  10.344  20.627  0.00  0.00    +0.000 A 
ATOM     16  O   UNL     1       0.078  11.427  20.561  0.00  0.00    +0.000 OA
ATOM     17  N   UNL     1       1.126   9.533  19.595  0.00  0.00    +0.000 N 
ATOM     18  H   UNL     1       0.643   9.906  22.712  0.00  0.00    +0.000 HD
ATOM     19  H   UNL     1       1.089   9.795  18.602  0.00  0.00    +0.000 HD
ENDBRANCH   8  12
BRANCH   1  21
ATOM     20  C   UNL     1       2.068   2.348  21.765  0.00  0.00    +0.000 C 
ATOM     21  O   UNL     1       2.870   3.028  20.783  0.00  0.00    +0.000 OA
ENDBRANCH   1  21
BRANCH   4  22
ATOM     22  O   UNL     1       5.485   4.157  16.366  0.00  0.00    +0.000 OA
BRANCH  22  23
ATOM     23  C   UNL     1       6.338   4.988  17.062  0.00  0.00    +0.000 A 
ATOM     24  C   UNL     1       6.404   6.321  16.685  0.00  0.00    +0.000 A 
ATOM     25  C   UNL     1       7.206   7.197  17.435  0.00  0.00    +0.000 A 
ATOM     26  C   UNL     1       7.869   6.725  18.554  0.00  0.00    +0.000 A 
ATOM     27  C   UNL     1       7.702   5.375  18.886  0.00  0.00    +0.000 A 
ATOM     28  N   UNL     1       6.965   4.497  18.167  0.00  0.00    +0.000 NA
ENDBRANCH  22  23
ENDBRANCH   4  22
TORSDOF 4
ENDMDL
MODEL 9
REMARK VINA RESULT:      -8.0      0.931      1.203
REMARK  Name = 
REMARK  5 active torsions:
REMARK  status: ('A' for Active; 'I' for Inactive)
REMARK    1  A    between atoms: C_1  and  O_2
REMARK    2  A    between atoms: O_2  and  C_3
REMARK    3  A    between atoms: C_6  and  O_7
REMARK    4  A    between atoms: O_7  and  C_8
REMARK    5  A    between atoms: C_17  and  C_19
REMARK                            x       y       z     vdW  Elec       q    Type
REMARK                         _______ _______ _______ _____ _____    ______ ____
ROOT
ATOM      1  C   UNL     1       2.784   3.853  19.380  0.00  0.00    +0.000 C 
ATOM      2  C   UNL     1       3.278   2.974  18.196  0.00  0.00    +0.000 C 
ATOM      3  C   UNL     1       4.692   3.402  17.667  0.00  0.00    +0.000 C 
ATOM      4  C   UNL     1       4.680   4.812  17.057  0.00  0.00    +0.000 C 
ATOM      5  C   UNL     1       4.311   5.785  18.165  0.00  0.00    +0.000 C 
ATOM      6  C   UNL     1       2.990   5.376  18.790  0.00  0.00    +0.000 C 
ATOM      7  N   UNL     1       2.358   6.319  19.691  0.00  0.00    +0.000 N 
ATOM      8  C   UNL     1       2.144   7.650  19.353  0.00  0.00    +0.000 C 
ATOM      9  O   UNL     1       2.502   8.169  18.303  0.00  0.00    +0.000 OA
ATOM     10  C   UNL     1       1.429   5.540  20.502  0.00  0.00    +0.000 C 
ATOM     11  C   UNL     1       1.320   4.160  19.803  0.00  0.00    +0.000 C 
ENDROOT
BRANCH   8  12
ATOM     12  C   UNL     1       1.400   8.567  20.351  0.00  0.00    +0.000 A 
ATOM     13  C   UNL     1       0.534   9.565  20.157  0.00  0.00    +0.000 A 
ATOM     14  N   UNL     1       0.217  10.103  21.377  0.00  0.00    +0.000 N 
ATOM     15  C   UNL     1       0.865   9.386  22.396  0.00  0.00    +0.000 A 
ATOM     16  O   UNL     1       0.802   9.579  23.592  0.00  0.00    +0.000 OA
ATOM     17  N   UNL     1       1.588   8.412  21.685  0.00  0.00    +0.000 N 
ATOM     18  H   UNL     1      -0.393  10.891  21.565  0.00  0.00    +0.000 HD
ATOM     19  H   UNL     1       2.182   7.706  22.140  0.00  0.00    +0.000 HD
ENDBRANCH   8  12
BRANCH   1  21
ATOM     20  C   UNL     1       2.504   2.496  21.509  0.00  0.00    +0.000 C 
ATOM     21  O   UNL     1       3.266   3.362  20.648  0.00  0.00    +0.000 OA
ENDBRANCH   1  21
BRANCH   4  22
ATOM     22  O   UNL     1       5.963   5.207  16.532  0.00  0.00    +0.000 OA
BRANCH  22  23
ATOM     23  C   UNL     1       6.147   4.888  15.204  0.00  0.00    +0.000 A 
ATOM     24  C   UNL     1       7.345   5.251  14.604  0.00  0.00    +0.000 A 
ATOM     25  C   UNL     1       7.580   4.863  13.275  0.00  0.00    +0.000 A 
ATOM     26  C   UNL     1       6.642   4.092  12.613  0.00  0.00    +0.000 A 
ATOM     27  C   UNL     1       5.485   3.733  13.317  0.00  0.00    +0.000 A 
ATOM     28  N   UNL     1       5.211   4.117  14.585  0.00  0.00    +0.000 NA
ENDBRANCH  22  23
ENDBRANCH   4  22
TORSDOF 4
ENDMDL
