MODEL 1
REMARK VINA RESULT:      -6.9      0.000      0.000
REMARK  Name = 
REMARK  2 active torsions:
REMARK  status: ('A' for Active; 'I' for Inactive)
REMARK    1  A    between atoms: C_2  and  C_3
REMARK    2  A    between atoms: C_3  and  C_4
REMARK                            x       y       z     vdW  Elec       q    Type
REMARK                         _______ _______ _______ _____ _____    ______ ____
ROOT
ATOM      1  O   UNL     1       3.334   6.779  18.591  0.00  0.00    +0.000 OA
ATOM      2  C   UNL     1       3.556   5.824  17.838  0.00  0.00    +0.000 C 
ATOM      3  N   UNL     1       4.735   5.719  17.105  0.00  0.00    +0.000 N 
ATOM      4  C   UNL     1       5.794   6.701  17.319  0.00  0.00    +0.000 C 
ATOM      5  C   UNL     1       6.958   6.155  18.140  0.00  0.00    +0.000 C 
ATOM      6  C   UNL     1       7.612   4.866  17.640  0.00  0.00    +0.000 C 
ATOM      7  N   UNL     1       7.425   4.561  16.220  0.00  0.00    +0.000 NA
ATOM      8  C   UNL     1       6.122   3.911  15.990  0.00  0.00    +0.000 C 
ATOM      9  C   UNL     1       4.910   4.854  15.933  0.00  0.00    +0.000 C 
ATOM     10  H   UNL     1       8.151   3.897  15.946  0.00  0.00    +0.000 HD
ENDROOT
BRANCH   2  11
ATOM     11  C   UNL     1       2.549   4.691  17.765  0.00  0.00    +0.000 C 
BRANCH  11  12
ATOM     12  C   UNL     1       2.384   3.924  19.049  0.00  0.00    +0.000 A 
ATOM     13  C   UNL     1       1.178   3.926  19.747  0.00  0.00    +0.000 A 
ATOM     14  C   UNL     1       1.101   3.243  20.958  0.00  0.00    +0.000 A 
ATOM     15  C   UNL     1       2.221   2.579  21.444  0.00  0.00    +0.000 A 
ATOM     16  C   UNL     1       3.381   2.626  20.694  0.00  0.00    +0.000 A 
ATOM     17  N   UNL     1       3.488   3.282  19.516  0.00  0.00    +0.000 NA
ENDBRANCH  11  12
ENDBRANCH   2  11
TORSDOF 2
ENDMDL
MODEL 2
REMARK VINA RESULT:      -6.9      2.210      6.094
REMARK  Name = 
REMARK  2 active torsions:
REMARK  status: ('A' for Active; 'I' for Inactive)
REMARK    1  A    between atoms: C_2  and  C_3
REMARK    2  A    between atoms: C_3  and  C_4
REMARK                            x       y       z     vdW  Elec       q    Type
REMARK                         _______ _______ _______ _____ _____    ______ ____
ROOT
ATOM      1  O   UNL     1       4.964   6.624  15.883  0.00  0.00    +0.000 OA
ATOM      2  C   UNL     1       5.399   5.744  16.634  0.00  0.00    +0.000 C 
ATOM      3  N   UNL     1       4.746   5.387  17.810  0.00  0.00    +0.000 N 
ATOM      4  C   UNL     1       3.447   5.981  18.110  0.00  0.00    +0.000 C 
ATOM      5  C   UNL     1       2.283   5.023  17.876  0.00  0.00    +0.000 C 
ATOM      6  C   UNL     1       2.351   3.668  18.584  0.00  0.00    +0.000 C 
ATOM      7  N   UNL     1       3.212   3.604  19.766  0.00  0.00    +0.000 NA
ATOM      8  C   UNL     1       4.620   3.399  19.381  0.00  0.00    +0.000 C 
ATOM      9  C   UNL     1       5.372   4.656  18.917  0.00  0.00    +0.000 C 
ATOM     10  H   UNL     1       2.924   2.794  20.319  0.00  0.00    +0.000 HD
ENDROOT
BRANCH   2  11
ATOM     11  C   UNL     1       6.642   4.974  16.226  0.00  0.00    +0.000 C 
BRANCH  11  12
ATOM     12  C   UNL     1       6.772   4.745  14.744  0.00  0.00    +0.000 A 
ATOM     13  C   UNL     1       5.994   3.794  14.086  0.00  0.00    +0.000 A 
ATOM     14  C   UNL     1       6.195   3.587  12.723  0.00  0.00    +0.000 A 
ATOM     15  C   UNL     1       7.163   4.325  12.054  0.00  0.00    +0.000 A 
ATOM     16  C   UNL     1       7.895   5.248  12.778  0.00  0.00    +0.000 A 
ATOM     17  N   UNL     1       7.724   5.470  14.100  0.00  0.00    +0.000 NA
ENDBRANCH  11  12
ENDBRANCH   2  11
TORSDOF 2
ENDMDL
MODEL 3
REMARK VINA RESULT:      -6.7      1.717      2.493
REMARK  Name = 
REMARK  2 active torsions:
REMARK  status: ('A' for Active; 'I' for Inactive)
REMARK    1  A    between atoms: C_2  and  C_3
REMARK    2  A    between atoms: C_3  and  C_4
REMARK                            x       y       z     vdW  Elec       q    Type
REMARK                         _______ _______ _______ _____ _____    ______ ____
ROOT
ATOM      1  O   UNL     1       5.800   3.938  19.522  0.00  0.00    +0.000 OA
ATOM      2  C   UNL     1       5.299   4.910  18.946  0.00  0.00    +0.000 C 
ATOM      3  N   UNL     1       5.802   5.396  17.742  0.00  0.00    +0.000 N 
ATOM      4  C   UNL     1       6.877   4.667  17.076  0.00  0.00    +0.000 C 
ATOM      5  C   UNL     1       6.399   3.870  15.866  0.00  0.00    +0.000 C 
ATOM      6  C   UNL     1       5.622   4.638  14.795  0.00  0.00    +0.000 C 
ATOM      7  N   UNL     1       5.838   6.086  14.762  0.00  0.00    +0.000 NA
ATOM      8  C   UNL     1       4.998   6.766  15.764  0.00  0.00    +0.000 C 
ATOM      9  C   UNL     1       5.526   6.734  17.207  0.00  0.00    +0.000 C 
ATOM     10  H   UNL     1       5.550   6.423  13.842  0.00  0.00    +0.000 HD
ENDROOT
BRANCH   2  11
ATOM     11  C   UNL     1       4.051   5.550  19.526  0.00  0.00    +0.000 C 
BRANCH  11  12
ATOM     12  C   UNL     1       2.855   4.637  19.582  0.00  0.00    +0.000 A 
ATOM     13  C   UNL     1       2.233   4.328  20.790  0.00  0.00    +0.000 A 
ATOM     14  C   UNL     1       1.164   3.435  20.786  0.00  0.00    +0.000 A 
ATOM     15  C   UNL     1       0.745   2.872  19.587  0.00  0.00    +0.000 A 
ATOM     16  C   UNL     1       1.415   3.227  18.431  0.00  0.00    +0.000 A 
ATOM     17  N   UNL     1       2.456   4.090  18.403  0.00  0.00    +0.000 NA
ENDBRANCH  11  12
ENDBRANCH   2  11
TORSDOF 2
ENDMDL
MODEL 4
REMARK VINA RESULT:      -6.6      1.709      2.533
REMARK  Name = 
REMARK  2 active torsions:
REMARK  status: ('A' for Active; 'I' for Inactive)
REMARK    1  A    between atoms: C_2  and  C_3
REMARK    2  A    between atoms: C_3  and  C_4
REMARK                            x       y       z     vdW  Elec       q    Type
REMARK                         _______ _______ _______ _____ _____    ______ ____
ROOT
ATOM      1  O   UNL     1       5.911   3.950  19.508  0.00  0.00    +0.000 OA
ATOM      2  C   UNL     1       5.374   4.899  18.924  0.00  0.00    +0.000 C 
ATOM      3  N   UNL     1       5.858   5.393  17.717  0.00  0.00    +0.000 N 
ATOM      4  C   UNL     1       6.960   4.699  17.056  0.00  0.00    +0.000 C 
ATOM      5  C   UNL     1       6.511   3.875  15.853  0.00  0.00    +0.000 C 
ATOM      6  C   UNL     1       5.706   4.605  14.776  0.00  0.00    +0.000 C 
ATOM      7  N   UNL     1       5.868   6.060  14.731  0.00  0.00    +0.000 NA
ATOM      8  C   UNL     1       5.003   6.716  15.728  0.00  0.00    +0.000 C 
ATOM      9  C   UNL     1       5.532   6.715  17.171  0.00  0.00    +0.000 C 
ATOM     10  H   UNL     1       5.567   6.379  13.808  0.00  0.00    +0.000 HD
ENDROOT
BRANCH   2  11
ATOM     11  C   UNL     1       4.103   5.496  19.500  0.00  0.00    +0.000 C 
BRANCH  11  12
ATOM     12  C   UNL     1       2.930   4.553  19.524  0.00  0.00    +0.000 A 
ATOM     13  C   UNL     1       2.358   4.075  18.346  0.00  0.00    +0.000 A 
ATOM     14  C   UNL     1       1.240   3.248  18.428  0.00  0.00    +0.000 A 
ATOM     15  C   UNL     1       0.719   2.922  19.674  0.00  0.00    +0.000 A 
ATOM     16  C   UNL     1       1.342   3.438  20.796  0.00  0.00    +0.000 A 
ATOM     17  N   UNL     1       2.426   4.243  20.748  0.00  0.00    +0.000 NA
ENDBRANCH  11  12
ENDBRANCH   2  11
TORSDOF 2
ENDMDL
MODEL 5
REMARK VINA RESULT:      -6.5      1.951      5.861
REMARK  Name = 
REMARK  2 active torsions:
REMARK  status: ('A' for Active; 'I' for Inactive)
REMARK    1  A    between atoms: C_2  and  C_3
REMARK    2  A    between atoms: C_3  and  C_4
REMARK                            x       y       z     vdW  Elec       q    Type
REMARK                         _______ _______ _______ _____ _____    ______ ____
ROOT
ATOM      1  O   UNL     1       4.298   3.579  16.827  0.00  0.00    +0.000 OA
ATOM      2  C   UNL     1       4.239   4.054  17.967  0.00  0.00    +0.000 C 
ATOM      3  N   UNL     1       3.027   4.365  18.576  0.00  0.00    +0.000 N 
ATOM      4  C   UNL     1       1.781   4.013  17.900  0.00  0.00    +0.000 C 
ATOM      5  C   UNL     1       1.093   2.796  18.512  0.00  0.00    +0.000 C 
ATOM      6  C   UNL     1       0.811   2.845  20.014  0.00  0.00    +0.000 C 
ATOM      7  N   UNL     1       0.752   4.180  20.613  0.00  0.00    +0.000 NA
ATOM      8  C   UNL     1       2.104   4.679  20.919  0.00  0.00    +0.000 C 
ATOM      9  C   UNL     1       2.883   5.262  19.729  0.00  0.00    +0.000 C 
ATOM     10  H   UNL     1       0.247   4.103  21.498  0.00  0.00    +0.000 HD
ENDROOT
BRANCH   2  11
ATOM     11  C   UNL     1       5.521   4.232  18.761  0.00  0.00    +0.000 C 
BRANCH  11  12
ATOM     12  C   UNL     1       6.326   5.444  18.374  0.00  0.00    +0.000 A 
ATOM     13  C   UNL     1       7.512   5.768  19.031  0.00  0.00    +0.000 A 
ATOM     14  C   UNL     1       8.186   6.931  18.666  0.00  0.00    +0.000 A 
ATOM     15  C   UNL     1       7.664   7.740  17.665  0.00  0.00    +0.000 A 
ATOM     16  C   UNL     1       6.481   7.352  17.063  0.00  0.00    +0.000 A 
ATOM     17  N   UNL     1       5.804   6.230  17.396  0.00  0.00    +0.000 NA
ENDBRANCH  11  12
ENDBRANCH   2  11
TORSDOF 2
ENDMDL
MODEL 6
REMARK VINA RESULT:      -6.5      1.058      1.491
REMARK  Name = 
REMARK  2 active torsions:
REMARK  status: ('A' for Active; 'I' for Inactive)
REMARK    1  A    between atoms: C_2  and  C_3
REMARK    2  A    between atoms: C_3  and  C_4
REMARK                            x       y       z     vdW  Elec       q    Type
REMARK                         _______ _______ _______ _____ _____    ______ ____
ROOT
ATOM      1  O   UNL     1       2.762   5.915  17.957  0.00  0.00    +0.000 OA
ATOM      2  C   UNL     1       3.483   5.056  17.437  0.00  0.00    +0.000 C 
ATOM      3  N   UNL     1       4.578   5.390  16.645  0.00  0.00    +0.000 N 
ATOM      4  C   UNL     1       4.962   6.793  16.519  0.00  0.00    +0.000 C 
ATOM      5  C   UNL     1       6.199   7.150  17.337  0.00  0.00    +0.000 C 
ATOM      6  C   UNL     1       7.450   6.301  17.102  0.00  0.00    +0.000 C 
ATOM      7  N   UNL     1       7.516   5.597  15.820  0.00  0.00    +0.000 NA
ATOM      8  C   UNL     1       6.753   4.337  15.872  0.00  0.00    +0.000 C 
ATOM      9  C   UNL     1       5.232   4.474  15.703  0.00  0.00    +0.000 C 
ATOM     10  H   UNL     1       8.494   5.355  15.647  0.00  0.00    +0.000 HD
ENDROOT
BRANCH   2  11
ATOM     11  C   UNL     1       3.215   3.591  17.730  0.00  0.00    +0.000 C 
BRANCH  11  12
ATOM     12  C   UNL     1       2.610   3.330  19.084  0.00  0.00    +0.000 A 
ATOM     13  C   UNL     1       3.397   2.952  20.170  0.00  0.00    +0.000 A 
ATOM     14  C   UNL     1       2.776   2.671  21.385  0.00  0.00    +0.000 A 
ATOM     15  C   UNL     1       1.394   2.770  21.487  0.00  0.00    +0.000 A 
ATOM     16  C   UNL     1       0.683   3.148  20.364  0.00  0.00    +0.000 A 
ATOM     17  N   UNL     1       1.257   3.426  19.171  0.00  0.00    +0.000 NA
ENDBRANCH  11  12
ENDBRANCH   2  11
TORSDOF 2
ENDMDL
MODEL 7
REMARK VINA RESULT:      -6.5      1.404      1.799
REMARK  Name = 
REMARK  2 active torsions:
REMARK  status: ('A' for Active; 'I' for Inactive)
REMARK    1  A    between atoms: C_2  and  C_3
REMARK    2  A    between atoms: C_3  and  C_4
REMARK                            x       y       z     vdW  Elec       q    Type
REMARK                         _______ _______ _______ _____ _____    ______ ____
ROOT
ATOM      1  O   UNL     1       4.920   5.475  19.812  0.00  0.00    +0.000 OA
ATOM      2  C   UNL     1       4.532   5.770  18.675  0.00  0.00    +0.000 C 
ATOM      3  N   UNL     1       5.420   6.003  17.629  0.00  0.00    +0.000 N 
ATOM      4  C   UNL     1       6.846   5.778  17.843  0.00  0.00    +0.000 C 
ATOM      5  C   UNL     1       7.353   4.493  17.196  0.00  0.00    +0.000 C 
ATOM      6  C   UNL     1       7.071   4.315  15.703  0.00  0.00    +0.000 C 
ATOM      7  N   UNL     1       6.817   5.543  14.947  0.00  0.00    +0.000 NA
ATOM      8  C   UNL     1       5.413   5.968  15.092  0.00  0.00    +0.000 C 
ATOM      9  C   UNL     1       5.076   6.714  16.392  0.00  0.00    +0.000 C 
ATOM     10  H   UNL     1       6.974   5.339  13.958  0.00  0.00    +0.000 HD
ENDROOT
BRANCH   2  11
ATOM     11  C   UNL     1       3.042   5.804  18.390  0.00  0.00    +0.000 C 
BRANCH  11  12
ATOM     12  C   UNL     1       2.311   4.541  18.757  0.00  0.00    +0.000 A 
ATOM     13  C   UNL     1       1.563   4.449  19.930  0.00  0.00    +0.000 A 
ATOM     14  C   UNL     1       0.952   3.237  20.245  0.00  0.00    +0.000 A 
ATOM     15  C   UNL     1       1.103   2.151  19.391  0.00  0.00    +0.000 A 
ATOM     16  C   UNL     1       1.863   2.322  18.249  0.00  0.00    +0.000 A 
ATOM     17  N   UNL     1       2.468   3.484  17.917  0.00  0.00    +0.000 NA
ENDBRANCH  11  12
ENDBRANCH   2  11
TORSDOF 2
ENDMDL
MODEL 8
REMARK VINA RESULT:      -6.5      0.718      1.207
REMARK  Name = 
REMARK  2 active torsions:
REMARK  status: ('A' for Active; 'I' for Inactive)
REMARK    1  A    between atoms: C_2  and  C_3
REMARK    2  A    between atoms: C_3  and  C_4
REMARK                            x       y       z     vdW  Elec       q    Type
REMARK                         _______ _______ _______ _____ _____    ______ ____
ROOT
ATOM      1  O   UNL     1       3.502   6.850  18.566  0.00  0.00    +0.000 OA
ATOM      2  C   UNL     1       3.711   5.887  17.820  0.00  0.00    +0.000 C 
ATOM      3  N   UNL     1       4.899   5.745  17.110  0.00  0.00    +0.000 N 
ATOM      4  C   UNL     1       5.983   6.697  17.341  0.00  0.00    +0.000 C 
ATOM      5  C   UNL     1       7.114   6.120  18.185  0.00  0.00    +0.000 C 
ATOM      6  C   UNL     1       7.739   4.810  17.701  0.00  0.00    +0.000 C 
ATOM      7  N   UNL     1       7.570   4.506  16.279  0.00  0.00    +0.000 NA
ATOM      8  C   UNL     1       6.253   3.894  16.025  0.00  0.00    +0.000 C 
ATOM      9  C   UNL     1       5.070   4.872  15.943  0.00  0.00    +0.000 C 
ATOM     10  H   UNL     1       8.281   3.820  16.019  0.00  0.00    +0.000 HD
ENDROOT
BRANCH   2  11
ATOM     11  C   UNL     1       2.672   4.784  17.731  0.00  0.00    +0.000 C 
BRANCH  11  12
ATOM     12  C   UNL     1       2.438   4.046  19.022  0.00  0.00    +0.000 A 
ATOM     13  C   UNL     1       3.443   3.284  19.615  0.00  0.00    +0.000 A 
ATOM     14  C   UNL     1       3.152   2.580  20.782  0.00  0.00    +0.000 A 
ATOM     15  C   UNL     1       1.875   2.649  21.324  0.00  0.00    +0.000 A 
ATOM     16  C   UNL     1       0.933   3.425  20.675  0.00  0.00    +0.000 A 
ATOM     17  N   UNL     1       1.184   4.118  19.542  0.00  0.00    +0.000 NA
ENDBRANCH  11  12
ENDBRANCH   2  11
TORSDOF 2
ENDMDL
MODEL 9
REMARK VINA RESULT:      -6.5      1.735      2.415
REMARK  Name = 
REMARK  2 active torsions:
REMARK  status: ('A' for Active; 'I' for Inactive)
REMARK    1  A    between atoms: C_2  and  C_3
REMARK    2  A    between atoms: C_3  and  C_4
REMARK                            x       y       z     vdW  Elec       q    Type
REMARK                         _______ _______ _______ _____ _____    ______ ____
ROOT
ATOM      1  O   UNL     1       6.349   4.816  19.978  0.00  0.00    +0.000 OA
ATOM      2  C   UNL     1       5.603   5.402  19.185  0.00  0.00    +0.000 C 
ATOM      3  N   UNL     1       6.038   5.815  17.929  0.00  0.00    +0.000 N 
ATOM      4  C   UNL     1       7.377   5.441  17.482  0.00  0.00    +0.000 C 
ATOM      5  C   UNL     1       7.370   4.315  16.452  0.00  0.00    +0.000 C 
ATOM      6  C   UNL     1       6.504   4.522  15.208  0.00  0.00    +0.000 C 
ATOM      7  N   UNL     1       6.182   5.911  14.874  0.00  0.00    +0.000 NA
ATOM      8  C   UNL     1       5.038   6.391  15.669  0.00  0.00    +0.000 C 
ATOM      9  C   UNL     1       5.362   6.826  17.107  0.00  0.00    +0.000 C 
ATOM     10  H   UNL     1       5.906   5.940  13.891  0.00  0.00    +0.000 HD
ENDROOT
BRANCH   2  11
ATOM     11  C   UNL     1       4.147   5.614  19.559  0.00  0.00    +0.000 C 
BRANCH  11  12
ATOM     12  C   UNL     1       3.226   4.509  19.117  0.00  0.00    +0.000 A 
ATOM     13  C   UNL     1       2.235   4.728  18.161  0.00  0.00    +0.000 A 
ATOM     14  C   UNL     1       1.377   3.682  17.831  0.00  0.00    +0.000 A 
ATOM     15  C   UNL     1       1.523   2.451  18.458  0.00  0.00    +0.000 A 
ATOM     16  C   UNL     1       2.529   2.314  19.397  0.00  0.00    +0.000 A 
ATOM     17  N   UNL     1       3.376   3.310  19.740  0.00  0.00    +0.000 NA
ENDBRANCH  11  12
ENDBRANCH   2  11
TORSDOF 2
ENDMDL
