MODEL 1
REMARK VINA RESULT:      -9.4      0.000      0.000
REMARK  Name = 
REMARK  7 active torsions:
REMARK  status: ('A' for Active; 'I' for Inactive)
REMARK    1  A    between atoms: C_2  and  C_3
REMARK    2  A    between atoms: C_7  and  O_9
REMARK    3  A    between atoms: O_9  and  C_10
REMARK    4  A    between atoms: C_10  and  C_11
REMARK    5  A    between atoms: C_18  and  N_19
REMARK    6  A    between atoms: C_21  and  C_22
REMARK    7  A    between atoms: N_26  and  C_27
REMARK                            x       y       z     vdW  Elec       q    Type
REMARK                         _______ _______ _______ _____ _____    ______ ____
ROOT
ATOM      1  N   UNL     1       4.337   4.354  17.998  0.00  0.00    +0.000 N 
ATOM      2  C   UNL     1       5.073   4.971  18.956  0.00  0.00    +0.000 A 
ATOM      3  C   UNL     1       6.357   5.116  18.483  0.00  0.00    +0.000 A 
ATOM      4  C   UNL     1       6.274   4.614  17.149  0.00  0.00    +0.000 A 
ATOM      5  N   UNL     1       7.310   4.526  16.277  0.00  0.00    +0.000 N 
ATOM      6  N   UNL     1       5.045   4.146  16.880  0.00  0.00    +0.000 NA
ATOM      7  H   UNL     1       8.262   4.530  16.618  0.00  0.00    +0.000 HD
ENDROOT
BRANCH   1  15
ATOM      8  C   UNL     1       2.602   3.217  19.409  0.00  0.00    +0.000 C 
ATOM      9  C   UNL     1       2.578   4.205  20.591  0.00  0.00    +0.000 C 
ATOM     10  C   UNL     1       1.761   5.479  20.301  0.00  0.00    +0.000 C 
ATOM     11  N   UNL     1       2.033   6.036  18.972  0.00  0.00    +0.000 N 
ATOM     12  C   UNL     1       2.436   7.342  18.730  0.00  0.00    +0.000 C 
ATOM     13  O   UNL     1       2.956   7.703  17.679  0.00  0.00    +0.000 OA
ATOM     14  C   UNL     1       1.980   5.104  17.854  0.00  0.00    +0.000 C 
ATOM     15  C   UNL     1       2.934   3.924  18.071  0.00  0.00    +0.000 C 
BRANCH   8  17
ATOM     16  N   UNL     1       0.255   2.006  19.226  0.00  0.00    +0.000 NA
ATOM     17  C   UNL     1       1.307   2.526  19.319  0.00  0.00    +0.000 C 
ENDBRANCH   8  17
BRANCH  12  18
ATOM     18  O   UNL     1       2.185   8.181  19.772  0.00  0.00    +0.000 OA
BRANCH  18  19
ATOM     19  C   UNL     1       1.228   9.213  19.469  0.00  0.00    +0.000 C 
BRANCH  19  20
ATOM     20  C   UNL     1       0.544   9.682  20.730  0.00  0.00    +0.000 A 
ATOM     21  C   UNL     1       0.623   8.928  21.907  0.00  0.00    +0.000 A 
ATOM     22  C   UNL     1      -0.062   9.340  23.053  0.00  0.00    +0.000 A 
ATOM     23  C   UNL     1      -0.813  10.514  23.037  0.00  0.00    +0.000 A 
ATOM     24  C   UNL     1      -0.862  11.291  21.883  0.00  0.00    +0.000 A 
ATOM     25  C   UNL     1      -0.181  10.882  20.741  0.00  0.00    +0.000 A 
ENDBRANCH  19  20
ENDBRANCH  18  19
ENDBRANCH  12  18
ENDBRANCH   1  15
BRANCH   5  26
ATOM     26  C   UNL     1       7.258   4.624  14.872  0.00  0.00    +0.000 A 
ATOM     27  C   UNL     1       6.395   3.800  14.139  0.00  0.00    +0.000 A 
ATOM     28  C   UNL     1       6.362   3.868  12.752  0.00  0.00    +0.000 A 
ATOM     29  C   UNL     1       7.212   4.746  12.096  0.00  0.00    +0.000 A 
ATOM     30  F   UNL     1       7.190   4.797  10.759  0.00  0.00    +0.000 F 
ATOM     31  C   UNL     1       8.081   5.574  12.800  0.00  0.00    +0.000 A 
ATOM     32  C   UNL     1       8.102   5.517  14.193  0.00  0.00    +0.000 A 
ENDBRANCH   5  26
BRANCH   3  33
ATOM     33  C   UNL     1       7.416   5.723  19.265  0.00  0.00    +0.000 C 
ATOM     34  N   UNL     1       8.062   6.810  18.725  0.00  0.00    +0.000 N 
ATOM     35  O   UNL     1       7.776   5.325  20.368  0.00  0.00    +0.000 OA
ATOM     36  H   UNL     1       7.712   7.360  17.947  0.00  0.00    +0.000 HD
ATOM     37  H   UNL     1       8.741   7.247  19.335  0.00  0.00    +0.000 HD
ENDBRANCH   3  33
TORSDOF 7
ENDMDL
MODEL 2
REMARK VINA RESULT:      -9.2      0.193      1.165
REMARK  Name = 
REMARK  7 active torsions:
REMARK  status: ('A' for Active; 'I' for Inactive)
REMARK    1  A    between atoms: C_2  and  C_3
REMARK    2  A    between atoms: C_7  and  O_9
REMARK    3  A    between atoms: O_9  and  C_10
REMARK    4  A    between atoms: C_10  and  C_11
REMARK    5  A    between atoms: C_18  and  N_19
REMARK    6  A    between atoms: C_21  and  C_22
REMARK    7  A    between atoms: N_26  and  C_27
REMARK                            x       y       z     vdW  Elec       q    Type
REMARK                         _______ _______ _______ _____ _____    ______ ____
ROOT
ATOM      1  N   UNL     1       4.354   4.390  18.008  0.00  0.00    +0.000 N 
ATOM      2  C   UNL     1       5.089   5.013  18.962  0.00  0.00    +0.000 A 
ATOM      3  C   UNL     1       6.379   5.133  18.499  0.00  0.00    +0.000 A 
ATOM      4  C   UNL     1       6.302   4.609  17.174  0.00  0.00    +0.000 A 
ATOM      5  N   UNL     1       7.344   4.492  16.313  0.00  0.00    +0.000 N 
ATOM      6  N   UNL     1       5.069   4.152  16.901  0.00  0.00    +0.000 NA
ATOM      7  H   UNL     1       8.294   4.489  16.663  0.00  0.00    +0.000 HD
ENDROOT
BRANCH   1  15
ATOM      8  C   UNL     1       2.588   3.313  19.427  0.00  0.00    +0.000 C 
ATOM      9  C   UNL     1       2.562   4.332  20.583  0.00  0.00    +0.000 C 
ATOM     10  C   UNL     1       1.765   5.609  20.249  0.00  0.00    +0.000 C 
ATOM     11  N   UNL     1       2.061   6.126  18.909  0.00  0.00    +0.000 N 
ATOM     12  C   UNL     1       2.483   7.420  18.637  0.00  0.00    +0.000 C 
ATOM     13  O   UNL     1       3.020   7.746  17.583  0.00  0.00    +0.000 OA
ATOM     14  C   UNL     1       2.009   5.165  17.816  0.00  0.00    +0.000 C 
ATOM     15  C   UNL     1       2.945   3.980  18.076  0.00  0.00    +0.000 C 
BRANCH   8  17
ATOM     16  N   UNL     1       0.239   2.106  19.231  0.00  0.00    +0.000 NA
ATOM     17  C   UNL     1       1.285   2.636  19.341  0.00  0.00    +0.000 C 
ENDBRANCH   8  17
BRANCH  12  18
ATOM     18  O   UNL     1       2.231   8.290  19.653  0.00  0.00    +0.000 OA
BRANCH  18  19
ATOM     19  C   UNL     1       1.227   9.274  19.339  0.00  0.00    +0.000 C 
BRANCH  19  20
ATOM     20  C   UNL     1       0.497   9.697  20.590  0.00  0.00    +0.000 A 
ATOM     21  C   UNL     1       0.155  11.039  20.798  0.00  0.00    +0.000 A 
ATOM     22  C   UNL     1      -0.469  11.430  21.985  0.00  0.00    +0.000 A 
ATOM     23  C   UNL     1      -0.771  10.483  22.963  0.00  0.00    +0.000 A 
ATOM     24  C   UNL     1      -0.473   9.141  22.745  0.00  0.00    +0.000 A 
ATOM     25  C   UNL     1       0.149   8.750  21.563  0.00  0.00    +0.000 A 
ENDBRANCH  19  20
ENDBRANCH  18  19
ENDBRANCH  12  18
ENDBRANCH   1  15
BRANCH   5  26
ATOM     26  C   UNL     1       7.307   4.565  14.906  0.00  0.00    +0.000 A 
ATOM     27  C   UNL     1       8.139   5.461  14.224  0.00  0.00    +0.000 A 
ATOM     28  C   UNL     1       8.085   5.563  12.840  0.00  0.00    +0.000 A 
ATOM     29  C   UNL     1       7.178   4.783  12.139  0.00  0.00    +0.000 A 
ATOM     30  F   UNL     1       7.115   4.895  10.807  0.00  0.00    +0.000 F 
ATOM     31  C   UNL     1       6.337   3.887  12.791  0.00  0.00    +0.000 A 
ATOM     32  C   UNL     1       6.404   3.774  14.180  0.00  0.00    +0.000 A 
ENDBRANCH   5  26
BRANCH   3  33
ATOM     33  C   UNL     1       7.438   5.740  19.281  0.00  0.00    +0.000 C 
ATOM     34  N   UNL     1       8.079   6.831  18.743  0.00  0.00    +0.000 N 
ATOM     35  O   UNL     1       7.804   5.338  20.380  0.00  0.00    +0.000 OA
ATOM     36  H   UNL     1       7.725   7.384  17.969  0.00  0.00    +0.000 HD
ATOM     37  H   UNL     1       8.759   7.269  19.352  0.00  0.00    +0.000 HD
ENDBRANCH   3  33
TORSDOF 7
ENDMDL
MODEL 3
REMARK VINA RESULT:      -8.9      3.599      7.269
REMARK  Name = 
REMARK  7 active torsions:
REMARK  status: ('A' for Active; 'I' for Inactive)
REMARK    1  A    between atoms: C_2  and  C_3
REMARK    2  A    between atoms: C_7  and  O_9
REMARK    3  A    between atoms: O_9  and  C_10
REMARK    4  A    between atoms: C_10  and  C_11
REMARK    5  A    between atoms: C_18  and  N_19
REMARK    6  A    between atoms: C_21  and  C_22
REMARK    7  A    between atoms: N_26  and  C_27
REMARK                            x       y       z     vdW  Elec       q    Type
REMARK                         _______ _______ _______ _____ _____    ______ ____
ROOT
ATOM      1  N   UNL     1       4.779   4.029  17.851  0.00  0.00    +0.000 N 
ATOM      2  C   UNL     1       4.325   3.043  18.665  0.00  0.00    +0.000 A 
ATOM      3  C   UNL     1       3.594   3.623  19.676  0.00  0.00    +0.000 A 
ATOM      4  C   UNL     1       3.593   5.007  19.327  0.00  0.00    +0.000 A 
ATOM      5  N   UNL     1       3.010   5.999  20.046  0.00  0.00    +0.000 N 
ATOM      6  N   UNL     1       4.327   5.234  18.225  0.00  0.00    +0.000 NA
ATOM      7  H   UNL     1       2.800   5.859  21.026  0.00  0.00    +0.000 HD
ENDROOT
BRANCH   1  15
ATOM      8  C   UNL     1       5.074   4.595  15.425  0.00  0.00    +0.000 C 
ATOM      9  C   UNL     1       5.106   6.131  15.546  0.00  0.00    +0.000 C 
ATOM     10  C   UNL     1       6.469   6.674  16.021  0.00  0.00    +0.000 C 
ATOM     11  N   UNL     1       7.027   5.905  17.138  0.00  0.00    +0.000 N 
ATOM     12  C   UNL     1       7.419   6.449  18.353  0.00  0.00    +0.000 C 
ATOM     13  O   UNL     1       7.581   5.780  19.369  0.00  0.00    +0.000 OA
ATOM     14  C   UNL     1       7.057   4.458  16.978  0.00  0.00    +0.000 C 
ATOM     15  C   UNL     1       5.659   3.904  16.682  0.00  0.00    +0.000 C 
BRANCH   8  17
ATOM     16  N   UNL     1       6.431   3.847  13.279  0.00  0.00    +0.000 NA
ATOM     17  C   UNL     1       5.808   4.182  14.220  0.00  0.00    +0.000 C 
ENDBRANCH   8  17
BRANCH  12  18
ATOM     18  O   UNL     1       7.614   7.795  18.300  0.00  0.00    +0.000 OA
BRANCH  18  19
ATOM     19  C   UNL     1       8.797   8.237  18.992  0.00  0.00    +0.000 C 
BRANCH  19  20
ATOM     20  C   UNL     1       8.945   9.734  18.875  0.00  0.00    +0.000 A 
ATOM     21  C   UNL     1       9.611  10.466  19.866  0.00  0.00    +0.000 A 
ATOM     22  C   UNL     1       9.692  11.858  19.778  0.00  0.00    +0.000 A 
ATOM     23  C   UNL     1       9.126  12.525  18.693  0.00  0.00    +0.000 A 
ATOM     24  C   UNL     1       8.499  11.802  17.683  0.00  0.00    +0.000 A 
ATOM     25  C   UNL     1       8.417  10.416  17.769  0.00  0.00    +0.000 A 
ENDBRANCH  19  20
ENDBRANCH  18  19
ENDBRANCH  12  18
ENDBRANCH   1  15
BRANCH   5  26
ATOM     26  C   UNL     1       2.450   7.197  19.559  0.00  0.00    +0.000 A 
ATOM     27  C   UNL     1       1.674   8.006  20.398  0.00  0.00    +0.000 A 
ATOM     28  C   UNL     1       1.092   9.171  19.916  0.00  0.00    +0.000 A 
ATOM     29  C   UNL     1       1.268   9.515  18.584  0.00  0.00    +0.000 A 
ATOM     30  F   UNL     1       0.693  10.630  18.118  0.00  0.00    +0.000 F 
ATOM     31  C   UNL     1       2.032   8.729  17.728  0.00  0.00    +0.000 A 
ATOM     32  C   UNL     1       2.629   7.567  18.217  0.00  0.00    +0.000 A 
ENDBRANCH   5  26
BRANCH   3  33
ATOM     33  C   UNL     1       2.976   2.853  20.737  0.00  0.00    +0.000 C 
ATOM     34  N   UNL     1       1.603   2.810  20.775  0.00  0.00    +0.000 N 
ATOM     35  O   UNL     1       3.598   2.249  21.604  0.00  0.00    +0.000 OA
ATOM     36  H   UNL     1       0.996   3.069  20.003  0.00  0.00    +0.000 HD
ATOM     37  H   UNL     1       1.215   2.203  21.485  0.00  0.00    +0.000 HD
ENDBRANCH   3  33
TORSDOF 7
ENDMDL
MODEL 4
REMARK VINA RESULT:      -8.8      3.603      7.282
REMARK  Name = 
REMARK  7 active torsions:
REMARK  status: ('A' for Active; 'I' for Inactive)
REMARK    1  A    between atoms: C_2  and  C_3
REMARK    2  A    between atoms: C_7  and  O_9
REMARK    3  A    between atoms: O_9  and  C_10
REMARK    4  A    between atoms: C_10  and  C_11
REMARK    5  A    between atoms: C_18  and  N_19
REMARK    6  A    between atoms: C_21  and  C_22
REMARK    7  A    between atoms: N_26  and  C_27
REMARK                            x       y       z     vdW  Elec       q    Type
REMARK                         _______ _______ _______ _____ _____    ______ ____
ROOT
ATOM      1  N   UNL     1       4.755   4.007  17.892  0.00  0.00    +0.000 N 
ATOM      2  C   UNL     1       4.295   3.013  18.691  0.00  0.00    +0.000 A 
ATOM      3  C   UNL     1       3.544   3.580  19.694  0.00  0.00    +0.000 A 
ATOM      4  C   UNL     1       3.539   4.967  19.355  0.00  0.00    +0.000 A 
ATOM      5  N   UNL     1       2.938   5.949  20.073  0.00  0.00    +0.000 N 
ATOM      6  N   UNL     1       4.289   5.206  18.267  0.00  0.00    +0.000 NA
ATOM      7  H   UNL     1       2.714   5.801  21.048  0.00  0.00    +0.000 HD
ENDROOT
BRANCH   1  15
ATOM      8  C   UNL     1       5.072   4.571  15.468  0.00  0.00    +0.000 C 
ATOM      9  C   UNL     1       5.069   6.108  15.582  0.00  0.00    +0.000 C 
ATOM     10  C   UNL     1       6.413   6.682  16.074  0.00  0.00    +0.000 C 
ATOM     11  N   UNL     1       6.971   5.929  17.202  0.00  0.00    +0.000 N 
ATOM     12  C   UNL     1       7.335   6.486  18.421  0.00  0.00    +0.000 C 
ATOM     13  O   UNL     1       7.496   5.825  19.442  0.00  0.00    +0.000 OA
ATOM     14  C   UNL     1       7.035   4.482  17.049  0.00  0.00    +0.000 C 
ATOM     15  C   UNL     1       5.654   3.897  16.735  0.00  0.00    +0.000 C 
BRANCH   8  17
ATOM     16  N   UNL     1       6.404   3.842  13.299  0.00  0.00    +0.000 NA
ATOM     17  C   UNL     1       5.832   4.169  14.275  0.00  0.00    +0.000 C 
ENDBRANCH   8  17
BRANCH  12  18
ATOM     18  O   UNL     1       7.502   7.835  18.364  0.00  0.00    +0.000 OA
BRANCH  18  19
ATOM     19  C   UNL     1       8.840   8.268  18.675  0.00  0.00    +0.000 C 
BRANCH  19  20
ATOM     20  C   UNL     1       8.895   9.773  18.775  0.00  0.00    +0.000 A 
ATOM     21  C   UNL     1       8.512  10.575  17.693  0.00  0.00    +0.000 A 
ATOM     22  C   UNL     1       8.622  11.965  17.775  0.00  0.00    +0.000 A 
ATOM     23  C   UNL     1       9.097  12.563  18.941  0.00  0.00    +0.000 A 
ATOM     24  C   UNL     1       9.439  11.775  20.035  0.00  0.00    +0.000 A 
ATOM     25  C   UNL     1       9.330  10.390  19.956  0.00  0.00    +0.000 A 
ENDBRANCH  19  20
ENDBRANCH  18  19
ENDBRANCH  12  18
ENDBRANCH   1  15
BRANCH   5  26
ATOM     26  C   UNL     1       2.378   7.147  19.585  0.00  0.00    +0.000 A 
ATOM     27  C   UNL     1       2.599   7.541  18.260  0.00  0.00    +0.000 A 
ATOM     28  C   UNL     1       2.077   8.736  17.781  0.00  0.00    +0.000 A 
ATOM     29  C   UNL     1       1.353   9.551  18.639  0.00  0.00    +0.000 A 
ATOM     30  F   UNL     1       0.866  10.709  18.180  0.00  0.00    +0.000 F 
ATOM     31  C   UNL     1       1.121   9.185  19.961  0.00  0.00    +0.000 A 
ATOM     32  C   UNL     1       1.631   7.977  20.436  0.00  0.00    +0.000 A 
ENDBRANCH   5  26
BRANCH   3  33
ATOM     33  C   UNL     1       2.916   2.798  20.740  0.00  0.00    +0.000 C 
ATOM     34  N   UNL     1       1.546   2.681  20.710  0.00  0.00    +0.000 N 
ATOM     35  O   UNL     1       3.524   2.247  21.651  0.00  0.00    +0.000 OA
ATOM     36  H   UNL     1       0.967   2.891  19.903  0.00  0.00    +0.000 HD
ATOM     37  H   UNL     1       1.156   2.067  21.414  0.00  0.00    +0.000 HD
ENDBRANCH   3  33
TORSDOF 7
ENDMDL
MODEL 5
REMARK VINA RESULT:      -8.7      1.172      1.492
REMARK  Name = 
REMARK  7 active torsions:
REMARK  status: ('A' for Active; 'I' for Inactive)
REMARK    1  A    between atoms: C_2  and  C_3
REMARK    2  A    between atoms: C_7  and  O_9
REMARK    3  A    between atoms: O_9  and  C_10
REMARK    4  A    between atoms: C_10  and  C_11
REMARK    5  A    between atoms: C_18  and  N_19
REMARK    6  A    between atoms: C_21  and  C_22
REMARK    7  A    between atoms: N_26  and  C_27
REMARK                            x       y       z     vdW  Elec       q    Type
REMARK                         _______ _______ _______ _____ _____    ______ ____
ROOT
ATOM      1  N   UNL     1       4.611   4.422  18.144  0.00  0.00    +0.000 N 
ATOM      2  C   UNL     1       5.391   5.100  19.023  0.00  0.00    +0.000 A 
ATOM      3  C   UNL     1       6.637   5.254  18.460  0.00  0.00    +0.000 A 
ATOM      4  C   UNL     1       6.482   4.688  17.159  0.00  0.00    +0.000 A 
ATOM      5  N   UNL     1       7.460   4.584  16.225  0.00  0.00    +0.000 N 
ATOM      6  N   UNL     1       5.251   4.178  16.992  0.00  0.00    +0.000 NA
ATOM      7  H   UNL     1       8.432   4.627  16.501  0.00  0.00    +0.000 HD
ENDROOT
BRANCH   1  15
ATOM      8  C   UNL     1       2.915   3.610  19.805  0.00  0.00    +0.000 C 
ATOM      9  C   UNL     1       2.837   4.867  20.693  0.00  0.00    +0.000 C 
ATOM     10  C   UNL     1       1.966   5.985  20.085  0.00  0.00    +0.000 C 
ATOM     11  N   UNL     1       2.226   6.191  18.657  0.00  0.00    +0.000 N 
ATOM     12  C   UNL     1       2.572   7.408  18.085  0.00  0.00    +0.000 C 
ATOM     13  O   UNL     1       3.086   7.509  16.975  0.00  0.00    +0.000 OA
ATOM     14  C   UNL     1       2.225   5.001  17.818  0.00  0.00    +0.000 C 
ATOM     15  C   UNL     1       3.228   3.962  18.330  0.00  0.00    +0.000 C 
BRANCH   8  17
ATOM     16  N   UNL     1       0.651   2.245  19.940  0.00  0.00    +0.000 NA
ATOM     17  C   UNL     1       1.653   2.861  19.901  0.00  0.00    +0.000 C 
ENDBRANCH   8  17
BRANCH  12  18
ATOM     18  O   UNL     1       2.275   8.475  18.875  0.00  0.00    +0.000 OA
BRANCH  18  19
ATOM     19  C   UNL     1       1.849   9.640  18.142  0.00  0.00    +0.000 C 
BRANCH  19  20
ATOM     20  C   UNL     1       0.671  10.288  18.826  0.00  0.00    +0.000 A 
ATOM     21  C   UNL     1      -0.593  10.289  18.222  0.00  0.00    +0.000 A 
ATOM     22  C   UNL     1      -1.665  10.942  18.836  0.00  0.00    +0.000 A 
ATOM     23  C   UNL     1      -1.487  11.582  20.061  0.00  0.00    +0.000 A 
ATOM     24  C   UNL     1      -0.245  11.551  20.687  0.00  0.00    +0.000 A 
ATOM     25  C   UNL     1       0.824  10.900  20.078  0.00  0.00    +0.000 A 
ENDBRANCH  19  20
ENDBRANCH  18  19
ENDBRANCH  12  18
ENDBRANCH   1  15
BRANCH   5  26
ATOM     26  C   UNL     1       7.314   4.615  14.823  0.00  0.00    +0.000 A 
ATOM     27  C   UNL     1       6.405   3.759  14.190  0.00  0.00    +0.000 A 
ATOM     28  C   UNL     1       6.279   3.760  12.807  0.00  0.00    +0.000 A 
ATOM     29  C   UNL     1       7.083   4.603  12.054  0.00  0.00    +0.000 A 
ATOM     30  F   UNL     1       6.972   4.591  10.721  0.00  0.00    +0.000 F 
ATOM     31  C   UNL     1       7.997   5.461  12.658  0.00  0.00    +0.000 A 
ATOM     32  C   UNL     1       8.111   5.471  14.047  0.00  0.00    +0.000 A 
ENDBRANCH   5  26
BRANCH   3  33
ATOM     33  C   UNL     1       7.727   5.922  19.142  0.00  0.00    +0.000 C 
ATOM     34  N   UNL     1       8.212   5.340  20.290  0.00  0.00    +0.000 N 
ATOM     35  O   UNL     1       8.235   6.973  18.768  0.00  0.00    +0.000 OA
ATOM     36  H   UNL     1       8.036   4.379  20.567  0.00  0.00    +0.000 HD
ATOM     37  H   UNL     1       9.020   5.798  20.692  0.00  0.00    +0.000 HD
ENDBRANCH   3  33
TORSDOF 7
ENDMDL
MODEL 6
REMARK VINA RESULT:      -8.4      0.483      1.113
REMARK  Name = 
REMARK  7 active torsions:
REMARK  status: ('A' for Active; 'I' for Inactive)
REMARK    1  A    between atoms: C_2  and  C_3
REMARK    2  A    between atoms: C_7  and  O_9
REMARK    3  A    between atoms: O_9  and  C_10
REMARK    4  A    between atoms: C_10  and  C_11
REMARK    5  A    between atoms: C_18  and  N_19
REMARK    6  A    between atoms: C_21  and  C_22
REMARK    7  A    between atoms: N_26  and  C_27
REMARK                            x       y       z     vdW  Elec       q    Type
REMARK                         _______ _______ _______ _____ _____    ______ ____
ROOT
ATOM      1  N   UNL     1       4.256   4.371  17.820  0.00  0.00    +0.000 N 
ATOM      2  C   UNL     1       4.969   5.001  18.786  0.00  0.00    +0.000 A 
ATOM      3  C   UNL     1       6.267   5.128  18.348  0.00  0.00    +0.000 A 
ATOM      4  C   UNL     1       6.219   4.600  17.023  0.00  0.00    +0.000 A 
ATOM      5  N   UNL     1       7.278   4.488  16.182  0.00  0.00    +0.000 N 
ATOM      6  N   UNL     1       4.994   4.135  16.727  0.00  0.00    +0.000 NA
ATOM      7  H   UNL     1       8.220   4.492  16.550  0.00  0.00    +0.000 HD
ENDROOT
BRANCH   1  15
ATOM      8  C   UNL     1       2.561   2.962  19.018  0.00  0.00    +0.000 C 
ATOM      9  C   UNL     1       2.612   3.653  20.394  0.00  0.00    +0.000 C 
ATOM     10  C   UNL     1       1.812   4.970  20.442  0.00  0.00    +0.000 C 
ATOM     11  N   UNL     1       2.037   5.812  19.263  0.00  0.00    +0.000 N 
ATOM     12  C   UNL     1       2.457   7.135  19.305  0.00  0.00    +0.000 C 
ATOM     13  O   UNL     1       2.938   7.720  18.340  0.00  0.00    +0.000 OA
ATOM     14  C   UNL     1       1.913   5.161  17.966  0.00  0.00    +0.000 C 
ATOM     15  C   UNL     1       2.848   3.952  17.862  0.00  0.00    +0.000 C 
BRANCH   8  17
ATOM     16  N   UNL     1       0.188   1.843  18.662  0.00  0.00    +0.000 NA
ATOM     17  C   UNL     1       1.248   2.325  18.837  0.00  0.00    +0.000 C 
ENDBRANCH   8  17
BRANCH  12  18
ATOM     18  O   UNL     1       2.273   7.716  20.522  0.00  0.00    +0.000 OA
BRANCH  18  19
ATOM     19  C   UNL     1       0.906   7.695  20.974  0.00  0.00    +0.000 C 
BRANCH  19  20
ATOM     20  C   UNL     1       0.456   9.085  21.352  0.00  0.00    +0.000 A 
ATOM     21  C   UNL     1      -0.244   9.309  22.544  0.00  0.00    +0.000 A 
ATOM     22  C   UNL     1      -0.707  10.590  22.857  0.00  0.00    +0.000 A 
ATOM     23  C   UNL     1      -0.458  11.655  21.994  0.00  0.00    +0.000 A 
ATOM     24  C   UNL     1       0.274  11.449  20.829  0.00  0.00    +0.000 A 
ATOM     25  C   UNL     1       0.735  10.174  20.515  0.00  0.00    +0.000 A 
ENDBRANCH  19  20
ENDBRANCH  18  19
ENDBRANCH  12  18
ENDBRANCH   1  15
BRANCH   5  26
ATOM     26  C   UNL     1       7.266   4.558  14.774  0.00  0.00    +0.000 A 
ATOM     27  C   UNL     1       8.102   5.462  14.106  0.00  0.00    +0.000 A 
ATOM     28  C   UNL     1       8.073   5.560  12.722  0.00  0.00    +0.000 A 
ATOM     29  C   UNL     1       7.188   4.769  12.005  0.00  0.00    +0.000 A 
ATOM     30  F   UNL     1       7.150   4.877  10.672  0.00  0.00    +0.000 F 
ATOM     31  C   UNL     1       6.345   3.864  12.643  0.00  0.00    +0.000 A 
ATOM     32  C   UNL     1       6.386   3.755  14.033  0.00  0.00    +0.000 A 
ENDBRANCH   5  26
BRANCH   3  33
ATOM     33  C   UNL     1       7.307   5.743  19.148  0.00  0.00    +0.000 C 
ATOM     34  N   UNL     1       7.968   6.822  18.611  0.00  0.00    +0.000 N 
ATOM     35  O   UNL     1       7.640   5.358  20.263  0.00  0.00    +0.000 OA
ATOM     36  H   UNL     1       7.638   7.364  17.818  0.00  0.00    +0.000 HD
ATOM     37  H   UNL     1       8.633   7.267  19.231  0.00  0.00    +0.000 HD
ENDBRANCH   3  33
TORSDOF 7
ENDMDL
MODEL 7
REMARK VINA RESULT:      -8.4      0.829      1.229
REMARK  Name = 
REMARK  7 active torsions:
REMARK  status: ('A' for Active; 'I' for Inactive)
REMARK    1  A    between atoms: C_2  and  C_3
REMARK    2  A    between atoms: C_7  and  O_9
REMARK    3  A    between atoms: O_9  and  C_10
REMARK    4  A    between atoms: C_10  and  C_11
REMARK    5  A    between atoms: C_18  and  N_19
REMARK    6  A    between atoms: C_21  and  C_22
REMARK    7  A    between atoms: N_26  and  C_27
REMARK                            x       y       z     vdW  Elec       q    Type
REMARK                         _______ _______ _______ _____ _____    ______ ____
ROOT
ATOM      1  N   UNL     1       4.271   4.389  17.915  0.00  0.00    +0.000 N 
ATOM      2  C   UNL     1       5.004   5.012  18.870  0.00  0.00    +0.000 A 
ATOM      3  C   UNL     1       6.292   5.145  18.405  0.00  0.00    +0.000 A 
ATOM      4  C   UNL     1       6.216   4.628  17.077  0.00  0.00    +0.000 A 
ATOM      5  N   UNL     1       7.256   4.524  16.212  0.00  0.00    +0.000 N 
ATOM      6  N   UNL     1       4.985   4.163  16.804  0.00  0.00    +0.000 NA
ATOM      7  H   UNL     1       8.206   4.526  16.560  0.00  0.00    +0.000 HD
ENDROOT
BRANCH   1  15
ATOM      8  C   UNL     1       2.576   3.075  19.216  0.00  0.00    +0.000 C 
ATOM      9  C   UNL     1       2.616   3.878  20.531  0.00  0.00    +0.000 C 
ATOM     10  C   UNL     1       1.809   5.190  20.465  0.00  0.00    +0.000 C 
ATOM     11  N   UNL     1       2.037   5.933  19.222  0.00  0.00    +0.000 N 
ATOM     12  C   UNL     1       2.451   7.256  19.157  0.00  0.00    +0.000 C 
ATOM     13  O   UNL     1       2.934   7.762  18.149  0.00  0.00    +0.000 OA
ATOM     14  C   UNL     1       1.923   5.176  17.983  0.00  0.00    +0.000 C 
ATOM     15  C   UNL     1       2.865   3.967  17.984  0.00  0.00    +0.000 C 
BRANCH   8  17
ATOM     16  N   UNL     1       0.231   1.864  19.003  0.00  0.00    +0.000 NA
ATOM     17  C   UNL     1       1.267   2.418  19.081  0.00  0.00    +0.000 C 
ENDBRANCH   8  17
BRANCH  12  18
ATOM     18  O   UNL     1       2.257   7.936  20.320  0.00  0.00    +0.000 OA
BRANCH  18  19
ATOM     19  C   UNL     1       0.880   8.279  20.569  0.00  0.00    +0.000 C 
BRANCH  19  20
ATOM     20  C   UNL     1       0.630   9.727  20.227  0.00  0.00    +0.000 A 
ATOM     21  C   UNL     1       0.900  10.738  21.158  0.00  0.00    +0.000 A 
ATOM     22  C   UNL     1       0.610  12.070  20.852  0.00  0.00    +0.000 A 
ATOM     23  C   UNL     1       0.067  12.403  19.613  0.00  0.00    +0.000 A 
ATOM     24  C   UNL     1      -0.164  11.409  18.667  0.00  0.00    +0.000 A 
ATOM     25  C   UNL     1       0.124  10.082  18.968  0.00  0.00    +0.000 A 
ENDBRANCH  19  20
ENDBRANCH  18  19
ENDBRANCH  12  18
ENDBRANCH   1  15
BRANCH   5  26
ATOM     26  C   UNL     1       7.214   4.605  14.806  0.00  0.00    +0.000 A 
ATOM     27  C   UNL     1       6.369   3.761  14.075  0.00  0.00    +0.000 A 
ATOM     28  C   UNL     1       6.346   3.812  12.688  0.00  0.00    +0.000 A 
ATOM     29  C   UNL     1       7.190   4.695  12.029  0.00  0.00    +0.000 A 
ATOM     30  F   UNL     1       7.178   4.731  10.691  0.00  0.00    +0.000 F 
ATOM     31  C   UNL     1       8.041   5.543  12.730  0.00  0.00    +0.000 A 
ATOM     32  C   UNL     1       8.051   5.502  14.124  0.00  0.00    +0.000 A 
ENDBRANCH   5  26
BRANCH   3  33
ATOM     33  C   UNL     1       7.349   5.756  19.187  0.00  0.00    +0.000 C 
ATOM     34  N   UNL     1       8.013   6.824  18.633  0.00  0.00    +0.000 N 
ATOM     35  O   UNL     1       7.692   5.375  20.301  0.00  0.00    +0.000 OA
ATOM     36  H   UNL     1       7.678   7.363  17.840  0.00  0.00    +0.000 HD
ATOM     37  H   UNL     1       8.691   7.266  19.242  0.00  0.00    +0.000 HD
ENDBRANCH   3  33
TORSDOF 7
ENDMDL
MODEL 8
REMARK VINA RESULT:      -8.3      0.697      1.236
REMARK  Name = 
REMARK  7 active torsions:
REMARK  status: ('A' for Active; 'I' for Inactive)
REMARK    1  A    between atoms: C_2  and  C_3
REMARK    2  A    between atoms: C_7  and  O_9
REMARK    3  A    between atoms: O_9  and  C_10
REMARK    4  A    between atoms: C_10  and  C_11
REMARK    5  A    between atoms: C_18  and  N_19
REMARK    6  A    between atoms: C_21  and  C_22
REMARK    7  A    between atoms: N_26  and  C_27
REMARK                            x       y       z     vdW  Elec       q    Type
REMARK                         _______ _______ _______ _____ _____    ______ ____
ROOT
ATOM      1  N   UNL     1       4.401   4.343  18.073  0.00  0.00    +0.000 N 
ATOM      2  C   UNL     1       5.140   4.983  19.014  0.00  0.00    +0.000 A 
ATOM      3  C   UNL     1       6.422   5.119  18.535  0.00  0.00    +0.000 A 
ATOM      4  C   UNL     1       6.336   4.586  17.213  0.00  0.00    +0.000 A 
ATOM      5  N   UNL     1       7.369   4.479  16.340  0.00  0.00    +0.000 N 
ATOM      6  N   UNL     1       5.106   4.109  16.958  0.00  0.00    +0.000 NA
ATOM      7  H   UNL     1       8.322   4.492  16.677  0.00  0.00    +0.000 HD
ENDROOT
BRANCH   1  15
ATOM      8  C   UNL     1       2.622   3.414  19.578  0.00  0.00    +0.000 C 
ATOM      9  C   UNL     1       2.549   4.570  20.595  0.00  0.00    +0.000 C 
ATOM     10  C   UNL     1       1.735   5.776  20.084  0.00  0.00    +0.000 C 
ATOM     11  N   UNL     1       2.053   6.126  18.696  0.00  0.00    +0.000 N 
ATOM     12  C   UNL     1       2.456   7.385  18.272  0.00  0.00    +0.000 C 
ATOM     13  O   UNL     1       3.013   7.588  17.198  0.00  0.00    +0.000 OA
ATOM     14  C   UNL     1       2.047   5.035  17.733  0.00  0.00    +0.000 C 
ATOM     15  C   UNL     1       3.000   3.913  18.161  0.00  0.00    +0.000 C 
BRANCH   8  17
ATOM     16  N   UNL     1       0.290   2.162  19.552  0.00  0.00    +0.000 NA
ATOM     17  C   UNL     1       1.336   2.703  19.549  0.00  0.00    +0.000 C 
ENDBRANCH   8  17
BRANCH  12  18
ATOM     18  O   UNL     1       2.163   8.371  19.164  0.00  0.00    +0.000 OA
BRANCH  18  19
ATOM     19  C   UNL     1       1.761   9.609  18.549  0.00  0.00    +0.000 C 
BRANCH  19  20
ATOM     20  C   UNL     1       0.726  10.306  19.399  0.00  0.00    +0.000 A 
ATOM     21  C   UNL     1       0.895  10.412  20.786  0.00  0.00    +0.000 A 
ATOM     22  C   UNL     1      -0.095  11.007  21.571  0.00  0.00    +0.000 A 
ATOM     23  C   UNL     1      -1.249  11.516  20.977  0.00  0.00    +0.000 A 
ATOM     24  C   UNL     1      -1.405  11.452  19.596  0.00  0.00    +0.000 A 
ATOM     25  C   UNL     1      -0.420  10.860  18.812  0.00  0.00    +0.000 A 
ENDBRANCH  19  20
ENDBRANCH  18  19
ENDBRANCH  12  18
ENDBRANCH   1  15
BRANCH   5  26
ATOM     26  C   UNL     1       7.312   4.543  14.933  0.00  0.00    +0.000 A 
ATOM     27  C   UNL     1       8.130   5.440  14.235  0.00  0.00    +0.000 A 
ATOM     28  C   UNL     1       8.057   5.533  12.851  0.00  0.00    +0.000 A 
ATOM     29  C   UNL     1       7.145   4.743  12.166  0.00  0.00    +0.000 A 
ATOM     30  F   UNL     1       7.065   4.847  10.835  0.00  0.00    +0.000 F 
ATOM     31  C   UNL     1       6.319   3.846  12.835  0.00  0.00    +0.000 A 
ATOM     32  C   UNL     1       6.405   3.742  14.223  0.00  0.00    +0.000 A 
ENDBRANCH   5  26
BRANCH   3  33
ATOM     33  C   UNL     1       7.482   5.746  19.299  0.00  0.00    +0.000 C 
ATOM     34  N   UNL     1       8.112   6.832  18.739  0.00  0.00    +0.000 N 
ATOM     35  O   UNL     1       7.857   5.364  20.402  0.00  0.00    +0.000 OA
ATOM     36  H   UNL     1       7.749   7.369  17.958  0.00  0.00    +0.000 HD
ATOM     37  H   UNL     1       8.793   7.284  19.337  0.00  0.00    +0.000 HD
ENDBRANCH   3  33
TORSDOF 7
ENDMDL
MODEL 9
REMARK VINA RESULT:      -8.2      1.292      2.057
REMARK  Name = 
REMARK  7 active torsions:
REMARK  status: ('A' for Active; 'I' for Inactive)
REMARK    1  A    between atoms: C_2  and  C_3
REMARK    2  A    between atoms: C_7  and  O_9
REMARK    3  A    between atoms: O_9  and  C_10
REMARK    4  A    between atoms: C_10  and  C_11
REMARK    5  A    between atoms: C_18  and  N_19
REMARK    6  A    between atoms: C_21  and  C_22
REMARK    7  A    between atoms: N_26  and  C_27
REMARK                            x       y       z     vdW  Elec       q    Type
REMARK                         _______ _______ _______ _____ _____    ______ ____
ROOT
ATOM      1  N   UNL     1       4.435   4.484  17.944  0.00  0.00    +0.000 N 
ATOM      2  C   UNL     1       5.182   5.164  18.850  0.00  0.00    +0.000 A 
ATOM      3  C   UNL     1       6.457   5.288  18.349  0.00  0.00    +0.000 A 
ATOM      4  C   UNL     1       6.357   4.703  17.051  0.00  0.00    +0.000 A 
ATOM      5  N   UNL     1       7.380   4.567  16.169  0.00  0.00    +0.000 N 
ATOM      6  N   UNL     1       5.128   4.210  16.830  0.00  0.00    +0.000 NA
ATOM      7  H   UNL     1       8.337   4.598  16.494  0.00  0.00    +0.000 HD
ENDROOT
BRANCH   1  15
ATOM      8  C   UNL     1       2.728   3.439  19.456  0.00  0.00    +0.000 C 
ATOM      9  C   UNL     1       2.710   4.510  20.565  0.00  0.00    +0.000 C 
ATOM     10  C   UNL     1       1.879   5.754  20.193  0.00  0.00    +0.000 C 
ATOM     11  N   UNL     1       2.130   6.214  18.824  0.00  0.00    +0.000 N 
ATOM     12  C   UNL     1       2.519   7.503  18.483  0.00  0.00    +0.000 C 
ATOM     13  O   UNL     1       3.023   7.790  17.402  0.00  0.00    +0.000 OA
ATOM     14  C   UNL     1       2.071   5.204  17.777  0.00  0.00    +0.000 C 
ATOM     15  C   UNL     1       3.037   4.050  18.067  0.00  0.00    +0.000 C 
BRANCH   8  17
ATOM     16  N   UNL     1       0.386   2.203  19.435  0.00  0.00    +0.000 NA
ATOM     17  C   UNL     1       1.437   2.734  19.434  0.00  0.00    +0.000 C 
ENDBRANCH   8  17
BRANCH  12  18
ATOM     18  O   UNL     1       2.274   8.414  19.464  0.00  0.00    +0.000 OA
BRANCH  18  19
ATOM     19  C   UNL     1       1.081   9.191  19.251  0.00  0.00    +0.000 C 
BRANCH  19  20
ATOM     20  C   UNL     1       1.410  10.664  19.232  0.00  0.00    +0.000 A 
ATOM     21  C   UNL     1       2.120  11.223  18.162  0.00  0.00    +0.000 A 
ATOM     22  C   UNL     1       2.470  12.575  18.181  0.00  0.00    +0.000 A 
ATOM     23  C   UNL     1       2.100  13.380  19.257  0.00  0.00    +0.000 A 
ATOM     24  C   UNL     1       1.358  12.842  20.304  0.00  0.00    +0.000 A 
ATOM     25  C   UNL     1       1.008  11.495  20.287  0.00  0.00    +0.000 A 
ENDBRANCH  19  20
ENDBRANCH  18  19
ENDBRANCH  12  18
ENDBRANCH   1  15
BRANCH   5  26
ATOM     26  C   UNL     1       7.305   4.576  14.761  0.00  0.00    +0.000 A 
ATOM     27  C   UNL     1       8.100   5.458  14.019  0.00  0.00    +0.000 A 
ATOM     28  C   UNL     1       8.009   5.496  12.634  0.00  0.00    +0.000 A 
ATOM     29  C   UNL     1       7.102   4.665  11.992  0.00  0.00    +0.000 A 
ATOM     30  F   UNL     1       7.004   4.715  10.658  0.00  0.00    +0.000 F 
ATOM     31  C   UNL     1       6.298   3.782  12.705  0.00  0.00    +0.000 A 
ATOM     32  C   UNL     1       6.403   3.733  14.095  0.00  0.00    +0.000 A 
ENDBRANCH   5  26
BRANCH   3  33
ATOM     33  C   UNL     1       7.522   5.950  19.074  0.00  0.00    +0.000 C 
ATOM     34  N   UNL     1       7.942   5.378  20.251  0.00  0.00    +0.000 N 
ATOM     35  O   UNL     1       8.064   6.989  18.711  0.00  0.00    +0.000 OA
ATOM     36  H   UNL     1       7.739   4.424  20.533  0.00  0.00    +0.000 HD
ATOM     37  H   UNL     1       8.736   5.830  20.686  0.00  0.00    +0.000 HD
ENDBRANCH   3  33
TORSDOF 7
ENDMDL
