MODEL 1
REMARK VINA RESULT:      -8.2      0.000      0.000
REMARK  Name = 
REMARK  5 active torsions:
REMARK  status: ('A' for Active; 'I' for Inactive)
REMARK    1  A    between atoms: C_2  and  C_3
REMARK    2  A    between atoms: C_8  and  O_9
REMARK    3  A    between atoms: O_9  and  C_10
REMARK    4  A    between atoms: C_13  and  N_14
REMARK    5  A    between atoms: C_15  and  C_17
REMARK                            x       y       z     vdW  Elec       q    Type
REMARK                         _______ _______ _______ _____ _____    ______ ____
ROOT
ATOM      1  C   UNL     1       2.358   8.057  18.494  0.00  0.00    +0.000 C 
ATOM      2  C   UNL     1       1.329   8.925  17.758  0.00  0.00    +0.000 C 
ATOM      3  C   UNL     1       1.025  10.217  18.503  0.00  0.00    +0.000 C 
ATOM      4  C   UNL     1       0.490   9.937  19.903  0.00  0.00    +0.000 C 
ATOM      5  C   UNL     1       1.488   9.079  20.690  0.00  0.00    +0.000 C 
ATOM      6  C   UNL     1       1.857   7.800  19.931  0.00  0.00    +0.000 C 
ENDROOT
BRANCH   4   7
ATOM      7  N   UNL     1       0.219  11.198  20.566  0.00  0.00    +0.000 N 
ATOM      8  C   UNL     1      -0.446  11.260  21.771  0.00  0.00    +0.000 C 
ATOM      9  O   UNL     1      -0.852  10.280  22.381  0.00  0.00    +0.000 OA
ATOM     10  H   UNL     1       0.646  12.035  20.191  0.00  0.00    +0.000 HD
BRANCH   8  11
ATOM     11  C   UNL     1      -0.633  12.622  22.332  0.00  0.00    +0.000 A 
ATOM     12  C   UNL     1       0.203  13.650  21.875  0.00  0.00    +0.000 A 
ATOM     13  C   UNL     1       0.040  14.949  22.359  0.00  0.00    +0.000 A 
ATOM     14  C   UNL     1      -0.938  15.212  23.319  0.00  0.00    +0.000 A 
ATOM     15  C   UNL     1      -1.738  14.177  23.791  0.00  0.00    +0.000 A 
ATOM     16  F   UNL     1      -2.657  14.427  24.733  0.00  0.00    +0.000 F 
ATOM     17  C   UNL     1      -1.602  12.884  23.305  0.00  0.00    +0.000 A 
ENDBRANCH   8  11
ENDBRANCH   4   7
BRANCH   1  18
ATOM     18  O   UNL     1       2.465   6.764  17.867  0.00  0.00    +0.000 OA
BRANCH  18  24
ATOM     19  C   UNL     1       3.780   2.596  19.833  0.00  0.00    +0.000 A 
ATOM     20  C   UNL     1       2.442   2.167  19.869  0.00  0.00    +0.000 A 
ATOM     21  C   UNL     1       1.446   3.007  19.404  0.00  0.00    +0.000 A 
ATOM     22  C   UNL     1       1.790   4.274  18.951  0.00  0.00    +0.000 A 
ATOM     23  C   UNL     1       3.138   4.662  18.779  0.00  0.00    +0.000 A 
ATOM     24  C   UNL     1       3.489   5.907  18.187  0.00  0.00    +0.000 A 
ATOM     25  C   UNL     1       4.822   6.223  18.006  0.00  0.00    +0.000 A 
ATOM     26  C   UNL     1       5.761   5.315  18.453  0.00  0.00    +0.000 A 
ATOM     27  N   UNL     1       5.466   4.137  19.056  0.00  0.00    +0.000 NA
ATOM     28  C   UNL     1       4.165   3.797  19.204  0.00  0.00    +0.000 A 
BRANCH  19  30
ATOM     29  N   UNL     1       5.444   1.259  21.298  0.00  0.00    +0.000 NA
ATOM     30  C   UNL     1       4.736   1.837  20.573  0.00  0.00    +0.000 C 
ENDBRANCH  19  30
ENDBRANCH  18  24
ENDBRANCH   1  18
TORSDOF 5
ENDMDL
MODEL 2
REMARK VINA RESULT:      -8.1      0.825      1.243
REMARK  Name = 
REMARK  5 active torsions:
REMARK  status: ('A' for Active; 'I' for Inactive)
REMARK    1  A    between atoms: C_2  and  C_3
REMARK    2  A    between atoms: C_8  and  O_9
REMARK    3  A    between atoms: O_9  and  C_10
REMARK    4  A    between atoms: C_13  and  N_14
REMARK    5  A    between atoms: C_15  and  C_17
REMARK                            x       y       z     vdW  Elec       q    Type
REMARK                         _______ _______ _______ _____ _____    ______ ____
ROOT
ATOM      1  C   UNL     1       2.502   8.080  18.423  0.00  0.00    +0.000 C 
ATOM      2  C   UNL     1       1.446   8.896  17.667  0.00  0.00    +0.000 C 
ATOM      3  C   UNL     1       0.943  10.081  18.479  0.00  0.00    +0.000 C 
ATOM      4  C   UNL     1       0.332   9.628  19.801  0.00  0.00    +0.000 C 
ATOM      5  C   UNL     1       1.353   8.814  20.605  0.00  0.00    +0.000 C 
ATOM      6  C   UNL     1       1.920   7.650  19.786  0.00  0.00    +0.000 C 
ENDROOT
BRANCH   4   7
ATOM      7  N   UNL     1      -0.129  10.794  20.532  0.00  0.00    +0.000 N 
ATOM      8  C   UNL     1      -0.650  10.697  21.804  0.00  0.00    +0.000 C 
ATOM      9  O   UNL     1      -0.762   9.646  22.420  0.00  0.00    +0.000 OA
ATOM     10  H   UNL     1       0.062  11.708  20.140  0.00  0.00    +0.000 HD
BRANCH   8  11
ATOM     11  C   UNL     1      -1.063  11.979  22.427  0.00  0.00    +0.000 A 
ATOM     12  C   UNL     1      -2.267  12.014  23.143  0.00  0.00    +0.000 A 
ATOM     13  C   UNL     1      -2.674  13.195  23.766  0.00  0.00    +0.000 A 
ATOM     14  C   UNL     1      -1.894  14.345  23.647  0.00  0.00    +0.000 A 
ATOM     15  C   UNL     1      -0.718  14.308  22.904  0.00  0.00    +0.000 A 
ATOM     16  F   UNL     1       0.014  15.421  22.768  0.00  0.00    +0.000 F 
ATOM     17  C   UNL     1      -0.289  13.136  22.296  0.00  0.00    +0.000 A 
ENDBRANCH   8  11
ENDBRANCH   4   7
BRANCH   1  18
ATOM     18  O   UNL     1       2.801   6.863  17.710  0.00  0.00    +0.000 OA
BRANCH  18  24
ATOM     19  C   UNL     1       3.832   2.605  19.654  0.00  0.00    +0.000 A 
ATOM     20  C   UNL     1       2.518   2.159  19.426  0.00  0.00    +0.000 A 
ATOM     21  C   UNL     1       1.603   3.013  18.835  0.00  0.00    +0.000 A 
ATOM     22  C   UNL     1       1.996   4.308  18.520  0.00  0.00    +0.000 A 
ATOM     23  C   UNL     1       3.345   4.720  18.614  0.00  0.00    +0.000 A 
ATOM     24  C   UNL     1       3.770   6.001  18.163  0.00  0.00    +0.000 A 
ATOM     25  C   UNL     1       5.107   6.340  18.241  0.00  0.00    +0.000 A 
ATOM     26  C   UNL     1       5.970   5.419  18.799  0.00  0.00    +0.000 A 
ATOM     27  N   UNL     1       5.596   4.205  19.275  0.00  0.00    +0.000 NA
ATOM     28  C   UNL     1       4.297   3.844  19.169  0.00  0.00    +0.000 A 
BRANCH  19  30
ATOM     29  N   UNL     1       5.427   1.282  21.204  0.00  0.00    +0.000 NA
ATOM     30  C   UNL     1       4.656   1.816  20.511  0.00  0.00    +0.000 C 
ENDBRANCH  19  30
ENDBRANCH  18  24
ENDBRANCH   1  18
TORSDOF 5
ENDMDL
MODEL 3
REMARK VINA RESULT:      -8.0      2.270      3.701
REMARK  Name = 
REMARK  5 active torsions:
REMARK  status: ('A' for Active; 'I' for Inactive)
REMARK    1  A    between atoms: C_2  and  C_3
REMARK    2  A    between atoms: C_8  and  O_9
REMARK    3  A    between atoms: O_9  and  C_10
REMARK    4  A    between atoms: C_13  and  N_14
REMARK    5  A    between atoms: C_15  and  C_17
REMARK                            x       y       z     vdW  Elec       q    Type
REMARK                         _______ _______ _______ _____ _____    ______ ____
ROOT
ATOM      1  C   UNL     1       2.042   7.213  19.480  0.00  0.00    +0.000 C 
ATOM      2  C   UNL     1       1.787   7.526  20.960  0.00  0.00    +0.000 C 
ATOM      3  C   UNL     1       0.541   8.375  21.163  0.00  0.00    +0.000 C 
ATOM      4  C   UNL     1       0.644   9.699  20.414  0.00  0.00    +0.000 C 
ATOM      5  C   UNL     1       0.888   9.445  18.921  0.00  0.00    +0.000 C 
ATOM      6  C   UNL     1       2.104   8.539  18.693  0.00  0.00    +0.000 C 
ENDROOT
BRANCH   4   7
ATOM      7  N   UNL     1      -0.567  10.466  20.641  0.00  0.00    +0.000 N 
ATOM      8  C   UNL     1      -0.727  11.264  21.752  0.00  0.00    +0.000 C 
ATOM      9  O   UNL     1       0.121  11.402  22.624  0.00  0.00    +0.000 OA
ATOM     10  H   UNL     1      -1.251  10.509  19.895  0.00  0.00    +0.000 HD
BRANCH   8  11
ATOM     11  C   UNL     1      -2.014  11.998  21.835  0.00  0.00    +0.000 A 
ATOM     12  C   UNL     1      -2.523  12.583  20.668  0.00  0.00    +0.000 A 
ATOM     13  C   UNL     1      -3.745  13.257  20.701  0.00  0.00    +0.000 A 
ATOM     14  C   UNL     1      -4.439  13.373  21.905  0.00  0.00    +0.000 A 
ATOM     15  C   UNL     1      -3.906  12.820  23.065  0.00  0.00    +0.000 A 
ATOM     16  F   UNL     1      -4.562  12.957  24.225  0.00  0.00    +0.000 F 
ATOM     17  C   UNL     1      -2.703  12.128  23.044  0.00  0.00    +0.000 A 
ENDBRANCH   8  11
ENDBRANCH   4   7
BRANCH   1  18
ATOM     18  O   UNL     1       3.330   6.586  19.313  0.00  0.00    +0.000 OA
BRANCH  18  24
ATOM     19  C   UNL     1       6.011   4.736  15.798  0.00  0.00    +0.000 A 
ATOM     20  C   UNL     1       7.052   5.634  16.091  0.00  0.00    +0.000 A 
ATOM     21  C   UNL     1       6.890   6.553  17.113  0.00  0.00    +0.000 A 
ATOM     22  C   UNL     1       5.681   6.594  17.797  0.00  0.00    +0.000 A 
ATOM     23  C   UNL     1       4.685   5.609  17.607  0.00  0.00    +0.000 A 
ATOM     24  C   UNL     1       3.508   5.572  18.405  0.00  0.00    +0.000 A 
ATOM     25  C   UNL     1       2.583   4.565  18.206  0.00  0.00    +0.000 A 
ATOM     26  C   UNL     1       2.834   3.655  17.199  0.00  0.00    +0.000 A 
ATOM     27  N   UNL     1       3.925   3.681  16.393  0.00  0.00    +0.000 NA
ATOM     28  C   UNL     1       4.858   4.637  16.604  0.00  0.00    +0.000 A 
BRANCH  19  30
ATOM     29  N   UNL     1       6.144   3.541  13.506  0.00  0.00    +0.000 NA
ATOM     30  C   UNL     1       6.093   4.007  14.574  0.00  0.00    +0.000 C 
ENDBRANCH  19  30
ENDBRANCH  18  24
ENDBRANCH   1  18
TORSDOF 5
ENDMDL
MODEL 4
REMARK VINA RESULT:      -8.0      1.132      1.563
REMARK  Name = 
REMARK  5 active torsions:
REMARK  status: ('A' for Active; 'I' for Inactive)
REMARK    1  A    between atoms: C_2  and  C_3
REMARK    2  A    between atoms: C_8  and  O_9
REMARK    3  A    between atoms: O_9  and  C_10
REMARK    4  A    between atoms: C_13  and  N_14
REMARK    5  A    between atoms: C_15  and  C_17
REMARK                            x       y       z     vdW  Elec       q    Type
REMARK                         _______ _______ _______ _____ _____    ______ ____
ROOT
ATOM      1  C   UNL     1       1.898   7.365  18.213  0.00  0.00    +0.000 C 
ATOM      2  C   UNL     1       2.330   7.415  19.685  0.00  0.00    +0.000 C 
ATOM      3  C   UNL     1       1.388   8.259  20.533  0.00  0.00    +0.000 C 
ATOM      4  C   UNL     1       1.309   9.691  20.016  0.00  0.00    +0.000 C 
ATOM      5  C   UNL     1       0.870   9.700  18.547  0.00  0.00    +0.000 C 
ATOM      6  C   UNL     1       1.767   8.808  17.682  0.00  0.00    +0.000 C 
ENDROOT
BRANCH   4   7
ATOM      7  N   UNL     1       0.401  10.447  20.857  0.00  0.00    +0.000 N 
ATOM      8  C   UNL     1       0.648  11.758  21.202  0.00  0.00    +0.000 C 
ATOM      9  O   UNL     1       1.627  12.391  20.832  0.00  0.00    +0.000 OA
ATOM     10  H   UNL     1      -0.495  10.033  21.084  0.00  0.00    +0.000 HD
BRANCH   8  11
ATOM     11  C   UNL     1      -0.382  12.401  22.055  0.00  0.00    +0.000 A 
ATOM     12  C   UNL     1      -0.249  13.766  22.345  0.00  0.00    +0.000 A 
ATOM     13  C   UNL     1      -1.212  14.413  23.121  0.00  0.00    +0.000 A 
ATOM     14  C   UNL     1      -2.289  13.688  23.632  0.00  0.00    +0.000 A 
ATOM     15  C   UNL     1      -2.393  12.326  23.367  0.00  0.00    +0.000 A 
ATOM     16  F   UNL     1      -3.414  11.628  23.882  0.00  0.00    +0.000 F 
ATOM     17  C   UNL     1      -1.454  11.674  22.580  0.00  0.00    +0.000 A 
ENDBRANCH   8  11
ENDBRANCH   4   7
BRANCH   1  18
ATOM     18  O   UNL     1       2.917   6.732  17.413  0.00  0.00    +0.000 OA
BRANCH  18  24
ATOM     19  C   UNL     1       3.955   2.521  19.451  0.00  0.00    +0.000 A 
ATOM     20  C   UNL     1       2.719   1.993  19.040  0.00  0.00    +0.000 A 
ATOM     21  C   UNL     1       1.839   2.794  18.333  0.00  0.00    +0.000 A 
ATOM     22  C   UNL     1       2.183   4.117  18.085  0.00  0.00    +0.000 A 
ATOM     23  C   UNL     1       3.474   4.616  18.368  0.00  0.00    +0.000 A 
ATOM     24  C   UNL     1       3.869   5.929  17.990  0.00  0.00    +0.000 A 
ATOM     25  C   UNL     1       5.157   6.355  18.255  0.00  0.00    +0.000 A 
ATOM     26  C   UNL     1       5.995   5.484  18.922  0.00  0.00    +0.000 A 
ATOM     27  N   UNL     1       5.642   4.241  19.333  0.00  0.00    +0.000 NA
ATOM     28  C   UNL     1       4.398   3.795  19.044  0.00  0.00    +0.000 A 
BRANCH  19  30
ATOM     29  N   UNL     1       5.346   1.294  21.256  0.00  0.00    +0.000 NA
ATOM     30  C   UNL     1       4.705   1.774  20.409  0.00  0.00    +0.000 C 
ENDBRANCH  19  30
ENDBRANCH  18  24
ENDBRANCH   1  18
TORSDOF 5
ENDMDL
MODEL 5
REMARK VINA RESULT:      -7.9      1.044      1.708
REMARK  Name = 
REMARK  5 active torsions:
REMARK  status: ('A' for Active; 'I' for Inactive)
REMARK    1  A    between atoms: C_2  and  C_3
REMARK    2  A    between atoms: C_8  and  O_9
REMARK    3  A    between atoms: O_9  and  C_10
REMARK    4  A    between atoms: C_13  and  N_14
REMARK    5  A    between atoms: C_15  and  C_17
REMARK                            x       y       z     vdW  Elec       q    Type
REMARK                         _______ _______ _______ _____ _____    ______ ____
ROOT
ATOM      1  C   UNL     1       1.920   7.433  18.196  0.00  0.00    +0.000 C 
ATOM      2  C   UNL     1       2.349   7.517  19.666  0.00  0.00    +0.000 C 
ATOM      3  C   UNL     1       1.360   8.308  20.511  0.00  0.00    +0.000 C 
ATOM      4  C   UNL     1       1.196   9.730  19.986  0.00  0.00    +0.000 C 
ATOM      5  C   UNL     1       0.756   9.706  18.518  0.00  0.00    +0.000 C 
ATOM      6  C   UNL     1       1.704   8.863  17.657  0.00  0.00    +0.000 C 
ENDROOT
BRANCH   4   7
ATOM      7  N   UNL     1       0.246  10.436  20.825  0.00  0.00    +0.000 N 
ATOM      8  C   UNL     1       0.501  11.699  21.313  0.00  0.00    +0.000 C 
ATOM      9  O   UNL     1       1.525  12.329  21.082  0.00  0.00    +0.000 OA
ATOM     10  H   UNL     1      -0.677  10.035  20.941  0.00  0.00    +0.000 HD
BRANCH   8  11
ATOM     11  C   UNL     1      -0.575  12.296  22.142  0.00  0.00    +0.000 A 
ATOM     12  C   UNL     1      -1.600  11.460  22.605  0.00  0.00    +0.000 A 
ATOM     13  C   UNL     1      -2.614  11.979  23.411  0.00  0.00    +0.000 A 
ATOM     14  C   UNL     1      -2.619  13.339  23.727  0.00  0.00    +0.000 A 
ATOM     15  C   UNL     1      -1.616  14.166  23.232  0.00  0.00    +0.000 A 
ATOM     16  F   UNL     1      -1.639  15.475  23.515  0.00  0.00    +0.000 F 
ATOM     17  C   UNL     1      -0.589  13.660  22.447  0.00  0.00    +0.000 A 
ENDBRANCH   8  11
ENDBRANCH   4   7
BRANCH   1  18
ATOM     18  O   UNL     1       2.974   6.858  17.397  0.00  0.00    +0.000 OA
BRANCH  18  24
ATOM     19  C   UNL     1       3.910   2.611  19.412  0.00  0.00    +0.000 A 
ATOM     20  C   UNL     1       2.653   2.122  19.016  0.00  0.00    +0.000 A 
ATOM     21  C   UNL     1       1.788   2.952  18.323  0.00  0.00    +0.000 A 
ATOM     22  C   UNL     1       2.169   4.264  18.073  0.00  0.00    +0.000 A 
ATOM     23  C   UNL     1       3.479   4.722  18.341  0.00  0.00    +0.000 A 
ATOM     24  C   UNL     1       3.909   6.024  17.959  0.00  0.00    +0.000 A 
ATOM     25  C   UNL     1       5.212   6.410  18.209  0.00  0.00    +0.000 A 
ATOM     26  C   UNL     1       6.032   5.512  18.862  0.00  0.00    +0.000 A 
ATOM     27  N   UNL     1       5.647   4.279  19.275  0.00  0.00    +0.000 NA
ATOM     28  C   UNL     1       4.386   3.873  19.002  0.00  0.00    +0.000 A 
BRANCH  19  30
ATOM     29  N   UNL     1       5.279   1.336  21.200  0.00  0.00    +0.000 NA
ATOM     30  C   UNL     1       4.649   1.839  20.358  0.00  0.00    +0.000 C 
ENDBRANCH  19  30
ENDBRANCH  18  24
ENDBRANCH   1  18
TORSDOF 5
ENDMDL
MODEL 6
REMARK VINA RESULT:      -7.9      1.257      1.371
REMARK  Name = 
REMARK  5 active torsions:
REMARK  status: ('A' for Active; 'I' for Inactive)
REMARK    1  A    between atoms: C_2  and  C_3
REMARK    2  A    between atoms: C_8  and  O_9
REMARK    3  A    between atoms: O_9  and  C_10
REMARK    4  A    between atoms: C_13  and  N_14
REMARK    5  A    between atoms: C_15  and  C_17
REMARK                            x       y       z     vdW  Elec       q    Type
REMARK                         _______ _______ _______ _____ _____    ______ ____
ROOT
ATOM      1  C   UNL     1       2.496   7.988  18.613  0.00  0.00    +0.000 C 
ATOM      2  C   UNL     1       1.556   8.909  17.825  0.00  0.00    +0.000 C 
ATOM      3  C   UNL     1       1.129  10.126  18.634  0.00  0.00    +0.000 C 
ATOM      4  C   UNL     1       0.418   9.716  19.919  0.00  0.00    +0.000 C 
ATOM      5  C   UNL     1       1.321   8.800  20.754  0.00  0.00    +0.000 C 
ATOM      6  C   UNL     1       1.814   7.598  19.942  0.00  0.00    +0.000 C 
ENDROOT
BRANCH   4   7
ATOM      7  N   UNL     1       0.036  10.910  20.649  0.00  0.00    +0.000 N 
ATOM      8  C   UNL     1      -1.111  11.612  20.348  0.00  0.00    +0.000 C 
ATOM      9  O   UNL     1      -1.897  11.295  19.465  0.00  0.00    +0.000 OA
ATOM     10  H   UNL     1       0.562  11.150  21.479  0.00  0.00    +0.000 HD
BRANCH   8  11
ATOM     11  C   UNL     1      -1.375  12.803  21.193  0.00  0.00    +0.000 A 
ATOM     12  C   UNL     1      -0.997  12.758  22.543  0.00  0.00    +0.000 A 
ATOM     13  C   UNL     1      -1.204  13.868  23.362  0.00  0.00    +0.000 A 
ATOM     14  C   UNL     1      -1.815  15.009  22.841  0.00  0.00    +0.000 A 
ATOM     15  C   UNL     1      -2.217  15.029  21.510  0.00  0.00    +0.000 A 
ATOM     16  F   UNL     1      -2.829  16.116  21.020  0.00  0.00    +0.000 F 
ATOM     17  C   UNL     1      -2.000  13.941  20.677  0.00  0.00    +0.000 A 
ENDBRANCH   8  11
ENDBRANCH   4   7
BRANCH   1  18
ATOM     18  O   UNL     1       2.713   6.757  17.895  0.00  0.00    +0.000 OA
BRANCH  18  24
ATOM     19  C   UNL     1       3.855   2.557  19.900  0.00  0.00    +0.000 A 
ATOM     20  C   UNL     1       2.513   2.142  19.846  0.00  0.00    +0.000 A 
ATOM     21  C   UNL     1       1.557   2.998  19.327  0.00  0.00    +0.000 A 
ATOM     22  C   UNL     1       1.943   4.265  18.909  0.00  0.00    +0.000 A 
ATOM     23  C   UNL     1       3.304   4.640  18.827  0.00  0.00    +0.000 A 
ATOM     24  C   UNL     1       3.705   5.886  18.271  0.00  0.00    +0.000 A 
ATOM     25  C   UNL     1       5.050   6.188  18.178  0.00  0.00    +0.000 A 
ATOM     26  C   UNL     1       5.949   5.266  18.674  0.00  0.00    +0.000 A 
ATOM     27  N   UNL     1       5.603   4.085  19.246  0.00  0.00    +0.000 NA
ATOM     28  C   UNL     1       4.292   3.759  19.307  0.00  0.00    +0.000 A 
BRANCH  19  30
ATOM     29  N   UNL     1       5.528   1.081  21.211  0.00  0.00    +0.000 NA
ATOM     30  C   UNL     1       4.754   1.781  20.691  0.00  0.00    +0.000 C 
ENDBRANCH  19  30
ENDBRANCH  18  24
ENDBRANCH   1  18
TORSDOF 5
ENDMDL
MODEL 7
REMARK VINA RESULT:      -7.8      1.162      1.468
REMARK  Name = 
REMARK  5 active torsions:
REMARK  status: ('A' for Active; 'I' for Inactive)
REMARK    1  A    between atoms: C_2  and  C_3
REMARK    2  A    between atoms: C_8  and  O_9
REMARK    3  A    between atoms: O_9  and  C_10
REMARK    4  A    between atoms: C_13  and  N_14
REMARK    5  A    between atoms: C_15  and  C_17
REMARK                            x       y       z     vdW  Elec       q    Type
REMARK                         _______ _______ _______ _____ _____    ______ ____
ROOT
ATOM      1  C   UNL     1       2.196   8.274  18.839  0.00  0.00    +0.000 C 
ATOM      2  C   UNL     1       1.404   9.336  18.064  0.00  0.00    +0.000 C 
ATOM      3  C   UNL     1       1.286  10.643  18.833  0.00  0.00    +0.000 C 
ATOM      4  C   UNL     1       0.601  10.435  20.179  0.00  0.00    +0.000 C 
ATOM      5  C   UNL     1       1.360   9.388  21.003  0.00  0.00    +0.000 C 
ATOM      6  C   UNL     1       1.546   8.081  20.225  0.00  0.00    +0.000 C 
ENDROOT
BRANCH   4   7
ATOM      7  N   UNL     1       0.516  11.709  20.868  0.00  0.00    +0.000 N 
ATOM      8  C   UNL     1      -0.580  12.055  21.628  0.00  0.00    +0.000 C 
ATOM      9  O   UNL     1      -1.554  11.333  21.795  0.00  0.00    +0.000 OA
ATOM     10  H   UNL     1       1.341  12.295  20.888  0.00  0.00    +0.000 HD
BRANCH   8  11
ATOM     11  C   UNL     1      -0.512  13.385  22.284  0.00  0.00    +0.000 A 
ATOM     12  C   UNL     1      -1.337  13.624  23.391  0.00  0.00    +0.000 A 
ATOM     13  C   UNL     1      -1.281  14.853  24.051  0.00  0.00    +0.000 A 
ATOM     14  C   UNL     1      -0.424  15.850  23.584  0.00  0.00    +0.000 A 
ATOM     15  C   UNL     1       0.364  15.614  22.463  0.00  0.00    +0.000 A 
ATOM     16  F   UNL     1       1.166  16.583  22.001  0.00  0.00    +0.000 F 
ATOM     17  C   UNL     1       0.335  14.390  21.808  0.00  0.00    +0.000 A 
ENDBRANCH   8  11
ENDBRANCH   4   7
BRANCH   1  18
ATOM     18  O   UNL     1       2.112   6.999  18.173  0.00  0.00    +0.000 OA
BRANCH  18  24
ATOM     19  C   UNL     1       3.547   2.843  20.082  0.00  0.00    +0.000 A 
ATOM     20  C   UNL     1       2.230   2.545  20.475  0.00  0.00    +0.000 A 
ATOM     21  C   UNL     1       1.217   3.448  20.200  0.00  0.00    +0.000 A 
ATOM     22  C   UNL     1       1.536   4.649  19.579  0.00  0.00    +0.000 A 
ATOM     23  C   UNL     1       2.825   4.898  19.057  0.00  0.00    +0.000 A 
ATOM     24  C   UNL     1       3.114   6.069  18.302  0.00  0.00    +0.000 A 
ATOM     25  C   UNL     1       4.381   6.246  17.779  0.00  0.00    +0.000 A 
ATOM     26  C   UNL     1       5.328   5.280  18.055  0.00  0.00    +0.000 A 
ATOM     27  N   UNL     1       5.101   4.171  18.802  0.00  0.00    +0.000 NA
ATOM     28  C   UNL     1       3.854   3.965  19.286  0.00  0.00    +0.000 A 
BRANCH  19  30
ATOM     29  N   UNL     1       5.360   1.361  21.182  0.00  0.00    +0.000 NA
ATOM     30  C   UNL     1       4.594   2.041  20.625  0.00  0.00    +0.000 C 
ENDBRANCH  19  30
ENDBRANCH  18  24
ENDBRANCH   1  18
TORSDOF 5
ENDMDL
MODEL 8
REMARK VINA RESULT:      -7.8      2.434      3.845
REMARK  Name = 
REMARK  5 active torsions:
REMARK  status: ('A' for Active; 'I' for Inactive)
REMARK    1  A    between atoms: C_2  and  C_3
REMARK    2  A    between atoms: C_8  and  O_9
REMARK    3  A    between atoms: O_9  and  C_10
REMARK    4  A    between atoms: C_13  and  N_14
REMARK    5  A    between atoms: C_15  and  C_17
REMARK                            x       y       z     vdW  Elec       q    Type
REMARK                         _______ _______ _______ _____ _____    ______ ____
ROOT
ATOM      1  C   UNL     1       2.038   7.238  19.541  0.00  0.00    +0.000 C 
ATOM      2  C   UNL     1       1.765   7.496  21.029  0.00  0.00    +0.000 C 
ATOM      3  C   UNL     1       0.535   8.365  21.248  0.00  0.00    +0.000 C 
ATOM      4  C   UNL     1       0.681   9.715  20.556  0.00  0.00    +0.000 C 
ATOM      5  C   UNL     1       0.944   9.517  19.058  0.00  0.00    +0.000 C 
ATOM      6  C   UNL     1       2.142   8.594  18.811  0.00  0.00    +0.000 C 
ENDROOT
BRANCH   4   7
ATOM      7  N   UNL     1      -0.516  10.500  20.796  0.00  0.00    +0.000 N 
ATOM      8  C   UNL     1      -0.775  11.079  22.019  0.00  0.00    +0.000 C 
ATOM      9  O   UNL     1      -0.032  10.995  22.988  0.00  0.00    +0.000 OA
ATOM     10  H   UNL     1      -1.104  10.728  20.003  0.00  0.00    +0.000 HD
BRANCH   8  11
ATOM     11  C   UNL     1      -2.031  11.864  22.104  0.00  0.00    +0.000 A 
ATOM     12  C   UNL     1      -2.657  11.987  23.352  0.00  0.00    +0.000 A 
ATOM     13  C   UNL     1      -3.825  12.740  23.477  0.00  0.00    +0.000 A 
ATOM     14  C   UNL     1      -4.383  13.343  22.349  0.00  0.00    +0.000 A 
ATOM     15  C   UNL     1      -3.773  13.186  21.109  0.00  0.00    +0.000 A 
ATOM     16  F   UNL     1      -4.326  13.743  20.024  0.00  0.00    +0.000 F 
ATOM     17  C   UNL     1      -2.600  12.457  20.973  0.00  0.00    +0.000 A 
ENDBRANCH   8  11
ENDBRANCH   4   7
BRANCH   1  18
ATOM     18  O   UNL     1       3.313   6.589  19.369  0.00  0.00    +0.000 OA
BRANCH  18  24
ATOM     19  C   UNL     1       5.928   4.787  15.779  0.00  0.00    +0.000 A 
ATOM     20  C   UNL     1       6.973   5.682  16.063  0.00  0.00    +0.000 A 
ATOM     21  C   UNL     1       6.830   6.589  17.099  0.00  0.00    +0.000 A 
ATOM     22  C   UNL     1       5.635   6.619  17.807  0.00  0.00    +0.000 A 
ATOM     23  C   UNL     1       4.637   5.635  17.624  0.00  0.00    +0.000 A 
ATOM     24  C   UNL     1       3.475   5.587  18.444  0.00  0.00    +0.000 A 
ATOM     25  C   UNL     1       2.547   4.581  18.250  0.00  0.00    +0.000 A 
ATOM     26  C   UNL     1       2.780   3.684  17.227  0.00  0.00    +0.000 A 
ATOM     27  N   UNL     1       3.855   3.722  16.401  0.00  0.00    +0.000 NA
ATOM     28  C   UNL     1       4.791   4.676  16.605  0.00  0.00    +0.000 A 
BRANCH  19  30
ATOM     29  N   UNL     1       6.183   3.494  13.552  0.00  0.00    +0.000 NA
ATOM     30  C   UNL     1       5.988   4.073  14.544  0.00  0.00    +0.000 C 
ENDBRANCH  19  30
ENDBRANCH  18  24
ENDBRANCH   1  18
TORSDOF 5
ENDMDL
MODEL 9
REMARK VINA RESULT:      -7.7      1.714      2.089
REMARK  Name = 
REMARK  5 active torsions:
REMARK  status: ('A' for Active; 'I' for Inactive)
REMARK    1  A    between atoms: C_2  and  C_3
REMARK    2  A    between atoms: C_8  and  O_9
REMARK    3  A    between atoms: O_9  and  C_10
REMARK    4  A    between atoms: C_13  and  N_14
REMARK    5  A    between atoms: C_15  and  C_17
REMARK                            x       y       z     vdW  Elec       q    Type
REMARK                         _______ _______ _______ _____ _____    ______ ____
ROOT
ATOM      1  C   UNL     1       2.251   7.350  18.083  0.00  0.00    +0.000 C 
ATOM      2  C   UNL     1       2.521   7.456  19.589  0.00  0.00    +0.000 C 
ATOM      3  C   UNL     1       1.370   8.115  20.336  0.00  0.00    +0.000 C 
ATOM      4  C   UNL     1       1.096   9.518  19.807  0.00  0.00    +0.000 C 
ATOM      5  C   UNL     1       0.806   9.469  18.301  0.00  0.00    +0.000 C 
ATOM      6  C   UNL     1       1.924   8.754  17.534  0.00  0.00    +0.000 C 
ENDROOT
BRANCH   4   7
ATOM      7  N   UNL     1      -0.008  10.096  20.551  0.00  0.00    +0.000 N 
ATOM      8  C   UNL     1      -0.218  11.457  20.602  0.00  0.00    +0.000 C 
ATOM      9  O   UNL     1       0.483  12.281  20.032  0.00  0.00    +0.000 OA
ATOM     10  H   UNL     1      -0.706   9.470  20.931  0.00  0.00    +0.000 HD
BRANCH   8  11
ATOM     11  C   UNL     1      -1.397  11.894  21.391  0.00  0.00    +0.000 A 
ATOM     12  C   UNL     1      -1.465  11.532  22.743  0.00  0.00    +0.000 A 
ATOM     13  C   UNL     1      -2.544  11.948  23.524  0.00  0.00    +0.000 A 
ATOM     14  C   UNL     1      -3.568  12.698  22.945  0.00  0.00    +0.000 A 
ATOM     15  C   UNL     1      -3.508  13.021  21.594  0.00  0.00    +0.000 A 
ATOM     16  F   UNL     1      -4.507  13.718  21.034  0.00  0.00    +0.000 F 
ATOM     17  C   UNL     1      -2.431  12.633  20.809  0.00  0.00    +0.000 A 
ENDBRANCH   8  11
ENDBRANCH   4   7
BRANCH   1  18
ATOM     18  O   UNL     1       3.436   6.912  17.389  0.00  0.00    +0.000 OA
BRANCH  18  24
ATOM     19  C   UNL     1       4.125   2.615  19.398  0.00  0.00    +0.000 A 
ATOM     20  C   UNL     1       2.865   2.180  18.950  0.00  0.00    +0.000 A 
ATOM     21  C   UNL     1       2.061   3.049  18.233  0.00  0.00    +0.000 A 
ATOM     22  C   UNL     1       2.504   4.347  18.010  0.00  0.00    +0.000 A 
ATOM     23  C   UNL     1       3.819   4.751  18.331  0.00  0.00    +0.000 A 
ATOM     24  C   UNL     1       4.315   6.037  17.979  0.00  0.00    +0.000 A 
ATOM     25  C   UNL     1       5.622   6.368  18.281  0.00  0.00    +0.000 A 
ATOM     26  C   UNL     1       6.380   5.433  18.957  0.00  0.00    +0.000 A 
ATOM     27  N   UNL     1       5.931   4.213  19.343  0.00  0.00    +0.000 NA
ATOM     28  C   UNL     1       4.666   3.860  19.018  0.00  0.00    +0.000 A 
BRANCH  19  30
ATOM     29  N   UNL     1       5.317   1.256  21.250  0.00  0.00    +0.000 NA
ATOM     30  C   UNL     1       4.796   1.808  20.365  0.00  0.00    +0.000 C 
ENDBRANCH  19  30
ENDBRANCH  18  24
ENDBRANCH   1  18
TORSDOF 5
ENDMDL
