MODEL 1
REMARK VINA RESULT:      -6.8      0.000      0.000
REMARK  Name = 
REMARK  6 active torsions:
REMARK  status: ('A' for Active; 'I' for Inactive)
REMARK    1  A    between atoms: C_1  and  S_2
REMARK    2  A    between atoms: S_2  and  C_3
REMARK    3  A    between atoms: C_6  and  C_7
REMARK    4  A    between atoms: N_8  and  N_9
REMARK    5  A    between atoms: C_12  and  C_13
REMARK    6  A    between atoms: C_15  and  C_16
REMARK                            x       y       z     vdW  Elec       q    Type
REMARK                         _______ _______ _______ _____ _____    ______ ____
ROOT
ATOM      1  C   UNL     1       2.601   6.517  18.707  0.00  0.00    +0.000 C 
ATOM      2  N   UNL     1       3.354   5.702  19.373  0.00  0.00    +0.000 NA
ENDROOT
BRANCH   2   3
ATOM      3  N   UNL     1       3.901   4.680  18.652  0.00  0.00    +0.000 N 
ATOM      4  C   UNL     1       4.968   5.021  17.794  0.00  0.00    +0.000 A 
ATOM      5  N   UNL     1       5.798   6.030  18.119  0.00  0.00    +0.000 NA
ATOM      6  C   UNL     1       6.782   6.343  17.260  0.00  0.00    +0.000 A 
ATOM      7  C   UNL     1       7.685   7.474  17.641  0.00  0.00    +0.000 C 
ATOM      8  C   UNL     1       6.964   5.665  16.074  0.00  0.00    +0.000 A 
ATOM      9  C   UNL     1       6.083   4.634  15.816  0.00  0.00    +0.000 A 
ATOM     10  C   UNL     1       6.192   3.837  14.551  0.00  0.00    +0.000 C 
ATOM     11  N   UNL     1       5.086   4.301  16.665  0.00  0.00    +0.000 NA
ATOM     12  H   UNL     1       3.286   4.080  18.113  0.00  0.00    +0.000 HD
ENDBRANCH   2   3
BRANCH   1  16
ATOM     13  C   UNL     1       0.713   9.827  20.650  0.00  0.00    +0.000 A 
ATOM     14  C   UNL     1       1.096   9.924  19.309  0.00  0.00    +0.000 A 
ATOM     15  C   UNL     1       1.714   8.846  18.674  0.00  0.00    +0.000 A 
ATOM     16  C   UNL     1       1.963   7.665  19.381  0.00  0.00    +0.000 A 
ATOM     17  C   UNL     1       1.607   7.567  20.728  0.00  0.00    +0.000 A 
ATOM     18  C   UNL     1       0.987   8.651  21.360  0.00  0.00    +0.000 A 
BRANCH  13  20
ATOM     19  C   UNL     1      -0.658  10.333  22.978  0.00  0.00    +0.000 C 
ATOM     20  S   UNL     1      -0.087  11.187  21.481  0.00  0.00    +0.000 S 
ENDBRANCH  13  20
ENDBRANCH   1  16
TORSDOF 3
ENDMDL
MODEL 2
REMARK VINA RESULT:      -6.7      4.064      6.848
REMARK  Name = 
REMARK  6 active torsions:
REMARK  status: ('A' for Active; 'I' for Inactive)
REMARK    1  A    between atoms: C_1  and  S_2
REMARK    2  A    between atoms: S_2  and  C_3
REMARK    3  A    between atoms: C_6  and  C_7
REMARK    4  A    between atoms: N_8  and  N_9
REMARK    5  A    between atoms: C_12  and  C_13
REMARK    6  A    between atoms: C_15  and  C_16
REMARK                            x       y       z     vdW  Elec       q    Type
REMARK                         _______ _______ _______ _____ _____    ______ ____
ROOT
ATOM      1  C   UNL     1       8.275   8.357  18.197  0.00  0.00    +0.000 C 
ATOM      2  N   UNL     1       7.719   8.027  17.076  0.00  0.00    +0.000 NA
ENDROOT
BRANCH   2   3
ATOM      3  N   UNL     1       7.379   6.711  16.951  0.00  0.00    +0.000 N 
ATOM      4  C   UNL     1       6.090   6.353  17.398  0.00  0.00    +0.000 A 
ATOM      5  N   UNL     1       5.079   7.238  17.317  0.00  0.00    +0.000 NA
ATOM      6  C   UNL     1       3.874   6.867  17.782  0.00  0.00    +0.000 A 
ATOM      7  C   UNL     1       2.769   7.873  17.689  0.00  0.00    +0.000 C 
ATOM      8  C   UNL     1       3.649   5.622  18.328  0.00  0.00    +0.000 A 
ATOM      9  C   UNL     1       4.729   4.764  18.364  0.00  0.00    +0.000 A 
ATOM     10  C   UNL     1       4.591   3.388  18.942  0.00  0.00    +0.000 C 
ATOM     11  N   UNL     1       5.951   5.113  17.902  0.00  0.00    +0.000 NA
ATOM     12  H   UNL     1       8.012   6.006  17.318  0.00  0.00    +0.000 HD
ENDBRANCH   2   3
BRANCH   1  16
ATOM     13  C   UNL     1       9.475  12.402  18.897  0.00  0.00    +0.000 A 
ATOM     14  C   UNL     1       9.856  11.393  19.786  0.00  0.00    +0.000 A 
ATOM     15  C   UNL     1       9.463  10.073  19.560  0.00  0.00    +0.000 A 
ATOM     16  C   UNL     1       8.677   9.756  18.447  0.00  0.00    +0.000 A 
ATOM     17  C   UNL     1       8.272  10.761  17.566  0.00  0.00    +0.000 A 
ATOM     18  C   UNL     1       8.669  12.084  17.797  0.00  0.00    +0.000 A 
BRANCH  13  20
ATOM     19  C   UNL     1      11.704  13.831  19.636  0.00  0.00    +0.000 C 
ATOM     20  S   UNL     1       9.973  14.095  19.158  0.00  0.00    +0.000 S 
ENDBRANCH  13  20
ENDBRANCH   1  16
TORSDOF 3
ENDMDL
MODEL 3
REMARK VINA RESULT:      -6.7      4.018      6.754
REMARK  Name = 
REMARK  6 active torsions:
REMARK  status: ('A' for Active; 'I' for Inactive)
REMARK    1  A    between atoms: C_1  and  S_2
REMARK    2  A    between atoms: S_2  and  C_3
REMARK    3  A    between atoms: C_6  and  C_7
REMARK    4  A    between atoms: N_8  and  N_9
REMARK    5  A    between atoms: C_12  and  C_13
REMARK    6  A    between atoms: C_15  and  C_16
REMARK                            x       y       z     vdW  Elec       q    Type
REMARK                         _______ _______ _______ _____ _____    ______ ____
ROOT
ATOM      1  C   UNL     1       8.243   8.356  18.142  0.00  0.00    +0.000 C 
ATOM      2  N   UNL     1       7.540   8.068  17.095  0.00  0.00    +0.000 NA
ENDROOT
BRANCH   2   3
ATOM      3  N   UNL     1       7.205   6.753  16.952  0.00  0.00    +0.000 N 
ATOM      4  C   UNL     1       5.926   6.379  17.416  0.00  0.00    +0.000 A 
ATOM      5  N   UNL     1       4.908   7.259  17.370  0.00  0.00    +0.000 NA
ATOM      6  C   UNL     1       3.715   6.873  17.850  0.00  0.00    +0.000 A 
ATOM      7  C   UNL     1       2.603   7.874  17.795  0.00  0.00    +0.000 C 
ATOM      8  C   UNL     1       3.507   5.617  18.377  0.00  0.00    +0.000 A 
ATOM      9  C   UNL     1       4.592   4.765  18.378  0.00  0.00    +0.000 A 
ATOM     10  C   UNL     1       4.472   3.378  18.934  0.00  0.00    +0.000 C 
ATOM     11  N   UNL     1       5.803   5.130  17.900  0.00  0.00    +0.000 NA
ATOM     12  H   UNL     1       7.848   6.046  17.296  0.00  0.00    +0.000 HD
ENDBRANCH   2   3
BRANCH   1  16
ATOM     13  C   UNL     1       9.402  12.399  18.925  0.00  0.00    +0.000 A 
ATOM     14  C   UNL     1       8.647  12.092  17.790  0.00  0.00    +0.000 A 
ATOM     15  C   UNL     1       8.270  10.773  17.532  0.00  0.00    +0.000 A 
ATOM     16  C   UNL     1       8.656   9.750  18.404  0.00  0.00    +0.000 A 
ATOM     17  C   UNL     1       9.431  10.044  19.528  0.00  0.00    +0.000 A 
ATOM     18  C   UNL     1       9.806  11.368  19.782  0.00  0.00    +0.000 A 
BRANCH  13  20
ATOM     19  C   UNL     1      10.788  14.463  17.755  0.00  0.00    +0.000 C 
ATOM     20  S   UNL     1       9.888  14.077  19.282  0.00  0.00    +0.000 S 
ENDBRANCH  13  20
ENDBRANCH   1  16
TORSDOF 3
ENDMDL
MODEL 4
REMARK VINA RESULT:      -6.6      0.278      1.142
REMARK  Name = 
REMARK  6 active torsions:
REMARK  status: ('A' for Active; 'I' for Inactive)
REMARK    1  A    between atoms: C_1  and  S_2
REMARK    2  A    between atoms: S_2  and  C_3
REMARK    3  A    between atoms: C_6  and  C_7
REMARK    4  A    between atoms: N_8  and  N_9
REMARK    5  A    between atoms: C_12  and  C_13
REMARK    6  A    between atoms: C_15  and  C_16
REMARK                            x       y       z     vdW  Elec       q    Type
REMARK                         _______ _______ _______ _____ _____    ______ ____
ROOT
ATOM      1  C   UNL     1       2.665   6.557  18.405  0.00  0.00    +0.000 C 
ATOM      2  N   UNL     1       3.195   5.591  19.083  0.00  0.00    +0.000 NA
ENDROOT
BRANCH   2   3
ATOM      3  N   UNL     1       3.755   4.589  18.344  0.00  0.00    +0.000 N 
ATOM      4  C   UNL     1       4.872   4.941  17.557  0.00  0.00    +0.000 A 
ATOM      5  N   UNL     1       5.707   5.913  17.970  0.00  0.00    +0.000 NA
ATOM      6  C   UNL     1       6.741   6.238  17.176  0.00  0.00    +0.000 A 
ATOM      7  C   UNL     1       7.650   7.328  17.654  0.00  0.00    +0.000 C 
ATOM      8  C   UNL     1       6.968   5.610  15.971  0.00  0.00    +0.000 A 
ATOM      9  C   UNL     1       6.077   4.615  15.621  0.00  0.00    +0.000 A 
ATOM     10  C   UNL     1       6.233   3.873  14.328  0.00  0.00    +0.000 C 
ATOM     11  N   UNL     1       5.030   4.269  16.403  0.00  0.00    +0.000 NA
ATOM     12  H   UNL     1       3.154   4.029  17.747  0.00  0.00    +0.000 HD
ENDBRANCH   2   3
BRANCH   1  16
ATOM     13  C   UNL     1       0.889   9.884  20.423  0.00  0.00    +0.000 A 
ATOM     14  C   UNL     1       1.209   8.723  21.131  0.00  0.00    +0.000 A 
ATOM     15  C   UNL     1       1.786   7.636  20.474  0.00  0.00    +0.000 A 
ATOM     16  C   UNL     1       2.038   7.700  19.099  0.00  0.00    +0.000 A 
ATOM     17  C   UNL     1       1.698   8.847  18.378  0.00  0.00    +0.000 A 
ATOM     18  C   UNL     1       1.119   9.935  19.042  0.00  0.00    +0.000 A 
BRANCH  13  20
ATOM     19  C   UNL     1      -0.610  10.453  22.656  0.00  0.00    +0.000 C 
ATOM     20  S   UNL     1       0.159  11.291  21.241  0.00  0.00    +0.000 S 
ENDBRANCH  13  20
ENDBRANCH   1  16
TORSDOF 3
ENDMDL
MODEL 5
REMARK VINA RESULT:      -6.6      3.272      7.853
REMARK  Name = 
REMARK  6 active torsions:
REMARK  status: ('A' for Active; 'I' for Inactive)
REMARK    1  A    between atoms: C_1  and  S_2
REMARK    2  A    between atoms: S_2  and  C_3
REMARK    3  A    between atoms: C_6  and  C_7
REMARK    4  A    between atoms: N_8  and  N_9
REMARK    5  A    between atoms: C_12  and  C_13
REMARK    6  A    between atoms: C_15  and  C_16
REMARK                            x       y       z     vdW  Elec       q    Type
REMARK                         _______ _______ _______ _____ _____    ______ ____
ROOT
ATOM      1  C   UNL     1       2.887   5.593  18.611  0.00  0.00    +0.000 C 
ATOM      2  N   UNL     1       2.967   6.589  19.432  0.00  0.00    +0.000 NA
ENDROOT
BRANCH   2   3
ATOM      3  N   UNL     1       1.971   6.669  20.363  0.00  0.00    +0.000 N 
ATOM      4  C   UNL     1       1.407   7.945  20.567  0.00  0.00    +0.000 A 
ATOM      5  N   UNL     1       1.340   8.824  19.549  0.00  0.00    +0.000 NA
ATOM      6  C   UNL     1       0.824  10.039  19.794  0.00  0.00    +0.000 A 
ATOM      7  C   UNL     1       0.770  11.000  18.647  0.00  0.00    +0.000 C 
ATOM      8  C   UNL     1       0.363  10.404  21.041  0.00  0.00    +0.000 A 
ATOM      9  C   UNL     1       0.452   9.447  22.031  0.00  0.00    +0.000 A 
ATOM     10  C   UNL     1      -0.018   9.745  23.423  0.00  0.00    +0.000 C 
ATOM     11  N   UNL     1       0.967   8.217  21.809  0.00  0.00    +0.000 NA
ATOM     12  H   UNL     1       2.135   6.281  21.287  0.00  0.00    +0.000 HD
ENDBRANCH   2   3
BRANCH   1  16
ATOM     13  C   UNL     1       5.831   5.043  15.557  0.00  0.00    +0.000 A 
ATOM     14  C   UNL     1       5.180   3.938  16.112  0.00  0.00    +0.000 A 
ATOM     15  C   UNL     1       4.221   4.115  17.111  0.00  0.00    +0.000 A 
ATOM     16  C   UNL     1       3.914   5.401  17.567  0.00  0.00    +0.000 A 
ATOM     17  C   UNL     1       4.576   6.510  17.035  0.00  0.00    +0.000 A 
ATOM     18  C   UNL     1       5.538   6.326  16.034  0.00  0.00    +0.000 A 
BRANCH  13  20
ATOM     19  C   UNL     1       6.140   3.743  13.155  0.00  0.00    +0.000 C 
ATOM     20  S   UNL     1       7.053   4.843  14.273  0.00  0.00    +0.000 S 
ENDBRANCH  13  20
ENDBRANCH   1  16
TORSDOF 3
ENDMDL
MODEL 6
REMARK VINA RESULT:      -6.6      3.270      7.813
REMARK  Name = 
REMARK  6 active torsions:
REMARK  status: ('A' for Active; 'I' for Inactive)
REMARK    1  A    between atoms: C_1  and  S_2
REMARK    2  A    between atoms: S_2  and  C_3
REMARK    3  A    between atoms: C_6  and  C_7
REMARK    4  A    between atoms: N_8  and  N_9
REMARK    5  A    between atoms: C_12  and  C_13
REMARK    6  A    between atoms: C_15  and  C_16
REMARK                            x       y       z     vdW  Elec       q    Type
REMARK                         _______ _______ _______ _____ _____    ______ ____
ROOT
ATOM      1  C   UNL     1       2.662   5.777  18.765  0.00  0.00    +0.000 C 
ATOM      2  N   UNL     1       2.794   6.711  19.650  0.00  0.00    +0.000 NA
ENDROOT
BRANCH   2   3
ATOM      3  N   UNL     1       1.768   6.827  20.544  0.00  0.00    +0.000 N 
ATOM      4  C   UNL     1       1.201   8.111  20.682  0.00  0.00    +0.000 A 
ATOM      5  N   UNL     1       1.169   8.951  19.630  0.00  0.00    +0.000 NA
ATOM      6  C   UNL     1       0.648  10.175  19.812  0.00  0.00    +0.000 A 
ATOM      7  C   UNL     1       0.634  11.092  18.629  0.00  0.00    +0.000 C 
ATOM      8  C   UNL     1       0.148  10.587  21.029  0.00  0.00    +0.000 A 
ATOM      9  C   UNL     1       0.202   9.667  22.056  0.00  0.00    +0.000 A 
ATOM     10  C   UNL     1      -0.311  10.018  23.420  0.00  0.00    +0.000 C 
ATOM     11  N   UNL     1       0.721   8.429  21.897  0.00  0.00    +0.000 NA
ATOM     12  H   UNL     1       1.901   6.473  21.486  0.00  0.00    +0.000 HD
ENDBRANCH   2   3
BRANCH   1  16
ATOM     13  C   UNL     1       5.737   5.124  15.864  0.00  0.00    +0.000 A 
ATOM     14  C   UNL     1       5.447   6.420  16.301  0.00  0.00    +0.000 A 
ATOM     15  C   UNL     1       4.442   6.635  17.245  0.00  0.00    +0.000 A 
ATOM     16  C   UNL     1       3.713   5.553  17.752  0.00  0.00    +0.000 A 
ATOM     17  C   UNL     1       3.980   4.258  17.304  0.00  0.00    +0.000 A 
ATOM     18  C   UNL     1       4.989   4.048  16.357  0.00  0.00    +0.000 A 
BRANCH  13  20
ATOM     19  C   UNL     1       6.092   3.827  13.467  0.00  0.00    +0.000 C 
ATOM     20  S   UNL     1       7.023   4.822  14.665  0.00  0.00    +0.000 S 
ENDBRANCH  13  20
ENDBRANCH   1  16
TORSDOF 3
ENDMDL
MODEL 7
REMARK VINA RESULT:      -6.5      0.900      1.076
REMARK  Name = 
REMARK  6 active torsions:
REMARK  status: ('A' for Active; 'I' for Inactive)
REMARK    1  A    between atoms: C_1  and  S_2
REMARK    2  A    between atoms: S_2  and  C_3
REMARK    3  A    between atoms: C_6  and  C_7
REMARK    4  A    between atoms: N_8  and  N_9
REMARK    5  A    between atoms: C_12  and  C_13
REMARK    6  A    between atoms: C_15  and  C_16
REMARK                            x       y       z     vdW  Elec       q    Type
REMARK                         _______ _______ _______ _____ _____    ______ ____
ROOT
ATOM      1  C   UNL     1       2.473   6.890  18.322  0.00  0.00    +0.000 C 
ATOM      2  N   UNL     1       3.131   6.044  19.048  0.00  0.00    +0.000 NA
ENDROOT
BRANCH   2   3
ATOM      3  N   UNL     1       3.638   4.965  18.382  0.00  0.00    +0.000 N 
ATOM      4  C   UNL     1       4.794   5.196  17.607  0.00  0.00    +0.000 A 
ATOM      5  N   UNL     1       5.684   6.133  17.984  0.00  0.00    +0.000 NA
ATOM      6  C   UNL     1       6.754   6.342  17.201  0.00  0.00    +0.000 A 
ATOM      7  C   UNL     1       7.723   7.396  17.639  0.00  0.00    +0.000 C 
ATOM      8  C   UNL     1       6.965   5.630  16.040  0.00  0.00    +0.000 A 
ATOM      9  C   UNL     1       6.018   4.677  15.725  0.00  0.00    +0.000 A 
ATOM     10  C   UNL     1       6.152   3.851  14.481  0.00  0.00    +0.000 C 
ATOM     11  N   UNL     1       4.933   4.448  16.498  0.00  0.00    +0.000 NA
ATOM     12  H   UNL     1       3.015   4.412  17.803  0.00  0.00    +0.000 HD
ENDBRANCH   2   3
BRANCH   1  16
ATOM     13  C   UNL     1       0.733  10.378  20.084  0.00  0.00    +0.000 A 
ATOM     14  C   UNL     1       1.075  10.371  18.728  0.00  0.00    +0.000 A 
ATOM     15  C   UNL     1       1.645   9.235  18.153  0.00  0.00    +0.000 A 
ATOM     16  C   UNL     1       1.886   8.099  18.933  0.00  0.00    +0.000 A 
ATOM     17  C   UNL     1       1.570   8.105  20.294  0.00  0.00    +0.000 A 
ATOM     18  C   UNL     1       0.999   9.248  20.866  0.00  0.00    +0.000 A 
BRANCH  13  20
ATOM     19  C   UNL     1      -0.973  12.433  19.435  0.00  0.00    +0.000 C 
ATOM     20  S   UNL     1      -0.005  11.814  20.840  0.00  0.00    +0.000 S 
ENDBRANCH  13  20
ENDBRANCH   1  16
TORSDOF 3
ENDMDL
MODEL 8
REMARK VINA RESULT:      -6.4      1.909      2.836
REMARK  Name = 
REMARK  6 active torsions:
REMARK  status: ('A' for Active; 'I' for Inactive)
REMARK    1  A    between atoms: C_1  and  S_2
REMARK    2  A    between atoms: S_2  and  C_3
REMARK    3  A    between atoms: C_6  and  C_7
REMARK    4  A    between atoms: N_8  and  N_9
REMARK    5  A    between atoms: C_12  and  C_13
REMARK    6  A    between atoms: C_15  and  C_16
REMARK                            x       y       z     vdW  Elec       q    Type
REMARK                         _______ _______ _______ _____ _____    ______ ____
ROOT
ATOM      1  C   UNL     1       1.421   7.766  20.910  0.00  0.00    +0.000 C 
ATOM      2  N   UNL     1       2.177   7.277  19.981  0.00  0.00    +0.000 NA
ENDROOT
BRANCH   2   3
ATOM      3  N   UNL     1       2.666   6.024  20.218  0.00  0.00    +0.000 N 
ATOM      4  C   UNL     1       3.257   5.366  19.119  0.00  0.00    +0.000 A 
ATOM      5  N   UNL     1       3.885   6.078  18.164  0.00  0.00    +0.000 NA
ATOM      6  C   UNL     1       4.407   5.415  17.120  0.00  0.00    +0.000 A 
ATOM      7  C   UNL     1       5.090   6.231  16.067  0.00  0.00    +0.000 C 
ATOM      8  C   UNL     1       4.322   4.044  17.003  0.00  0.00    +0.000 A 
ATOM      9  C   UNL     1       3.677   3.381  18.027  0.00  0.00    +0.000 A 
ATOM     10  C   UNL     1       3.527   1.890  17.994  0.00  0.00    +0.000 C 
ATOM     11  N   UNL     1       3.144   4.026  19.089  0.00  0.00    +0.000 NA
ATOM     12  H   UNL     1       2.063   5.342  20.666  0.00  0.00    +0.000 HD
ENDBRANCH   2   3
BRANCH   1  16
ATOM     13  C   UNL     1      -0.336  11.641  20.464  0.00  0.00    +0.000 A 
ATOM     14  C   UNL     1       0.194  10.979  19.354  0.00  0.00    +0.000 A 
ATOM     15  C   UNL     1       0.770   9.716  19.498  0.00  0.00    +0.000 A 
ATOM     16  C   UNL     1       0.828   9.111  20.758  0.00  0.00    +0.000 A 
ATOM     17  C   UNL     1       0.322   9.775  21.877  0.00  0.00    +0.000 A 
ATOM     18  C   UNL     1      -0.254  11.042  21.728  0.00  0.00    +0.000 A 
BRANCH  13  20
ATOM     19  C   UNL     1      -2.833  12.766  20.237  0.00  0.00    +0.000 C 
ATOM     20  S   UNL     1      -1.086  13.252  20.305  0.00  0.00    +0.000 S 
ENDBRANCH  13  20
ENDBRANCH   1  16
TORSDOF 3
ENDMDL
MODEL 9
REMARK VINA RESULT:      -6.4      1.890      2.983
REMARK  Name = 
REMARK  6 active torsions:
REMARK  status: ('A' for Active; 'I' for Inactive)
REMARK    1  A    between atoms: C_1  and  S_2
REMARK    2  A    between atoms: S_2  and  C_3
REMARK    3  A    between atoms: C_6  and  C_7
REMARK    4  A    between atoms: N_8  and  N_9
REMARK    5  A    between atoms: C_12  and  C_13
REMARK    6  A    between atoms: C_15  and  C_16
REMARK                            x       y       z     vdW  Elec       q    Type
REMARK                         _______ _______ _______ _____ _____    ______ ____
ROOT
ATOM      1  C   UNL     1       1.442   7.666  20.920  0.00  0.00    +0.000 C 
ATOM      2  N   UNL     1       2.194   7.178  19.987  0.00  0.00    +0.000 NA
ENDROOT
BRANCH   2   3
ATOM      3  N   UNL     1       2.706   5.936  20.230  0.00  0.00    +0.000 N 
ATOM      4  C   UNL     1       3.297   5.277  19.132  0.00  0.00    +0.000 A 
ATOM      5  N   UNL     1       3.904   5.990  18.164  0.00  0.00    +0.000 NA
ATOM      6  C   UNL     1       4.427   5.326  17.121  0.00  0.00    +0.000 A 
ATOM      7  C   UNL     1       5.088   6.143  16.055  0.00  0.00    +0.000 C 
ATOM      8  C   UNL     1       4.363   3.953  17.017  0.00  0.00    +0.000 A 
ATOM      9  C   UNL     1       3.738   3.289  18.054  0.00  0.00    +0.000 A 
ATOM     10  C   UNL     1       3.612   1.795  18.035  0.00  0.00    +0.000 C 
ATOM     11  N   UNL     1       3.205   3.935  19.115  0.00  0.00    +0.000 NA
ATOM     12  H   UNL     1       2.117   5.248  20.690  0.00  0.00    +0.000 HD
ENDBRANCH   2   3
BRANCH   1  16
ATOM     13  C   UNL     1      -0.301  11.546  20.472  0.00  0.00    +0.000 A 
ATOM     14  C   UNL     1      -0.356  10.890  21.705  0.00  0.00    +0.000 A 
ATOM     15  C   UNL     1       0.210   9.622  21.852  0.00  0.00    +0.000 A 
ATOM     16  C   UNL     1       0.827   8.999  20.762  0.00  0.00    +0.000 A 
ATOM     17  C   UNL     1       0.865   9.637  19.520  0.00  0.00    +0.000 A 
ATOM     18  C   UNL     1       0.296  10.908  19.378  0.00  0.00    +0.000 A 
BRANCH  13  20
ATOM     19  C   UNL     1      -2.768  12.728  20.200  0.00  0.00    +0.000 C 
ATOM     20  S   UNL     1      -1.009  13.170  20.261  0.00  0.00    +0.000 S 
ENDBRANCH  13  20
ENDBRANCH   1  16
TORSDOF 3
ENDMDL
