MODEL 1
REMARK VINA RESULT:      -9.0      0.000      0.000
REMARK  Name = 
REMARK  8 active torsions:
REMARK  status: ('A' for Active; 'I' for Inactive)
REMARK    1  A    between atoms: C_1  and  C_2
REMARK    2  A    between atoms: C_5  and  C_6
REMARK    3  A    between atoms: C_7  and  C_8
REMARK    4  A    between atoms: C_16  and  C_17
REMARK    5  A    between atoms: C_16  and  C_29
REMARK    6  A    between atoms: C_20  and  O_21
REMARK    7  A    between atoms: O_21  and  C_22
REMARK    8  A    between atoms: C_22  and  C_23
REMARK                            x       y       z     vdW  Elec       q    Type
REMARK                         _______ _______ _______ _____ _____    ______ ____
ROOT
ATOM      1  C   UNL     1       5.359   4.352  16.368  0.00  0.00    +0.000 C 
ATOM      2  C   UNL     1       6.163   4.876  17.333  0.00  0.00    +0.000 C 
ATOM      3  C   UNL     1       5.533   4.590  18.640  0.00  0.00    +0.000 C 
ATOM      4  O   UNL     1       5.784   3.603  19.307  0.00  0.00    +0.000 OA
ATOM      5  N   UNL     1       4.415   5.370  18.750  0.00  0.00    +0.000 N 
ATOM      6  C   UNL     1       3.193   4.669  18.358  0.00  0.00    +0.000 C 
ATOM      7  C   UNL     1       3.812   4.206  16.759  0.00  0.00    +0.000 C 
ATOM      8  H   UNL     1       4.492   6.234  18.214  0.00  0.00    +0.000 HD
ENDROOT
BRANCH   1  13
ATOM      9  C   UNL     1       7.548   3.518  10.903  0.00  0.00    +0.000 C 
ATOM     10  C   UNL     1       6.973   3.785  12.268  0.00  0.00    +0.000 A 
ATOM     11  C   UNL     1       5.726   3.294  12.635  0.00  0.00    +0.000 A 
ATOM     12  C   UNL     1       5.218   3.527  13.931  0.00  0.00    +0.000 A 
ATOM     13  C   UNL     1       5.938   4.210  14.955  0.00  0.00    +0.000 A 
ATOM     14  C   UNL     1       7.159   4.752  14.537  0.00  0.00    +0.000 A 
ATOM     15  C   UNL     1       7.660   4.547  13.221  0.00  0.00    +0.000 A 
ENDBRANCH   1  13
BRANCH   2  16
ATOM     16  C   UNL     1       6.544   6.228  17.093  0.00  0.00    +0.000 A 
ATOM     17  N   UNL     1       5.770   7.274  16.818  0.00  0.00    +0.000 NA
ATOM     18  N   UNL     1       6.587   8.369  16.896  0.00  0.00    +0.000 NA
ATOM     19  N   UNL     1       7.823   8.022  17.215  0.00  0.00    +0.000 NA
ATOM     20  N   UNL     1       7.796   6.688  17.330  0.00  0.00    +0.000 N 
ATOM     21  H   UNL     1       8.636   6.194  17.604  0.00  0.00    +0.000 HD
ENDBRANCH   2  16
BRANCH   6  22
ATOM     22  C   UNL     1       2.546   6.003  19.195  0.00  0.00    +0.000 A 
ATOM     23  C   UNL     1       1.935   5.925  20.463  0.00  0.00    +0.000 A 
ATOM     24  C   UNL     1       1.385   7.066  21.083  0.00  0.00    +0.000 A 
ATOM     25  C   UNL     1       1.413   8.321  20.465  0.00  0.00    +0.000 A 
ATOM     26  C   UNL     1       1.921   8.405  19.167  0.00  0.00    +0.000 A 
ATOM     27  C   UNL     1       2.481   7.274  18.534  0.00  0.00    +0.000 A 
BRANCH  25  28
ATOM     28  O   UNL     1       0.977   9.498  21.027  0.00  0.00    +0.000 OA
BRANCH  28  29
ATOM     29  C   UNL     1       1.178   9.639  22.447  0.00  0.00    +0.000 C 
BRANCH  29  30
ATOM     30  C   UNL     1      -0.112   9.566  23.269  0.00  0.00    +0.000 C 
ATOM     31  F   UNL     1      -1.007   8.673  22.802  0.00  0.00    +0.000 F 
ATOM     32  F   UNL     1       0.169   9.221  24.551  0.00  0.00    +0.000 F 
ATOM     33  F   UNL     1      -0.725  10.775  23.314  0.00  0.00    +0.000 F 
ENDBRANCH  29  30
ENDBRANCH  28  29
ENDBRANCH  25  28
ENDBRANCH   6  22
BRANCH   6  34
ATOM     34  C   UNL     1       1.656   4.459  17.908  0.00  0.00    +0.000 C 
ATOM     35  F   UNL     1       1.145   5.556  17.282  0.00  0.00    +0.000 F 
ATOM     36  F   UNL     1       1.562   3.456  16.989  0.00  0.00    +0.000 F 
ATOM     37  F   UNL     1       0.789   4.096  18.883  0.00  0.00    +0.000 F 
ENDBRANCH   6  34
TORSDOF 7
ENDMDL
MODEL 2
REMARK VINA RESULT:      -8.8      1.363      1.750
REMARK  Name = 
REMARK  8 active torsions:
REMARK  status: ('A' for Active; 'I' for Inactive)
REMARK    1  A    between atoms: C_1  and  C_2
REMARK    2  A    between atoms: C_5  and  C_6
REMARK    3  A    between atoms: C_7  and  C_8
REMARK    4  A    between atoms: C_16  and  C_17
REMARK    5  A    between atoms: C_16  and  C_29
REMARK    6  A    between atoms: C_20  and  O_21
REMARK    7  A    between atoms: O_21  and  C_22
REMARK    8  A    between atoms: C_22  and  C_23
REMARK                            x       y       z     vdW  Elec       q    Type
REMARK                         _______ _______ _______ _____ _____    ______ ____
ROOT
ATOM      1  C   UNL     1       5.321   4.341  16.477  0.00  0.00    +0.000 C 
ATOM      2  C   UNL     1       6.139   4.864  17.431  0.00  0.00    +0.000 C 
ATOM      3  C   UNL     1       5.537   4.562  18.747  0.00  0.00    +0.000 C 
ATOM      4  O   UNL     1       5.809   3.571  19.402  0.00  0.00    +0.000 OA
ATOM      5  N   UNL     1       4.415   5.331  18.886  0.00  0.00    +0.000 N 
ATOM      6  C   UNL     1       3.192   4.624  18.511  0.00  0.00    +0.000 C 
ATOM      7  C   UNL     1       3.783   4.179  16.897  0.00  0.00    +0.000 C 
ATOM      8  H   UNL     1       4.474   6.200  18.356  0.00  0.00    +0.000 HD
ENDROOT
BRANCH   1  13
ATOM      9  C   UNL     1       7.499   4.138  10.948  0.00  0.00    +0.000 C 
ATOM     10  C   UNL     1       6.975   4.135  12.359  0.00  0.00    +0.000 A 
ATOM     11  C   UNL     1       7.641   4.800  13.380  0.00  0.00    +0.000 A 
ATOM     12  C   UNL     1       7.115   4.813  14.690  0.00  0.00    +0.000 A 
ATOM     13  C   UNL     1       5.873   4.215  15.052  0.00  0.00    +0.000 A 
ATOM     14  C   UNL     1       5.258   3.494  14.021  0.00  0.00    +0.000 A 
ATOM     15  C   UNL     1       5.801   3.453  12.707  0.00  0.00    +0.000 A 
ENDBRANCH   1  13
BRANCH   2  16
ATOM     16  C   UNL     1       6.504   6.221  17.196  0.00  0.00    +0.000 A 
ATOM     17  N   UNL     1       5.721   7.253  16.895  0.00  0.00    +0.000 NA
ATOM     18  N   UNL     1       6.517   8.361  16.989  0.00  0.00    +0.000 NA
ATOM     19  N   UNL     1       7.750   8.037  17.343  0.00  0.00    +0.000 NA
ATOM     20  N   UNL     1       7.742   6.703  17.463  0.00  0.00    +0.000 N 
ATOM     21  H   UNL     1       8.582   6.223  17.762  0.00  0.00    +0.000 HD
ENDBRANCH   2  16
BRANCH   6  22
ATOM     22  C   UNL     1       2.549   5.945  19.372  0.00  0.00    +0.000 A 
ATOM     23  C   UNL     1       1.910   5.842  20.624  0.00  0.00    +0.000 A 
ATOM     24  C   UNL     1       1.366   6.975  21.264  0.00  0.00    +0.000 A 
ATOM     25  C   UNL     1       1.430   8.246  20.683  0.00  0.00    +0.000 A 
ATOM     26  C   UNL     1       1.967   8.358  19.399  0.00  0.00    +0.000 A 
ATOM     27  C   UNL     1       2.521   7.234  18.746  0.00  0.00    +0.000 A 
BRANCH  25  28
ATOM     28  O   UNL     1       1.002   9.415  21.269  0.00  0.00    +0.000 OA
BRANCH  28  29
ATOM     29  C   UNL     1      -0.391   9.740  21.100  0.00  0.00    +0.000 C 
BRANCH  29  30
ATOM     30  C   UNL     1      -0.676  10.660  19.911  0.00  0.00    +0.000 C 
ATOM     31  F   UNL     1       0.371  11.428  19.549  0.00  0.00    +0.000 F 
ATOM     32  F   UNL     1      -1.029   9.926  18.825  0.00  0.00    +0.000 F 
ATOM     33  F   UNL     1      -1.717  11.487  20.179  0.00  0.00    +0.000 F 
ENDBRANCH  29  30
ENDBRANCH  28  29
ENDBRANCH  25  28
ENDBRANCH   6  22
BRANCH   6  34
ATOM     34  C   UNL     1       1.648   4.404  18.090  0.00  0.00    +0.000 C 
ATOM     35  F   UNL     1       1.170   5.423  17.322  0.00  0.00    +0.000 F 
ATOM     36  F   UNL     1       1.521   3.290  17.312  0.00  0.00    +0.000 F 
ATOM     37  F   UNL     1       0.772   4.201  19.102  0.00  0.00    +0.000 F 
ENDBRANCH   6  34
TORSDOF 7
ENDMDL
MODEL 3
REMARK VINA RESULT:      -8.8      1.331      1.665
REMARK  Name = 
REMARK  8 active torsions:
REMARK  status: ('A' for Active; 'I' for Inactive)
REMARK    1  A    between atoms: C_1  and  C_2
REMARK    2  A    between atoms: C_5  and  C_6
REMARK    3  A    between atoms: C_7  and  C_8
REMARK    4  A    between atoms: C_16  and  C_17
REMARK    5  A    between atoms: C_16  and  C_29
REMARK    6  A    between atoms: C_20  and  O_21
REMARK    7  A    between atoms: O_21  and  C_22
REMARK    8  A    between atoms: C_22  and  C_23
REMARK                            x       y       z     vdW  Elec       q    Type
REMARK                         _______ _______ _______ _____ _____    ______ ____
ROOT
ATOM      1  C   UNL     1       5.336   4.371  16.435  0.00  0.00    +0.000 C 
ATOM      2  C   UNL     1       6.151   4.874  17.401  0.00  0.00    +0.000 C 
ATOM      3  C   UNL     1       5.529   4.571  18.708  0.00  0.00    +0.000 C 
ATOM      4  O   UNL     1       5.780   3.572  19.358  0.00  0.00    +0.000 OA
ATOM      5  N   UNL     1       4.417   5.355  18.840  0.00  0.00    +0.000 N 
ATOM      6  C   UNL     1       3.188   4.668  18.446  0.00  0.00    +0.000 C 
ATOM      7  C   UNL     1       3.791   4.227  16.836  0.00  0.00    +0.000 C 
ATOM      8  H   UNL     1       4.494   6.227  18.318  0.00  0.00    +0.000 HD
ENDROOT
BRANCH   1  13
ATOM      9  C   UNL     1       7.478   3.612  10.940  0.00  0.00    +0.000 C 
ATOM     10  C   UNL     1       6.914   3.860  12.313  0.00  0.00    +0.000 A 
ATOM     11  C   UNL     1       5.668   3.370  12.683  0.00  0.00    +0.000 A 
ATOM     12  C   UNL     1       5.171   3.585  13.987  0.00  0.00    +0.000 A 
ATOM     13  C   UNL     1       5.903   4.248  15.015  0.00  0.00    +0.000 A 
ATOM     14  C   UNL     1       7.124   4.790  14.596  0.00  0.00    +0.000 A 
ATOM     15  C   UNL     1       7.613   4.602  13.273  0.00  0.00    +0.000 A 
ENDBRANCH   1  13
BRANCH   2  16
ATOM     16  C   UNL     1       6.537   6.228  17.180  0.00  0.00    +0.000 A 
ATOM     17  N   UNL     1       5.774   7.270  16.864  0.00  0.00    +0.000 NA
ATOM     18  N   UNL     1       6.580   8.369  16.982  0.00  0.00    +0.000 NA
ATOM     19  N   UNL     1       7.800   8.029  17.366  0.00  0.00    +0.000 NA
ATOM     20  N   UNL     1       7.773   6.694  17.481  0.00  0.00    +0.000 N 
ATOM     21  H   UNL     1       8.600   6.204  17.799  0.00  0.00    +0.000 HD
ENDBRANCH   2  16
BRANCH   6  22
ATOM     22  C   UNL     1       2.554   5.992  19.310  0.00  0.00    +0.000 A 
ATOM     23  C   UNL     1       1.929   5.893  20.569  0.00  0.00    +0.000 A 
ATOM     24  C   UNL     1       1.392   7.027  21.211  0.00  0.00    +0.000 A 
ATOM     25  C   UNL     1       1.448   8.296  20.625  0.00  0.00    +0.000 A 
ATOM     26  C   UNL     1       1.972   8.404  19.335  0.00  0.00    +0.000 A 
ATOM     27  C   UNL     1       2.519   7.279  18.680  0.00  0.00    +0.000 A 
BRANCH  25  28
ATOM     28  O   UNL     1       1.026   9.467  21.212  0.00  0.00    +0.000 OA
BRANCH  28  29
ATOM     29  C   UNL     1      -0.381   9.759  21.113  0.00  0.00    +0.000 C 
BRANCH  29  30
ATOM     30  C   UNL     1      -0.745  10.680  19.946  0.00  0.00    +0.000 C 
ATOM     31  F   UNL     1       0.303  11.357  19.436  0.00  0.00    +0.000 F 
ATOM     32  F   UNL     1      -1.289   9.959  18.933  0.00  0.00    +0.000 F 
ATOM     33  F   UNL     1      -1.676  11.591  20.323  0.00  0.00    +0.000 F 
ENDBRANCH  29  30
ENDBRANCH  28  29
ENDBRANCH  25  28
ENDBRANCH   6  22
BRANCH   6  34
ATOM     34  C   UNL     1       1.646   4.473  18.006  0.00  0.00    +0.000 C 
ATOM     35  F   UNL     1       1.466   3.375  17.220  0.00  0.00    +0.000 F 
ATOM     36  F   UNL     1       0.863   4.253  19.101  0.00  0.00    +0.000 F 
ATOM     37  F   UNL     1       1.060   5.527  17.388  0.00  0.00    +0.000 F 
ENDBRANCH   6  34
TORSDOF 7
ENDMDL
MODEL 4
REMARK VINA RESULT:      -8.7      1.393      1.559
REMARK  Name = 
REMARK  8 active torsions:
REMARK  status: ('A' for Active; 'I' for Inactive)
REMARK    1  A    between atoms: C_1  and  C_2
REMARK    2  A    between atoms: C_5  and  C_6
REMARK    3  A    between atoms: C_7  and  C_8
REMARK    4  A    between atoms: C_16  and  C_17
REMARK    5  A    between atoms: C_16  and  C_29
REMARK    6  A    between atoms: C_20  and  O_21
REMARK    7  A    between atoms: O_21  and  C_22
REMARK    8  A    between atoms: C_22  and  C_23
REMARK                            x       y       z     vdW  Elec       q    Type
REMARK                         _______ _______ _______ _____ _____    ______ ____
ROOT
ATOM      1  C   UNL     1       5.341   4.353  16.454  0.00  0.00    +0.000 C 
ATOM      2  C   UNL     1       6.151   4.874  17.416  0.00  0.00    +0.000 C 
ATOM      3  C   UNL     1       5.542   4.561  18.727  0.00  0.00    +0.000 C 
ATOM      4  O   UNL     1       5.816   3.568  19.377  0.00  0.00    +0.000 OA
ATOM      5  N   UNL     1       4.416   5.324  18.864  0.00  0.00    +0.000 N 
ATOM      6  C   UNL     1       3.198   4.612  18.477  0.00  0.00    +0.000 C 
ATOM      7  C   UNL     1       3.802   4.180  16.863  0.00  0.00    +0.000 C 
ATOM      8  H   UNL     1       4.473   6.196  18.339  0.00  0.00    +0.000 HD
ENDROOT
BRANCH   1  13
ATOM      9  C   UNL     1       7.467   3.629  10.948  0.00  0.00    +0.000 C 
ATOM     10  C   UNL     1       6.907   3.868  12.325  0.00  0.00    +0.000 A 
ATOM     11  C   UNL     1       5.668   3.363  12.699  0.00  0.00    +0.000 A 
ATOM     12  C   UNL     1       5.175   3.571  14.006  0.00  0.00    +0.000 A 
ATOM     13  C   UNL     1       5.903   4.239  15.032  0.00  0.00    +0.000 A 
ATOM     14  C   UNL     1       7.116   4.796  14.608  0.00  0.00    +0.000 A 
ATOM     15  C   UNL     1       7.602   4.617  13.283  0.00  0.00    +0.000 A 
ENDBRANCH   1  13
BRANCH   2  16
ATOM     16  C   UNL     1       6.511   6.235  17.191  0.00  0.00    +0.000 A 
ATOM     17  N   UNL     1       5.720   7.270  16.920  0.00  0.00    +0.000 NA
ATOM     18  N   UNL     1       6.518   8.378  17.013  0.00  0.00    +0.000 NA
ATOM     19  N   UNL     1       7.757   8.050  17.337  0.00  0.00    +0.000 NA
ATOM     20  N   UNL     1       7.753   6.714  17.441  0.00  0.00    +0.000 N 
ATOM     21  H   UNL     1       8.599   6.232  17.716  0.00  0.00    +0.000 HD
ENDBRANCH   2  16
BRANCH   6  22
ATOM     22  C   UNL     1       2.544   5.925  19.342  0.00  0.00    +0.000 A 
ATOM     23  C   UNL     1       1.918   5.814  20.600  0.00  0.00    +0.000 A 
ATOM     24  C   UNL     1       1.363   6.939  21.244  0.00  0.00    +0.000 A 
ATOM     25  C   UNL     1       1.401   8.210  20.660  0.00  0.00    +0.000 A 
ATOM     26  C   UNL     1       1.925   8.328  19.370  0.00  0.00    +0.000 A 
ATOM     27  C   UNL     1       2.489   7.212  18.714  0.00  0.00    +0.000 A 
BRANCH  25  28
ATOM     28  O   UNL     1       0.961   9.373  21.248  0.00  0.00    +0.000 OA
BRANCH  28  29
ATOM     29  C   UNL     1      -0.205   9.983  20.662  0.00  0.00    +0.000 C 
BRANCH  29  30
ATOM     30  C   UNL     1       0.055  11.361  20.048  0.00  0.00    +0.000 C 
ATOM     31  F   UNL     1      -0.972  12.223  20.186  0.00  0.00    +0.000 F 
ATOM     32  F   UNL     1       1.141  11.934  20.628  0.00  0.00    +0.000 F 
ATOM     33  F   UNL     1       0.328  11.257  18.724  0.00  0.00    +0.000 F 
ENDBRANCH  29  30
ENDBRANCH  28  29
ENDBRANCH  25  28
ENDBRANCH   6  22
BRANCH   6  34
ATOM     34  C   UNL     1       1.658   4.387  18.044  0.00  0.00    +0.000 C 
ATOM     35  F   UNL     1       1.149   5.453  17.366  0.00  0.00    +0.000 F 
ATOM     36  F   UNL     1       1.556   3.339  17.177  0.00  0.00    +0.000 F 
ATOM     37  F   UNL     1       0.794   4.077  19.040  0.00  0.00    +0.000 F 
ENDBRANCH   6  34
TORSDOF 7
ENDMDL
MODEL 5
REMARK VINA RESULT:      -8.6      0.539      1.268
REMARK  Name = 
REMARK  8 active torsions:
REMARK  status: ('A' for Active; 'I' for Inactive)
REMARK    1  A    between atoms: C_1  and  C_2
REMARK    2  A    between atoms: C_5  and  C_6
REMARK    3  A    between atoms: C_7  and  C_8
REMARK    4  A    between atoms: C_16  and  C_17
REMARK    5  A    between atoms: C_16  and  C_29
REMARK    6  A    between atoms: C_20  and  O_21
REMARK    7  A    between atoms: O_21  and  C_22
REMARK    8  A    between atoms: C_22  and  C_23
REMARK                            x       y       z     vdW  Elec       q    Type
REMARK                         _______ _______ _______ _____ _____    ______ ____
ROOT
ATOM      1  C   UNL     1       5.346   4.304  16.399  0.00  0.00    +0.000 C 
ATOM      2  C   UNL     1       6.150   4.834  17.361  0.00  0.00    +0.000 C 
ATOM      3  C   UNL     1       5.547   4.510  18.672  0.00  0.00    +0.000 C 
ATOM      4  O   UNL     1       5.833   3.520  19.320  0.00  0.00    +0.000 OA
ATOM      5  N   UNL     1       4.410   5.258  18.811  0.00  0.00    +0.000 N 
ATOM      6  C   UNL     1       3.202   4.532  18.424  0.00  0.00    +0.000 C 
ATOM      7  C   UNL     1       3.810   4.110  16.809  0.00  0.00    +0.000 C 
ATOM      8  H   UNL     1       4.456   6.132  18.288  0.00  0.00    +0.000 HD
ENDROOT
BRANCH   1  13
ATOM      9  C   UNL     1       7.553   4.186  10.879  0.00  0.00    +0.000 C 
ATOM     10  C   UNL     1       7.023   4.161  12.288  0.00  0.00    +0.000 A 
ATOM     11  C   UNL     1       7.665   4.843  13.313  0.00  0.00    +0.000 A 
ATOM     12  C   UNL     1       7.133   4.835  14.621  0.00  0.00    +0.000 A 
ATOM     13  C   UNL     1       5.908   4.200  14.976  0.00  0.00    +0.000 A 
ATOM     14  C   UNL     1       5.319   3.464  13.940  0.00  0.00    +0.000 A 
ATOM     15  C   UNL     1       5.869   3.444  12.628  0.00  0.00    +0.000 A 
ENDBRANCH   1  13
BRANCH   2  16
ATOM     16  C   UNL     1       6.492   6.199  17.138  0.00  0.00    +0.000 A 
ATOM     17  N   UNL     1       5.688   7.225  16.873  0.00  0.00    +0.000 NA
ATOM     18  N   UNL     1       6.472   8.343  16.966  0.00  0.00    +0.000 NA
ATOM     19  N   UNL     1       7.717   8.029  17.284  0.00  0.00    +0.000 NA
ATOM     20  N   UNL     1       7.729   6.693  17.384  0.00  0.00    +0.000 N 
ATOM     21  H   UNL     1       8.583   6.221  17.654  0.00  0.00    +0.000 HD
ENDBRANCH   2  16
BRANCH   6  22
ATOM     22  C   UNL     1       2.531   5.834  19.292  0.00  0.00    +0.000 A 
ATOM     23  C   UNL     1       1.881   5.709  20.537  0.00  0.00    +0.000 A 
ATOM     24  C   UNL     1       1.314   6.827  21.182  0.00  0.00    +0.000 A 
ATOM     25  C   UNL     1       1.364   8.104  20.615  0.00  0.00    +0.000 A 
ATOM     26  C   UNL     1       1.913   8.238  19.337  0.00  0.00    +0.000 A 
ATOM     27  C   UNL     1       2.490   7.129  18.679  0.00  0.00    +0.000 A 
BRANCH  25  28
ATOM     28  O   UNL     1       0.913   9.261  21.209  0.00  0.00    +0.000 OA
BRANCH  28  29
ATOM     29  C   UNL     1      -0.360   9.179  21.877  0.00  0.00    +0.000 C 
BRANCH  29  30
ATOM     30  C   UNL     1      -0.495  10.119  23.078  0.00  0.00    +0.000 C 
ATOM     31  F   UNL     1       0.180   9.709  24.171  0.00  0.00    +0.000 F 
ATOM     32  F   UNL     1      -0.031  11.354  22.760  0.00  0.00    +0.000 F 
ATOM     33  F   UNL     1      -1.796  10.267  23.431  0.00  0.00    +0.000 F 
ENDBRANCH  29  30
ENDBRANCH  28  29
ENDBRANCH  25  28
ENDBRANCH   6  22
BRANCH   6  34
ATOM     34  C   UNL     1       1.665   4.288  17.993  0.00  0.00    +0.000 C 
ATOM     35  F   UNL     1       1.499   3.129  17.295  0.00  0.00    +0.000 F 
ATOM     36  F   UNL     1       0.877   4.146  19.098  0.00  0.00    +0.000 F 
ATOM     37  F   UNL     1       1.072   5.283  17.291  0.00  0.00    +0.000 F 
ENDBRANCH   6  34
TORSDOF 7
ENDMDL
MODEL 6
REMARK VINA RESULT:      -8.6      1.239      1.612
REMARK  Name = 
REMARK  8 active torsions:
REMARK  status: ('A' for Active; 'I' for Inactive)
REMARK    1  A    between atoms: C_1  and  C_2
REMARK    2  A    between atoms: C_5  and  C_6
REMARK    3  A    between atoms: C_7  and  C_8
REMARK    4  A    between atoms: C_16  and  C_17
REMARK    5  A    between atoms: C_16  and  C_29
REMARK    6  A    between atoms: C_20  and  O_21
REMARK    7  A    between atoms: O_21  and  C_22
REMARK    8  A    between atoms: C_22  and  C_23
REMARK                            x       y       z     vdW  Elec       q    Type
REMARK                         _______ _______ _______ _____ _____    ______ ____
ROOT
ATOM      1  C   UNL     1       5.310   4.340  16.366  0.00  0.00    +0.000 C 
ATOM      2  C   UNL     1       6.111   4.846  17.344  0.00  0.00    +0.000 C 
ATOM      3  C   UNL     1       5.476   4.536  18.643  0.00  0.00    +0.000 C 
ATOM      4  O   UNL     1       5.725   3.537  19.293  0.00  0.00    +0.000 OA
ATOM      5  N   UNL     1       4.358   5.314  18.764  0.00  0.00    +0.000 N 
ATOM      6  C   UNL     1       3.137   4.620  18.354  0.00  0.00    +0.000 C 
ATOM      7  C   UNL     1       3.762   4.187  16.749  0.00  0.00    +0.000 C 
ATOM      8  H   UNL     1       4.436   6.187  18.245  0.00  0.00    +0.000 HD
ENDROOT
BRANCH   1  13
ATOM      9  C   UNL     1       7.519   3.608  10.895  0.00  0.00    +0.000 C 
ATOM     10  C   UNL     1       6.938   3.849  12.262  0.00  0.00    +0.000 A 
ATOM     11  C   UNL     1       5.692   3.348  12.617  0.00  0.00    +0.000 A 
ATOM     12  C   UNL     1       5.179   3.557  13.916  0.00  0.00    +0.000 A 
ATOM     13  C   UNL     1       5.893   4.224  14.953  0.00  0.00    +0.000 A 
ATOM     14  C   UNL     1       7.114   4.778  14.548  0.00  0.00    +0.000 A 
ATOM     15  C   UNL     1       7.620   4.597  13.231  0.00  0.00    +0.000 A 
ENDBRANCH   1  13
BRANCH   2  16
ATOM     16  C   UNL     1       6.493   6.203  17.131  0.00  0.00    +0.000 A 
ATOM     17  N   UNL     1       5.723   7.247  16.837  0.00  0.00    +0.000 NA
ATOM     18  N   UNL     1       6.530   8.345  16.954  0.00  0.00    +0.000 NA
ATOM     19  N   UNL     1       7.755   8.003  17.315  0.00  0.00    +0.000 NA
ATOM     20  N   UNL     1       7.732   6.667  17.417  0.00  0.00    +0.000 N 
ATOM     21  H   UNL     1       8.565   6.175  17.717  0.00  0.00    +0.000 HD
ENDBRANCH   2  16
BRANCH   6  22
ATOM     22  C   UNL     1       2.487   5.938  19.214  0.00  0.00    +0.000 A 
ATOM     23  C   UNL     1       2.515   7.274  18.762  0.00  0.00    +0.000 A 
ATOM     24  C   UNL     1       1.990   8.323  19.544  0.00  0.00    +0.000 A 
ATOM     25  C   UNL     1       1.428   8.088  20.803  0.00  0.00    +0.000 A 
ATOM     26  C   UNL     1       1.480   6.790  21.317  0.00  0.00    +0.000 A 
ATOM     27  C   UNL     1       1.997   5.727  20.544  0.00  0.00    +0.000 A 
BRANCH  25  28
ATOM     28  O   UNL     1       0.820   9.034  21.596  0.00  0.00    +0.000 OA
BRANCH  28  29
ATOM     29  C   UNL     1      -0.505   9.438  21.204  0.00  0.00    +0.000 C 
BRANCH  29  30
ATOM     30  C   UNL     1      -0.537  10.653  20.274  0.00  0.00    +0.000 C 
ATOM     31  F   UNL     1      -0.683  10.341  18.971  0.00  0.00    +0.000 F 
ATOM     32  F   UNL     1      -1.566  11.472  20.608  0.00  0.00    +0.000 F 
ATOM     33  F   UNL     1       0.600  11.383  20.395  0.00  0.00    +0.000 F 
ENDBRANCH  29  30
ENDBRANCH  28  29
ENDBRANCH  25  28
ENDBRANCH   6  22
BRANCH   6  34
ATOM     34  C   UNL     1       1.602   4.419  17.896  0.00  0.00    +0.000 C 
ATOM     35  F   UNL     1       1.086   5.533  17.308  0.00  0.00    +0.000 F 
ATOM     36  F   UNL     1       1.514   3.447  16.942  0.00  0.00    +0.000 F 
ATOM     37  F   UNL     1       0.736   4.017  18.857  0.00  0.00    +0.000 F 
ENDBRANCH   6  34
TORSDOF 7
ENDMDL
MODEL 7
REMARK VINA RESULT:      -8.4      1.109      1.823
REMARK  Name = 
REMARK  8 active torsions:
REMARK  status: ('A' for Active; 'I' for Inactive)
REMARK    1  A    between atoms: C_1  and  C_2
REMARK    2  A    between atoms: C_5  and  C_6
REMARK    3  A    between atoms: C_7  and  C_8
REMARK    4  A    between atoms: C_16  and  C_17
REMARK    5  A    between atoms: C_16  and  C_29
REMARK    6  A    between atoms: C_20  and  O_21
REMARK    7  A    between atoms: O_21  and  C_22
REMARK    8  A    between atoms: C_22  and  C_23
REMARK                            x       y       z     vdW  Elec       q    Type
REMARK                         _______ _______ _______ _____ _____    ______ ____
ROOT
ATOM      1  C   UNL     1       5.307   4.336  16.412  0.00  0.00    +0.000 C 
ATOM      2  C   UNL     1       6.099   4.862  17.387  0.00  0.00    +0.000 C 
ATOM      3  C   UNL     1       5.463   4.559  18.687  0.00  0.00    +0.000 C 
ATOM      4  O   UNL     1       5.721   3.570  19.349  0.00  0.00    +0.000 OA
ATOM      5  N   UNL     1       4.335   5.325  18.796  0.00  0.00    +0.000 N 
ATOM      6  C   UNL     1       3.124   4.613  18.389  0.00  0.00    +0.000 C 
ATOM      7  C   UNL     1       3.760   4.169  16.791  0.00  0.00    +0.000 C 
ATOM      8  H   UNL     1       4.405   6.194  18.267  0.00  0.00    +0.000 HD
ENDROOT
BRANCH   1  13
ATOM      9  C   UNL     1       7.622   4.138  10.939  0.00  0.00    +0.000 C 
ATOM     10  C   UNL     1       7.064   4.134  12.337  0.00  0.00    +0.000 A 
ATOM     11  C   UNL     1       7.683   4.837  13.364  0.00  0.00    +0.000 A 
ATOM     12  C   UNL     1       7.126   4.848  14.661  0.00  0.00    +0.000 A 
ATOM     13  C   UNL     1       5.897   4.211  15.002  0.00  0.00    +0.000 A 
ATOM     14  C   UNL     1       5.333   3.455  13.968  0.00  0.00    +0.000 A 
ATOM     15  C   UNL     1       5.908   3.416  12.667  0.00  0.00    +0.000 A 
ENDBRANCH   1  13
BRANCH   2  16
ATOM     16  C   UNL     1       6.466   6.220  17.160  0.00  0.00    +0.000 A 
ATOM     17  N   UNL     1       5.681   7.259  16.886  0.00  0.00    +0.000 NA
ATOM     18  N   UNL     1       6.484   8.363  16.978  0.00  0.00    +0.000 NA
ATOM     19  N   UNL     1       7.722   8.029  17.304  0.00  0.00    +0.000 NA
ATOM     20  N   UNL     1       7.710   6.693  17.409  0.00  0.00    +0.000 N 
ATOM     21  H   UNL     1       8.554   6.207  17.686  0.00  0.00    +0.000 HD
ENDBRANCH   2  16
BRANCH   6  22
ATOM     22  C   UNL     1       2.456   5.933  19.232  0.00  0.00    +0.000 A 
ATOM     23  C   UNL     1       2.460   7.262  18.760  0.00  0.00    +0.000 A 
ATOM     24  C   UNL     1       1.921   8.314  19.528  0.00  0.00    +0.000 A 
ATOM     25  C   UNL     1       1.367   8.088  20.793  0.00  0.00    +0.000 A 
ATOM     26  C   UNL     1       1.441   6.799  21.325  0.00  0.00    +0.000 A 
ATOM     27  C   UNL     1       1.973   5.733  20.567  0.00  0.00    +0.000 A 
BRANCH  25  28
ATOM     28  O   UNL     1       0.747   9.036  21.574  0.00  0.00    +0.000 OA
BRANCH  28  29
ATOM     29  C   UNL     1       0.843  10.399  21.119  0.00  0.00    +0.000 C 
BRANCH  29  30
ATOM     30  C   UNL     1      -0.443  10.935  20.484  0.00  0.00    +0.000 C 
ATOM     31  F   UNL     1      -1.069  10.049  19.684  0.00  0.00    +0.000 F 
ATOM     32  F   UNL     1      -1.325  11.298  21.449  0.00  0.00    +0.000 F 
ATOM     33  F   UNL     1      -0.191  12.045  19.746  0.00  0.00    +0.000 F 
ENDBRANCH  29  30
ENDBRANCH  28  29
ENDBRANCH  25  28
ENDBRANCH   6  22
BRANCH   6  34
ATOM     34  C   UNL     1       1.593   4.388  17.927  0.00  0.00    +0.000 C 
ATOM     35  F   UNL     1       1.458   3.334  17.076  0.00  0.00    +0.000 F 
ATOM     36  F   UNL     1       0.813   4.073  19.002  0.00  0.00    +0.000 F 
ATOM     37  F   UNL     1       0.971   5.455  17.370  0.00  0.00    +0.000 F 
ENDBRANCH   6  34
TORSDOF 7
ENDMDL
MODEL 8
REMARK VINA RESULT:      -8.2      0.458      1.070
REMARK  Name = 
REMARK  8 active torsions:
REMARK  status: ('A' for Active; 'I' for Inactive)
REMARK    1  A    between atoms: C_1  and  C_2
REMARK    2  A    between atoms: C_5  and  C_6
REMARK    3  A    between atoms: C_7  and  C_8
REMARK    4  A    between atoms: C_16  and  C_17
REMARK    5  A    between atoms: C_16  and  C_29
REMARK    6  A    between atoms: C_20  and  O_21
REMARK    7  A    between atoms: O_21  and  C_22
REMARK    8  A    between atoms: C_22  and  C_23
REMARK                            x       y       z     vdW  Elec       q    Type
REMARK                         _______ _______ _______ _____ _____    ______ ____
ROOT
ATOM      1  C   UNL     1       5.299   4.329  16.355  0.00  0.00    +0.000 C 
ATOM      2  C   UNL     1       6.103   4.848  17.323  0.00  0.00    +0.000 C 
ATOM      3  C   UNL     1       5.442   4.607  18.625  0.00  0.00    +0.000 C 
ATOM      4  O   UNL     1       5.652   3.627  19.315  0.00  0.00    +0.000 OA
ATOM      5  N   UNL     1       4.347   5.422  18.701  0.00  0.00    +0.000 N 
ATOM      6  C   UNL     1       3.111   4.751  18.300  0.00  0.00    +0.000 C 
ATOM      7  C   UNL     1       3.742   4.237  16.722  0.00  0.00    +0.000 C 
ATOM      8  H   UNL     1       4.458   6.273  18.149  0.00  0.00    +0.000 HD
ENDROOT
BRANCH   1  13
ATOM      9  C   UNL     1       7.547   3.322  10.943  0.00  0.00    +0.000 C 
ATOM     10  C   UNL     1       6.960   3.633  12.294  0.00  0.00    +0.000 A 
ATOM     11  C   UNL     1       5.682   3.214  12.641  0.00  0.00    +0.000 A 
ATOM     12  C   UNL     1       5.162   3.487  13.924  0.00  0.00    +0.000 A 
ATOM     13  C   UNL     1       5.897   4.141  14.955  0.00  0.00    +0.000 A 
ATOM     14  C   UNL     1       7.154   4.613  14.557  0.00  0.00    +0.000 A 
ATOM     15  C   UNL     1       7.669   4.367  13.254  0.00  0.00    +0.000 A 
ENDBRANCH   1  13
BRANCH   2  16
ATOM     16  C   UNL     1       6.528   6.183  17.064  0.00  0.00    +0.000 A 
ATOM     17  N   UNL     1       5.794   7.240  16.731  0.00  0.00    +0.000 NA
ATOM     18  N   UNL     1       6.635   8.316  16.812  0.00  0.00    +0.000 NA
ATOM     19  N   UNL     1       7.848   7.947  17.189  0.00  0.00    +0.000 NA
ATOM     20  N   UNL     1       7.782   6.617  17.338  0.00  0.00    +0.000 N 
ATOM     21  H   UNL     1       8.597   6.110  17.659  0.00  0.00    +0.000 HD
ENDBRANCH   2  16
BRANCH   6  22
ATOM     22  C   UNL     1       2.490   6.120  19.100  0.00  0.00    +0.000 A 
ATOM     23  C   UNL     1       2.477   7.420  18.555  0.00  0.00    +0.000 A 
ATOM     24  C   UNL     1       1.981   8.517  19.289  0.00  0.00    +0.000 A 
ATOM     25  C   UNL     1       1.490   8.366  20.590  0.00  0.00    +0.000 A 
ATOM     26  C   UNL     1       1.585   7.108  21.189  0.00  0.00    +0.000 A 
ATOM     27  C   UNL     1       2.074   5.997  20.466  0.00  0.00    +0.000 A 
BRANCH  25  28
ATOM     28  O   UNL     1       0.913   9.360  21.347  0.00  0.00    +0.000 OA
BRANCH  28  29
ATOM     29  C   UNL     1      -0.299   9.009  22.042  0.00  0.00    +0.000 C 
BRANCH  29  30
ATOM     30  C   UNL     1      -0.611   9.906  23.243  0.00  0.00    +0.000 C 
ATOM     31  F   UNL     1       0.035   9.552  24.372  0.00  0.00    +0.000 F 
ATOM     32  F   UNL     1      -0.266  11.190  22.969  0.00  0.00    +0.000 F 
ATOM     33  F   UNL     1      -1.940   9.906  23.514  0.00  0.00    +0.000 F 
ENDBRANCH  29  30
ENDBRANCH  28  29
ENDBRANCH  25  28
ENDBRANCH   6  22
BRANCH   6  34
ATOM     34  C   UNL     1       1.576   4.578  17.829  0.00  0.00    +0.000 C 
ATOM     35  F   UNL     1       1.078   5.710  17.260  0.00  0.00    +0.000 F 
ATOM     36  F   UNL     1       1.482   3.626  16.855  0.00  0.00    +0.000 F 
ATOM     37  F   UNL     1       0.699   4.168  18.776  0.00  0.00    +0.000 F 
ENDBRANCH   6  34
TORSDOF 7
ENDMDL
MODEL 9
REMARK VINA RESULT:      -7.8      6.298      9.823
REMARK  Name = 
REMARK  8 active torsions:
REMARK  status: ('A' for Active; 'I' for Inactive)
REMARK    1  A    between atoms: C_1  and  C_2
REMARK    2  A    between atoms: C_5  and  C_6
REMARK    3  A    between atoms: C_7  and  C_8
REMARK    4  A    between atoms: C_16  and  C_17
REMARK    5  A    between atoms: C_16  and  C_29
REMARK    6  A    between atoms: C_20  and  O_21
REMARK    7  A    between atoms: O_21  and  C_22
REMARK    8  A    between atoms: C_22  and  C_23
REMARK                            x       y       z     vdW  Elec       q    Type
REMARK                         _______ _______ _______ _____ _____    ______ ____
ROOT
ATOM      1  C   UNL     1       0.071  11.046  19.593  0.00  0.00    +0.000 C 
ATOM      2  C   UNL     1      -0.515  11.508  18.455  0.00  0.00    +0.000 C 
ATOM      3  C   UNL     1      -0.870  12.926  18.682  0.00  0.00    +0.000 C 
ATOM      4  O   UNL     1      -0.140  13.857  18.397  0.00  0.00    +0.000 OA
ATOM      5  N   UNL     1      -1.909  12.964  19.570  0.00  0.00    +0.000 N 
ATOM      6  C   UNL     1      -1.470  13.175  20.949  0.00  0.00    +0.000 C 
ATOM      7  C   UNL     1      -0.344  11.803  20.943  0.00  0.00    +0.000 C 
ATOM      8  H   UNL     1      -2.486  12.124  19.528  0.00  0.00    +0.000 HD
ENDROOT
BRANCH   1  13
ATOM      9  C   UNL     1       3.163   5.967  19.537  0.00  0.00    +0.000 C 
ATOM     10  C   UNL     1       2.332   7.222  19.525  0.00  0.00    +0.000 A 
ATOM     11  C   UNL     1       1.622   7.630  20.648  0.00  0.00    +0.000 A 
ATOM     12  C   UNL     1       0.876   8.828  20.627  0.00  0.00    +0.000 A 
ATOM     13  C   UNL     1       0.834   9.718  19.515  0.00  0.00    +0.000 A 
ATOM     14  C   UNL     1       1.501   9.249  18.376  0.00  0.00    +0.000 A 
ATOM     15  C   UNL     1       2.228   8.027  18.383  0.00  0.00    +0.000 A 
ENDBRANCH   1  13
BRANCH   2  16
ATOM     16  C   UNL     1      -1.551  10.666  17.957  0.00  0.00    +0.000 A 
ATOM     17  N   UNL     1      -2.691  10.314  18.544  0.00  0.00    +0.000 NA
ATOM     18  N   UNL     1      -3.427   9.686  17.577  0.00  0.00    +0.000 NA
ATOM     19  N   UNL     1      -2.775   9.652  16.426  0.00  0.00    +0.000 NA
ATOM     20  N   UNL     1      -1.604  10.256  16.667  0.00  0.00    +0.000 N 
ATOM     21  H   UNL     1      -0.941  10.378  15.911  0.00  0.00    +0.000 HD
ENDBRANCH   2  16
BRANCH   6  22
ATOM     22  C   UNL     1      -3.131  13.529  21.081  0.00  0.00    +0.000 A 
ATOM     23  C   UNL     1      -4.123  12.578  21.397  0.00  0.00    +0.000 A 
ATOM     24  C   UNL     1      -5.486  12.933  21.452  0.00  0.00    +0.000 A 
ATOM     25  C   UNL     1      -5.915  14.239  21.189  0.00  0.00    +0.000 A 
ATOM     26  C   UNL     1      -4.964  15.174  20.776  0.00  0.00    +0.000 A 
ATOM     27  C   UNL     1      -3.594  14.837  20.720  0.00  0.00    +0.000 A 
BRANCH  25  28
ATOM     28  O   UNL     1      -7.209  14.693  21.300  0.00  0.00    +0.000 OA
BRANCH  28  29
ATOM     29  C   UNL     1      -7.374  16.028  21.815  0.00  0.00    +0.000 C 
BRANCH  29  30
ATOM     30  C   UNL     1      -7.253  16.127  23.338  0.00  0.00    +0.000 C 
ATOM     31  F   UNL     1      -7.748  17.270  23.853  0.00  0.00    +0.000 F 
ATOM     32  F   UNL     1      -7.916  15.100  23.928  0.00  0.00    +0.000 F 
ATOM     33  F   UNL     1      -5.957  16.031  23.727  0.00  0.00    +0.000 F 
ENDBRANCH  29  30
ENDBRANCH  28  29
ENDBRANCH  25  28
ENDBRANCH   6  22
BRANCH   6  34
ATOM     34  C   UNL     1      -1.539  13.210  22.562  0.00  0.00    +0.000 C 
ATOM     35  F   UNL     1      -1.709  11.971  23.101  0.00  0.00    +0.000 F 
ATOM     36  F   UNL     1      -0.357  13.657  23.079  0.00  0.00    +0.000 F 
ATOM     37  F   UNL     1      -2.468  14.032  23.107  0.00  0.00    +0.000 F 
ENDBRANCH   6  34
TORSDOF 7
ENDMDL
