MODEL 1
REMARK VINA RESULT:      -7.7      0.000      0.000
REMARK  Name = 
REMARK  4 active torsions:
REMARK  status: ('A' for Active; 'I' for Inactive)
REMARK    1  A    between atoms: C_1  and  C_2
REMARK    2  A    between atoms: C_2  and  C_3
REMARK    3  A    between atoms: N_4  and  C_5
REMARK    4  A    between atoms: C_10  and  C_11
REMARK                            x       y       z     vdW  Elec       q    Type
REMARK                         _______ _______ _______ _____ _____    ______ ____
ROOT
ATOM      1  C   UNL     1       2.875   5.800  19.679  0.00  0.00    +0.000 A 
ATOM      2  C   UNL     1       2.184   7.010  19.848  0.00  0.00    +0.000 A 
ATOM      3  C   UNL     1       2.199   8.008  18.872  0.00  0.00    +0.000 A 
ATOM      4  C   UNL     1       2.981   7.852  17.740  0.00  0.00    +0.000 A 
ATOM      5  C   UNL     1       3.759   6.706  17.597  0.00  0.00    +0.000 A 
ATOM      6  C   UNL     1       3.719   5.669  18.554  0.00  0.00    +0.000 A 
ENDROOT
BRANCH   6   7
ATOM      7  C   UNL     1       4.612   4.470  18.307  0.00  0.00    +0.000 C 
ATOM      8  C   UNL     1       4.575   3.891  16.898  0.00  0.00    +0.000 C 
ATOM      9  O   UNL     1       5.897   3.892  16.332  0.00  0.00    +0.000 OA
ATOM     10  C   UNL     1       6.788   4.421  17.196  0.00  0.00    +0.000 C 
ATOM     11  O   UNL     1       7.986   4.554  17.057  0.00  0.00    +0.000 OA
ATOM     12  C   UNL     1       6.057   4.738  18.459  0.00  0.00    +0.000 C 
ATOM     13  N   UNL     1       6.644   5.113  19.558  0.00  0.00    +0.000 NA
ATOM     14  H   UNL     1       7.655   5.187  19.370  0.00  0.00    +0.000 HD
ENDBRANCH   6   7
BRANCH   1  18
ATOM     15  C   UNL     1       1.983   2.749  21.674  0.00  0.00    +0.000 C 
ATOM     16  C   UNL     1       1.938   3.789  20.576  0.00  0.00    +0.000 C 
ATOM     17  C   UNL     1       0.865   3.573  19.529  0.00  0.00    +0.000 C 
ATOM     18  N   UNL     1       2.804   4.763  20.627  0.00  0.00    +0.000 NA
ENDBRANCH   1  18
TORSDOF 2
ENDMDL
MODEL 2
REMARK VINA RESULT:      -7.3      2.103      3.670
REMARK  Name = 
REMARK  4 active torsions:
REMARK  status: ('A' for Active; 'I' for Inactive)
REMARK    1  A    between atoms: C_1  and  C_2
REMARK    2  A    between atoms: C_2  and  C_3
REMARK    3  A    between atoms: N_4  and  C_5
REMARK    4  A    between atoms: C_10  and  C_11
REMARK                            x       y       z     vdW  Elec       q    Type
REMARK                         _______ _______ _______ _____ _____    ______ ____
ROOT
ATOM      1  C   UNL     1       2.910   5.128  17.718  0.00  0.00    +0.000 A 
ATOM      2  C   UNL     1       1.814   4.251  17.749  0.00  0.00    +0.000 A 
ATOM      3  C   UNL     1       1.974   2.882  17.965  0.00  0.00    +0.000 A 
ATOM      4  C   UNL     1       3.247   2.345  18.066  0.00  0.00    +0.000 A 
ATOM      5  C   UNL     1       4.355   3.178  17.934  0.00  0.00    +0.000 A 
ATOM      6  C   UNL     1       4.207   4.571  17.760  0.00  0.00    +0.000 A 
ENDROOT
BRANCH   6   7
ATOM      7  C   UNL     1       5.477   5.384  17.617  0.00  0.00    +0.000 C 
ATOM      8  C   UNL     1       6.760   4.704  18.080  0.00  0.00    +0.000 C 
ATOM      9  O   UNL     1       7.707   4.655  16.999  0.00  0.00    +0.000 OA
ATOM     10  C   UNL     1       7.189   5.204  15.881  0.00  0.00    +0.000 C 
ATOM     11  O   UNL     1       7.715   5.351  14.798  0.00  0.00    +0.000 OA
ATOM     12  C   UNL     1       5.834   5.728  16.224  0.00  0.00    +0.000 C 
ATOM     13  N   UNL     1       5.118   6.462  15.421  0.00  0.00    +0.000 NA
ATOM     14  H   UNL     1       5.634   6.558  14.534  0.00  0.00    +0.000 HD
ENDBRANCH   6   7
BRANCH   1  18
ATOM     15  C   UNL     1       2.302   8.794  18.241  0.00  0.00    +0.000 C 
ATOM     16  C   UNL     1       2.447   7.322  18.556  0.00  0.00    +0.000 C 
ATOM     17  C   UNL     1       2.216   6.948  20.005  0.00  0.00    +0.000 C 
ATOM     18  N   UNL     1       2.748   6.518  17.574  0.00  0.00    +0.000 NA
ENDBRANCH   1  18
TORSDOF 2
ENDMDL
MODEL 3
REMARK VINA RESULT:      -7.2      1.361      1.596
REMARK  Name = 
REMARK  4 active torsions:
REMARK  status: ('A' for Active; 'I' for Inactive)
REMARK    1  A    between atoms: C_1  and  C_2
REMARK    2  A    between atoms: C_2  and  C_3
REMARK    3  A    between atoms: N_4  and  C_5
REMARK    4  A    between atoms: C_10  and  C_11
REMARK                            x       y       z     vdW  Elec       q    Type
REMARK                         _______ _______ _______ _____ _____    ______ ____
ROOT
ATOM      1  C   UNL     1       2.799   5.395  17.963  0.00  0.00    +0.000 A 
ATOM      2  C   UNL     1       2.049   6.454  18.499  0.00  0.00    +0.000 A 
ATOM      3  C   UNL     1       2.391   7.787  18.269  0.00  0.00    +0.000 A 
ATOM      4  C   UNL     1       3.548   8.090  17.568  0.00  0.00    +0.000 A 
ATOM      5  C   UNL     1       4.366   7.059  17.116  0.00  0.00    +0.000 A 
ATOM      6  C   UNL     1       4.008   5.705  17.302  0.00  0.00    +0.000 A 
ENDROOT
BRANCH   6   7
ATOM      7  C   UNL     1       4.974   4.662  16.780  0.00  0.00    +0.000 C 
ATOM      8  C   UNL     1       5.861   5.097  15.619  0.00  0.00    +0.000 C 
ATOM      9  O   UNL     1       7.246   4.937  15.972  0.00  0.00    +0.000 OA
ATOM     10  C   UNL     1       7.369   4.470  17.232  0.00  0.00    +0.000 C 
ATOM     11  O   UNL     1       8.382   4.199  17.840  0.00  0.00    +0.000 OA
ATOM     12  C   UNL     1       5.993   4.222  17.756  0.00  0.00    +0.000 C 
ATOM     13  N   UNL     1       5.747   3.619  18.883  0.00  0.00    +0.000 NA
ATOM     14  H   UNL     1       6.650   3.405  19.333  0.00  0.00    +0.000 HD
ENDBRANCH   6   7
BRANCH   1  18
ATOM     15  C   UNL     1       1.860   2.020  19.309  0.00  0.00    +0.000 C 
ATOM     16  C   UNL     1       2.270   3.476  19.292  0.00  0.00    +0.000 C 
ATOM     17  C   UNL     1       2.469   4.105  20.655  0.00  0.00    +0.000 C 
ATOM     18  N   UNL     1       2.418   4.051  18.131  0.00  0.00    +0.000 NA
ENDBRANCH   1  18
TORSDOF 2
ENDMDL
MODEL 4
REMARK VINA RESULT:      -7.1      2.766      5.169
REMARK  Name = 
REMARK  4 active torsions:
REMARK  status: ('A' for Active; 'I' for Inactive)
REMARK    1  A    between atoms: C_1  and  C_2
REMARK    2  A    between atoms: C_2  and  C_3
REMARK    3  A    between atoms: N_4  and  C_5
REMARK    4  A    between atoms: C_10  and  C_11
REMARK                            x       y       z     vdW  Elec       q    Type
REMARK                         _______ _______ _______ _____ _____    ______ ____
ROOT
ATOM      1  C   UNL     1       6.579   4.534  17.055  0.00  0.00    +0.000 A 
ATOM      2  C   UNL     1       7.332   4.396  15.878  0.00  0.00    +0.000 A 
ATOM      3  C   UNL     1       6.732   4.393  14.618  0.00  0.00    +0.000 A 
ATOM      4  C   UNL     1       5.352   4.438  14.513  0.00  0.00    +0.000 A 
ATOM      5  C   UNL     1       4.576   4.469  15.669  0.00  0.00    +0.000 A 
ATOM      6  C   UNL     1       5.171   4.518  16.948  0.00  0.00    +0.000 A 
ENDROOT
BRANCH   6   7
ATOM      7  C   UNL     1       4.236   4.539  18.140  0.00  0.00    +0.000 C 
ATOM      8  C   UNL     1       2.802   4.967  17.854  0.00  0.00    +0.000 C 
ATOM      9  O   UNL     1       1.890   3.933  18.264  0.00  0.00    +0.000 OA
ATOM     10  C   UNL     1       2.559   2.873  18.764  0.00  0.00    +0.000 C 
ATOM     11  O   UNL     1       2.110   1.844  19.222  0.00  0.00    +0.000 OA
ATOM     12  C   UNL     1       4.012   3.221  18.769  0.00  0.00    +0.000 C 
ATOM     13  N   UNL     1       4.927   2.489  19.335  0.00  0.00    +0.000 NA
ATOM     14  H   UNL     1       4.471   1.646  19.714  0.00  0.00    +0.000 HD
ENDBRANCH   6   7
BRANCH   1  18
ATOM     15  C   UNL     1       8.330   5.622  20.191  0.00  0.00    +0.000 C 
ATOM     16  C   UNL     1       7.709   5.699  18.814  0.00  0.00    +0.000 C 
ATOM     17  C   UNL     1       7.776   7.060  18.153  0.00  0.00    +0.000 C 
ATOM     18  N   UNL     1       7.185   4.611  18.323  0.00  0.00    +0.000 NA
ENDBRANCH   1  18
TORSDOF 2
ENDMDL
MODEL 5
REMARK VINA RESULT:      -6.8      1.911      2.096
REMARK  Name = 
REMARK  4 active torsions:
REMARK  status: ('A' for Active; 'I' for Inactive)
REMARK    1  A    between atoms: C_1  and  C_2
REMARK    2  A    between atoms: C_2  and  C_3
REMARK    3  A    between atoms: N_4  and  C_5
REMARK    4  A    between atoms: C_10  and  C_11
REMARK                            x       y       z     vdW  Elec       q    Type
REMARK                         _______ _______ _______ _____ _____    ______ ____
ROOT
ATOM      1  C   UNL     1       4.132   5.247  18.883  0.00  0.00    +0.000 A 
ATOM      2  C   UNL     1       3.138   6.119  19.353  0.00  0.00    +0.000 A 
ATOM      3  C   UNL     1       2.695   7.206  18.598  0.00  0.00    +0.000 A 
ATOM      4  C   UNL     1       3.303   7.496  17.387  0.00  0.00    +0.000 A 
ATOM      5  C   UNL     1       4.363   6.708  16.946  0.00  0.00    +0.000 A 
ATOM      6  C   UNL     1       4.791   5.579  17.678  0.00  0.00    +0.000 A 
ENDROOT
BRANCH   6   7
ATOM      7  C   UNL     1       5.959   4.797  17.114  0.00  0.00    +0.000 C 
ATOM      8  C   UNL     1       5.604   3.684  16.135  0.00  0.00    +0.000 C 
ATOM      9  O   UNL     1       6.274   3.901  14.881  0.00  0.00    +0.000 OA
ATOM     10  C   UNL     1       7.007   5.033  14.918  0.00  0.00    +0.000 C 
ATOM     11  O   UNL     1       7.712   5.505  14.052  0.00  0.00    +0.000 OA
ATOM     12  C   UNL     1       6.898   5.595  16.298  0.00  0.00    +0.000 C 
ATOM     13  N   UNL     1       7.609   6.596  16.728  0.00  0.00    +0.000 NA
ATOM     14  H   UNL     1       8.193   6.931  15.947  0.00  0.00    +0.000 HD
ENDBRANCH   6   7
BRANCH   1  18
ATOM     15  C   UNL     1       4.528   1.803  20.319  0.00  0.00    +0.000 C 
ATOM     16  C   UNL     1       3.995   2.929  19.461  0.00  0.00    +0.000 C 
ATOM     17  C   UNL     1       2.877   2.543  18.515  0.00  0.00    +0.000 C 
ATOM     18  N   UNL     1       4.530   4.109  19.608  0.00  0.00    +0.000 NA
ENDBRANCH   1  18
TORSDOF 2
ENDMDL
MODEL 6
REMARK VINA RESULT:      -6.8      2.636      5.030
REMARK  Name = 
REMARK  4 active torsions:
REMARK  status: ('A' for Active; 'I' for Inactive)
REMARK    1  A    between atoms: C_1  and  C_2
REMARK    2  A    between atoms: C_2  and  C_3
REMARK    3  A    between atoms: N_4  and  C_5
REMARK    4  A    between atoms: C_10  and  C_11
REMARK                            x       y       z     vdW  Elec       q    Type
REMARK                         _______ _______ _______ _____ _____    ______ ____
ROOT
ATOM      1  C   UNL     1       4.167   3.889  18.358  0.00  0.00    +0.000 A 
ATOM      2  C   UNL     1       3.701   2.569  18.247  0.00  0.00    +0.000 A 
ATOM      3  C   UNL     1       2.357   2.282  18.004  0.00  0.00    +0.000 A 
ATOM      4  C   UNL     1       1.431   3.311  17.955  0.00  0.00    +0.000 A 
ATOM      5  C   UNL     1       1.851   4.622  18.166  0.00  0.00    +0.000 A 
ATOM      6  C   UNL     1       3.213   4.931  18.367  0.00  0.00    +0.000 A 
ENDROOT
BRANCH   6   7
ATOM      7  C   UNL     1       3.561   6.387  18.597  0.00  0.00    +0.000 C 
ATOM      8  C   UNL     1       3.740   7.235  17.343  0.00  0.00    +0.000 C 
ATOM      9  O   UNL     1       2.834   8.352  17.373  0.00  0.00    +0.000 OA
ATOM     10  C   UNL     1       2.072   8.323  18.486  0.00  0.00    +0.000 C 
ATOM     11  O   UNL     1       1.227   9.117  18.843  0.00  0.00    +0.000 OA
ATOM     12  C   UNL     1       2.523   7.163  19.310  0.00  0.00    +0.000 C 
ATOM     13  N   UNL     1       2.111   6.935  20.523  0.00  0.00    +0.000 NA
ATOM     14  H   UNL     1       1.413   7.654  20.762  0.00  0.00    +0.000 HD
ENDBRANCH   6   7
BRANCH   1  18
ATOM     15  C   UNL     1       7.802   4.697  17.891  0.00  0.00    +0.000 C 
ATOM     16  C   UNL     1       6.361   4.392  17.545  0.00  0.00    +0.000 C 
ATOM     17  C   UNL     1       6.048   4.359  16.063  0.00  0.00    +0.000 C 
ATOM     18  N   UNL     1       5.531   4.186  18.530  0.00  0.00    +0.000 NA
ENDBRANCH   1  18
TORSDOF 2
ENDMDL
MODEL 7
REMARK VINA RESULT:      -6.7      2.873      4.608
REMARK  Name = 
REMARK  4 active torsions:
REMARK  status: ('A' for Active; 'I' for Inactive)
REMARK    1  A    between atoms: C_1  and  C_2
REMARK    2  A    between atoms: C_2  and  C_3
REMARK    3  A    between atoms: N_4  and  C_5
REMARK    4  A    between atoms: C_10  and  C_11
REMARK                            x       y       z     vdW  Elec       q    Type
REMARK                         _______ _______ _______ _____ _____    ______ ____
ROOT
ATOM      1  C   UNL     1       3.163   6.426  18.424  0.00  0.00    +0.000 A 
ATOM      2  C   UNL     1       4.269   6.869  17.681  0.00  0.00    +0.000 A 
ATOM      3  C   UNL     1       4.886   6.059  16.727  0.00  0.00    +0.000 A 
ATOM      4  C   UNL     1       4.465   4.750  16.559  0.00  0.00    +0.000 A 
ATOM      5  C   UNL     1       3.438   4.252  17.358  0.00  0.00    +0.000 A 
ATOM      6  C   UNL     1       2.775   5.074  18.295  0.00  0.00    +0.000 A 
ENDROOT
BRANCH   6   7
ATOM      7  C   UNL     1       1.680   4.430  19.120  0.00  0.00    +0.000 C 
ATOM      8  C   UNL     1       1.267   3.025  18.697  0.00  0.00    +0.000 C 
ATOM      9  O   UNL     1       1.428   2.114  19.799  0.00  0.00    +0.000 OA
ATOM     10  C   UNL     1       1.915   2.753  20.883  0.00  0.00    +0.000 C 
ATOM     11  O   UNL     1       2.148   2.301  21.984  0.00  0.00    +0.000 OA
ATOM     12  C   UNL     1       2.031   4.201  20.537  0.00  0.00    +0.000 C 
ATOM     13  N   UNL     1       2.316   5.129  21.403  0.00  0.00    +0.000 NA
ATOM     14  H   UNL     1       2.484   4.675  22.313  0.00  0.00    +0.000 HD
ENDBRANCH   6   7
BRANCH   1  18
ATOM     15  C   UNL     1       1.163   9.133  20.084  0.00  0.00    +0.000 C 
ATOM     16  C   UNL     1       1.828   8.331  18.987  0.00  0.00    +0.000 C 
ATOM     17  C   UNL     1       1.643   8.877  17.587  0.00  0.00    +0.000 C 
ATOM     18  N   UNL     1       2.492   7.263  19.334  0.00  0.00    +0.000 NA
ENDBRANCH   1  18
TORSDOF 2
ENDMDL
MODEL 8
REMARK VINA RESULT:      -6.7      2.049      3.607
REMARK  Name = 
REMARK  4 active torsions:
REMARK  status: ('A' for Active; 'I' for Inactive)
REMARK    1  A    between atoms: C_1  and  C_2
REMARK    2  A    between atoms: C_2  and  C_3
REMARK    3  A    between atoms: N_4  and  C_5
REMARK    4  A    between atoms: C_10  and  C_11
REMARK                            x       y       z     vdW  Elec       q    Type
REMARK                         _______ _______ _______ _____ _____    ______ ____
ROOT
ATOM      1  C   UNL     1       2.496   4.902  17.852  0.00  0.00    +0.000 A 
ATOM      2  C   UNL     1       1.435   4.016  18.099  0.00  0.00    +0.000 A 
ATOM      3  C   UNL     1       1.655   2.669  18.387  0.00  0.00    +0.000 A 
ATOM      4  C   UNL     1       2.941   2.157  18.347  0.00  0.00    +0.000 A 
ATOM      5  C   UNL     1       4.001   2.991  18.003  0.00  0.00    +0.000 A 
ATOM      6  C   UNL     1       3.799   4.366  17.753  0.00  0.00    +0.000 A 
ENDROOT
BRANCH   6   7
ATOM      7  C   UNL     1       5.018   5.182  17.376  0.00  0.00    +0.000 C 
ATOM      8  C   UNL     1       5.703   5.923  18.518  0.00  0.00    +0.000 C 
ATOM      9  O   UNL     1       7.081   5.522  18.607  0.00  0.00    +0.000 OA
ATOM     10  C   UNL     1       7.372   4.593  17.673  0.00  0.00    +0.000 C 
ATOM     11  O   UNL     1       8.436   4.056  17.448  0.00  0.00    +0.000 OA
ATOM     12  C   UNL     1       6.148   4.391  16.843  0.00  0.00    +0.000 C 
ATOM     13  N   UNL     1       6.124   3.682  15.751  0.00  0.00    +0.000 NA
ATOM     14  H   UNL     1       7.061   3.274  15.616  0.00  0.00    +0.000 HD
ENDBRANCH   6   7
BRANCH   1  18
ATOM     15  C   UNL     1       1.946   8.599  18.193  0.00  0.00    +0.000 C 
ATOM     16  C   UNL     1       2.178   7.157  18.588  0.00  0.00    +0.000 C 
ATOM     17  C   UNL     1       2.255   6.903  20.079  0.00  0.00    +0.000 C 
ATOM     18  N   UNL     1       2.285   6.276  17.633  0.00  0.00    +0.000 NA
ENDBRANCH   1  18
TORSDOF 2
ENDMDL
MODEL 9
REMARK VINA RESULT:      -6.6      1.900      2.235
REMARK  Name = 
REMARK  4 active torsions:
REMARK  status: ('A' for Active; 'I' for Inactive)
REMARK    1  A    between atoms: C_1  and  C_2
REMARK    2  A    between atoms: C_2  and  C_3
REMARK    3  A    between atoms: N_4  and  C_5
REMARK    4  A    between atoms: C_10  and  C_11
REMARK                            x       y       z     vdW  Elec       q    Type
REMARK                         _______ _______ _______ _____ _____    ______ ____
ROOT
ATOM      1  C   UNL     1       3.176   4.696  19.612  0.00  0.00    +0.000 A 
ATOM      2  C   UNL     1       2.198   5.024  20.564  0.00  0.00    +0.000 A 
ATOM      3  C   UNL     1       1.623   6.294  20.620  0.00  0.00    +0.000 A 
ATOM      4  C   UNL     1       2.079   7.294  19.777  0.00  0.00    +0.000 A 
ATOM      5  C   UNL     1       3.121   7.024  18.894  0.00  0.00    +0.000 A 
ATOM      6  C   UNL     1       3.682   5.732  18.796  0.00  0.00    +0.000 A 
ENDROOT
BRANCH   6   7
ATOM      7  C   UNL     1       4.818   5.549  17.810  0.00  0.00    +0.000 C 
ATOM      8  C   UNL     1       4.878   6.558  16.669  0.00  0.00    +0.000 C 
ATOM      9  O   UNL     1       6.151   7.228  16.673  0.00  0.00    +0.000 OA
ATOM     10  C   UNL     1       6.920   6.792  17.692  0.00  0.00    +0.000 C 
ATOM     11  O   UNL     1       8.052   7.121  17.978  0.00  0.00    +0.000 OA
ATOM     12  C   UNL     1       6.168   5.708  18.391  0.00  0.00    +0.000 C 
ATOM     13  N   UNL     1       6.682   4.957  19.322  0.00  0.00    +0.000 NA
ATOM     14  H   UNL     1       7.644   5.282  19.498  0.00  0.00    +0.000 HD
ENDBRANCH   6   7
BRANCH   1  18
ATOM     15  C   UNL     1       3.891   1.119  18.728  0.00  0.00    +0.000 C 
ATOM     16  C   UNL     1       3.212   2.471  18.731  0.00  0.00    +0.000 C 
ATOM     17  C   UNL     1       2.008   2.588  17.819  0.00  0.00    +0.000 C 
ATOM     18  N   UNL     1       3.707   3.397  19.504  0.00  0.00    +0.000 NA
ENDBRANCH   1  18
TORSDOF 2
ENDMDL
