MODEL 1
REMARK VINA RESULT:      -7.8      0.000      0.000
REMARK  Name = 
REMARK  3 active torsions:
REMARK  status: ('A' for Active; 'I' for Inactive)
REMARK    1  A    between atoms: C_2  and  O_3
REMARK    2  A    between atoms: C_2  and  C_4
REMARK    3  A    between atoms: C_4  and  C_5
REMARK                            x       y       z     vdW  Elec       q    Type
REMARK                         _______ _______ _______ _____ _____    ______ ____
ROOT
ATOM      1  C   UNL     1       6.764   5.240  15.546  0.00  0.00    +0.000 A 
ATOM      2  C   UNL     1       7.399   4.548  16.586  0.00  0.00    +0.000 A 
ATOM      3  C   UNL     1       6.819   4.502  17.854  0.00  0.00    +0.000 A 
ATOM      4  C   UNL     1       5.601   5.144  18.091  0.00  0.00    +0.000 A 
ATOM      5  C   UNL     1       4.992   5.912  17.089  0.00  0.00    +0.000 A 
ATOM      6  C   UNL     1       5.581   5.951  15.818  0.00  0.00    +0.000 A 
ATOM      7  C   UNL     1       3.786   6.713  17.331  0.00  0.00    +0.000 C 
ATOM      8  C   UNL     1       2.759   6.329  18.103  0.00  0.00    +0.000 C 
ATOM      9  C   UNL     1       2.687   5.039  18.797  0.00  0.00    +0.000 A 
ATOM     10  C   UNL     1       1.444   4.404  18.901  0.00  0.00    +0.000 A 
ATOM     11  C   UNL     1       1.340   3.183  19.559  0.00  0.00    +0.000 A 
ATOM     12  F   UNL     1       0.148   2.574  19.630  0.00  0.00    +0.000 F 
ATOM     13  C   UNL     1       2.450   2.582  20.144  0.00  0.00    +0.000 A 
ATOM     14  C   UNL     1       3.690   3.213  20.066  0.00  0.00    +0.000 A 
ATOM     15  C   UNL     1       3.811   4.428  19.380  0.00  0.00    +0.000 A 
ATOM     16  O   UNL     1       5.065   5.005  19.353  0.00  0.00    +0.000 OA
ENDROOT
BRANCH   1  17
ATOM     17  C   UNL     1       7.337   5.217  14.146  0.00  0.00    +0.000 C 
BRANCH  17  19
ATOM     18  O   UNL     1       7.053   4.181  12.002  0.00  0.00    +0.000 OA
ATOM     19  C   UNL     1       6.850   4.133  13.209  0.00  0.00    +0.000 C 
BRANCH  19  20
ATOM     20  O   UNL     1       6.164   3.111  13.761  0.00  0.00    +0.000 OA
ATOM     21  H   UNL     1       5.379   2.818  13.257  0.00  0.00    +0.000 HD
ENDBRANCH  19  20
ENDBRANCH  17  19
ENDBRANCH   1  17
TORSDOF 3
ENDMDL
MODEL 2
REMARK VINA RESULT:      -7.7      0.997      1.072
REMARK  Name = 
REMARK  3 active torsions:
REMARK  status: ('A' for Active; 'I' for Inactive)
REMARK    1  A    between atoms: C_2  and  O_3
REMARK    2  A    between atoms: C_2  and  C_4
REMARK    3  A    between atoms: C_4  and  C_5
REMARK                            x       y       z     vdW  Elec       q    Type
REMARK                         _______ _______ _______ _____ _____    ______ ____
ROOT
ATOM      1  C   UNL     1       6.368   4.896  14.750  0.00  0.00    +0.000 A 
ATOM      2  C   UNL     1       7.096   4.149  15.686  0.00  0.00    +0.000 A 
ATOM      3  C   UNL     1       6.815   4.265  17.047  0.00  0.00    +0.000 A 
ATOM      4  C   UNL     1       5.804   5.125  17.483  0.00  0.00    +0.000 A 
ATOM      5  C   UNL     1       5.122   5.945  16.573  0.00  0.00    +0.000 A 
ATOM      6  C   UNL     1       5.411   5.820  15.207  0.00  0.00    +0.000 A 
ATOM      7  C   UNL     1       4.150   6.959  16.997  0.00  0.00    +0.000 C 
ATOM      8  C   UNL     1       3.273   6.801  17.999  0.00  0.00    +0.000 C 
ATOM      9  C   UNL     1       3.146   5.577  18.798  0.00  0.00    +0.000 A 
ATOM     10  C   UNL     1       1.870   5.181  19.215  0.00  0.00    +0.000 A 
ATOM     11  C   UNL     1       1.715   4.029  19.979  0.00  0.00    +0.000 A 
ATOM     12  F   UNL     1       0.485   3.648  20.352  0.00  0.00    +0.000 F 
ATOM     13  C   UNL     1       2.812   3.265  20.363  0.00  0.00    +0.000 A 
ATOM     14  C   UNL     1       4.090   3.659  19.972  0.00  0.00    +0.000 A 
ATOM     15  C   UNL     1       4.254   4.800  19.177  0.00  0.00    +0.000 A 
ATOM     16  O   UNL     1       5.548   5.141  18.837  0.00  0.00    +0.000 OA
ENDROOT
BRANCH   1  17
ATOM     17  C   UNL     1       6.602   4.708  13.267  0.00  0.00    +0.000 C 
BRANCH  17  19
ATOM     18  O   UNL     1       4.691   3.562  12.381  0.00  0.00    +0.000 OA
ATOM     19  C   UNL     1       5.898   3.553  12.590  0.00  0.00    +0.000 C 
BRANCH  19  20
ATOM     20  O   UNL     1       6.658   2.496  12.236  0.00  0.00    +0.000 OA
ATOM     21  H   UNL     1       7.426   2.708  11.668  0.00  0.00    +0.000 HD
ENDBRANCH  19  20
ENDBRANCH  17  19
ENDBRANCH   1  17
TORSDOF 3
ENDMDL
MODEL 3
REMARK VINA RESULT:      -7.7      1.770      2.378
REMARK  Name = 
REMARK  3 active torsions:
REMARK  status: ('A' for Active; 'I' for Inactive)
REMARK    1  A    between atoms: C_2  and  O_3
REMARK    2  A    between atoms: C_2  and  C_4
REMARK    3  A    between atoms: C_4  and  C_5
REMARK                            x       y       z     vdW  Elec       q    Type
REMARK                         _______ _______ _______ _____ _____    ______ ____
ROOT
ATOM      1  C   UNL     1       5.904   5.015  16.273  0.00  0.00    +0.000 A 
ATOM      2  C   UNL     1       5.657   6.187  17.002  0.00  0.00    +0.000 A 
ATOM      3  C   UNL     1       4.466   6.332  17.713  0.00  0.00    +0.000 A 
ATOM      4  C   UNL     1       3.515   5.308  17.704  0.00  0.00    +0.000 A 
ATOM      5  C   UNL     1       3.703   4.166  16.915  0.00  0.00    +0.000 A 
ATOM      6  C   UNL     1       4.903   4.028  16.205  0.00  0.00    +0.000 A 
ATOM      7  C   UNL     1       2.675   3.129  16.768  0.00  0.00    +0.000 C 
ATOM      8  C   UNL     1       1.877   2.702  17.757  0.00  0.00    +0.000 C 
ATOM      9  C   UNL     1       1.938   3.197  19.137  0.00  0.00    +0.000 A 
ATOM     10  C   UNL     1       1.712   2.293  20.181  0.00  0.00    +0.000 A 
ATOM     11  C   UNL     1       1.756   2.731  21.501  0.00  0.00    +0.000 A 
ATOM     12  F   UNL     1       1.561   1.850  22.493  0.00  0.00    +0.000 F 
ATOM     13  C   UNL     1       1.998   4.065  21.810  0.00  0.00    +0.000 A 
ATOM     14  C   UNL     1       2.205   4.979  20.780  0.00  0.00    +0.000 A 
ATOM     15  C   UNL     1       2.193   4.543  19.449  0.00  0.00    +0.000 A 
ATOM     16  O   UNL     1       2.391   5.504  18.478  0.00  0.00    +0.000 OA
ENDROOT
BRANCH   1  17
ATOM     17  C   UNL     1       7.230   4.808  15.575  0.00  0.00    +0.000 C 
BRANCH  17  19
ATOM     18  O   UNL     1       7.729   5.544  13.348  0.00  0.00    +0.000 OA
ATOM     19  C   UNL     1       7.215   4.695  14.067  0.00  0.00    +0.000 C 
BRANCH  19  20
ATOM     20  O   UNL     1       6.592   3.620  13.540  0.00  0.00    +0.000 OA
ATOM     21  H   UNL     1       7.124   3.104  12.903  0.00  0.00    +0.000 HD
ENDBRANCH  19  20
ENDBRANCH  17  19
ENDBRANCH   1  17
TORSDOF 3
ENDMDL
MODEL 4
REMARK VINA RESULT:      -7.6      2.867      3.725
REMARK  Name = 
REMARK  3 active torsions:
REMARK  status: ('A' for Active; 'I' for Inactive)
REMARK    1  A    between atoms: C_2  and  O_3
REMARK    2  A    between atoms: C_2  and  C_4
REMARK    3  A    between atoms: C_4  and  C_5
REMARK                            x       y       z     vdW  Elec       q    Type
REMARK                         _______ _______ _______ _____ _____    ______ ____
ROOT
ATOM      1  C   UNL     1       5.958   6.243  17.050  0.00  0.00    +0.000 A 
ATOM      2  C   UNL     1       4.924   7.154  17.302  0.00  0.00    +0.000 A 
ATOM      3  C   UNL     1       3.631   6.694  17.552  0.00  0.00    +0.000 A 
ATOM      4  C   UNL     1       3.362   5.323  17.555  0.00  0.00    +0.000 A 
ATOM      5  C   UNL     1       4.362   4.399  17.221  0.00  0.00    +0.000 A 
ATOM      6  C   UNL     1       5.658   4.870  16.973  0.00  0.00    +0.000 A 
ATOM      7  C   UNL     1       4.095   2.963  17.078  0.00  0.00    +0.000 C 
ATOM      8  C   UNL     1       3.265   2.261  17.863  0.00  0.00    +0.000 C 
ATOM      9  C   UNL     1       2.524   2.829  18.995  0.00  0.00    +0.000 A 
ATOM     10  C   UNL     1       2.343   2.041  20.137  0.00  0.00    +0.000 A 
ATOM     11  C   UNL     1       1.639   2.546  21.226  0.00  0.00    +0.000 A 
ATOM     12  F   UNL     1       1.495   1.790  22.323  0.00  0.00    +0.000 F 
ATOM     13  C   UNL     1       1.084   3.821  21.196  0.00  0.00    +0.000 A 
ATOM     14  C   UNL     1       1.239   4.608  20.057  0.00  0.00    +0.000 A 
ATOM     15  C   UNL     1       1.971   4.121  18.968  0.00  0.00    +0.000 A 
ATOM     16  O   UNL     1       2.073   4.947  17.867  0.00  0.00    +0.000 OA
ENDROOT
BRANCH   1  17
ATOM     17  C   UNL     1       7.381   6.725  16.870  0.00  0.00    +0.000 C 
BRANCH  17  19
ATOM     18  O   UNL     1       7.986   8.839  17.827  0.00  0.00    +0.000 OA
ATOM     19  C   UNL     1       7.956   7.620  17.946  0.00  0.00    +0.000 C 
BRANCH  19  20
ATOM     20  O   UNL     1       8.454   7.014  19.044  0.00  0.00    +0.000 OA
ATOM     21  H   UNL     1       8.872   6.145  18.885  0.00  0.00    +0.000 HD
ENDBRANCH  19  20
ENDBRANCH  17  19
ENDBRANCH   1  17
TORSDOF 3
ENDMDL
MODEL 5
REMARK VINA RESULT:      -7.5      4.153      6.609
REMARK  Name = 
REMARK  3 active torsions:
REMARK  status: ('A' for Active; 'I' for Inactive)
REMARK    1  A    between atoms: C_2  and  O_3
REMARK    2  A    between atoms: C_2  and  C_4
REMARK    3  A    between atoms: C_4  and  C_5
REMARK                            x       y       z     vdW  Elec       q    Type
REMARK                         _______ _______ _______ _____ _____    ______ ____
ROOT
ATOM      1  C   UNL     1       0.824   9.996  18.845  0.00  0.00    +0.000 A 
ATOM      2  C   UNL     1       1.706   9.758  17.781  0.00  0.00    +0.000 A 
ATOM      3  C   UNL     1       2.505   8.615  17.776  0.00  0.00    +0.000 A 
ATOM      4  C   UNL     1       2.427   7.701  18.830  0.00  0.00    +0.000 A 
ATOM      5  C   UNL     1       1.617   7.961  19.943  0.00  0.00    +0.000 A 
ATOM      6  C   UNL     1       0.816   9.112  19.939  0.00  0.00    +0.000 A 
ATOM      7  C   UNL     1       1.606   7.101  21.131  0.00  0.00    +0.000 C 
ATOM      8  C   UNL     1       1.683   5.762  21.103  0.00  0.00    +0.000 C 
ATOM      9  C   UNL     1       1.764   4.967  19.872  0.00  0.00    +0.000 A 
ATOM     10  C   UNL     1       1.103   3.735  19.828  0.00  0.00    +0.000 A 
ATOM     11  C   UNL     1       1.166   2.953  18.679  0.00  0.00    +0.000 A 
ATOM     12  F   UNL     1       0.508   1.786  18.641  0.00  0.00    +0.000 F 
ATOM     13  C   UNL     1       1.898   3.360  17.569  0.00  0.00    +0.000 A 
ATOM     14  C   UNL     1       2.578   4.576  17.607  0.00  0.00    +0.000 A 
ATOM     15  C   UNL     1       2.497   5.384  18.747  0.00  0.00    +0.000 A 
ATOM     16  O   UNL     1       3.206   6.568  18.723  0.00  0.00    +0.000 OA
ENDROOT
BRANCH   1  17
ATOM     17  C   UNL     1      -0.112  11.184  18.815  0.00  0.00    +0.000 C 
BRANCH  17  19
ATOM     18  O   UNL     1      -1.933  10.047  17.746  0.00  0.00    +0.000 OA
ATOM     19  C   UNL     1      -1.323  11.096  17.912  0.00  0.00    +0.000 C 
BRANCH  19  20
ATOM     20  O   UNL     1      -1.698  12.227  17.279  0.00  0.00    +0.000 OA
ATOM     21  H   UNL     1      -2.657  12.412  17.293  0.00  0.00    +0.000 HD
ENDBRANCH  19  20
ENDBRANCH  17  19
ENDBRANCH   1  17
TORSDOF 3
ENDMDL
MODEL 6
REMARK VINA RESULT:      -7.4      3.136      6.508
REMARK  Name = 
REMARK  3 active torsions:
REMARK  status: ('A' for Active; 'I' for Inactive)
REMARK    1  A    between atoms: C_2  and  O_3
REMARK    2  A    between atoms: C_2  and  C_4
REMARK    3  A    between atoms: C_4  and  C_5
REMARK                            x       y       z     vdW  Elec       q    Type
REMARK                         _______ _______ _______ _____ _____    ______ ____
ROOT
ATOM      1  C   UNL     1       1.704   3.114  19.290  0.00  0.00    +0.000 A 
ATOM      2  C   UNL     1       2.430   2.237  18.472  0.00  0.00    +0.000 A 
ATOM      3  C   UNL     1       3.265   2.740  17.474  0.00  0.00    +0.000 A 
ATOM      4  C   UNL     1       3.383   4.120  17.288  0.00  0.00    +0.000 A 
ATOM      5  C   UNL     1       2.602   5.011  18.036  0.00  0.00    +0.000 A 
ATOM      6  C   UNL     1       1.767   4.497  19.038  0.00  0.00    +0.000 A 
ATOM      7  C   UNL     1       2.590   6.456  17.784  0.00  0.00    +0.000 C 
ATOM      8  C   UNL     1       3.670   7.181  17.457  0.00  0.00    +0.000 C 
ATOM      9  C   UNL     1       5.024   6.630  17.329  0.00  0.00    +0.000 A 
ATOM     10  C   UNL     1       6.106   7.415  17.746  0.00  0.00    +0.000 A 
ATOM     11  C   UNL     1       7.403   6.925  17.633  0.00  0.00    +0.000 A 
ATOM     12  F   UNL     1       8.428   7.677  18.058  0.00  0.00    +0.000 F 
ATOM     13  C   UNL     1       7.656   5.671  17.088  0.00  0.00    +0.000 A 
ATOM     14  C   UNL     1       6.590   4.888  16.650  0.00  0.00    +0.000 A 
ATOM     15  C   UNL     1       5.278   5.359  16.787  0.00  0.00    +0.000 A 
ATOM     16  O   UNL     1       4.271   4.538  16.320  0.00  0.00    +0.000 OA
ENDROOT
BRANCH   1  17
ATOM     17  C   UNL     1       0.869   2.583  20.435  0.00  0.00    +0.000 C 
BRANCH  17  19
ATOM     18  O   UNL     1       2.725   2.654  21.950  0.00  0.00    +0.000 OA
ATOM     19  C   UNL     1       1.518   2.514  21.799  0.00  0.00    +0.000 C 
BRANCH  19  20
ATOM     20  O   UNL     1       0.708   2.274  22.851  0.00  0.00    +0.000 OA
ATOM     21  H   UNL     1      -0.025   1.650  22.677  0.00  0.00    +0.000 HD
ENDBRANCH  19  20
ENDBRANCH  17  19
ENDBRANCH   1  17
TORSDOF 3
ENDMDL
MODEL 7
REMARK VINA RESULT:      -7.4      4.245      6.052
REMARK  Name = 
REMARK  3 active torsions:
REMARK  status: ('A' for Active; 'I' for Inactive)
REMARK    1  A    between atoms: C_2  and  O_3
REMARK    2  A    between atoms: C_2  and  C_4
REMARK    3  A    between atoms: C_4  and  C_5
REMARK                            x       y       z     vdW  Elec       q    Type
REMARK                         _______ _______ _______ _____ _____    ______ ____
ROOT
ATOM      1  C   UNL     1       1.973   4.487  18.771  0.00  0.00    +0.000 A 
ATOM      2  C   UNL     1       1.743   4.615  20.148  0.00  0.00    +0.000 A 
ATOM      3  C   UNL     1       1.760   5.875  20.747  0.00  0.00    +0.000 A 
ATOM      4  C   UNL     1       2.003   7.015  19.976  0.00  0.00    +0.000 A 
ATOM      5  C   UNL     1       2.320   6.902  18.616  0.00  0.00    +0.000 A 
ATOM      6  C   UNL     1       2.299   5.633  18.022  0.00  0.00    +0.000 A 
ATOM      7  C   UNL     1       2.715   8.055  17.798  0.00  0.00    +0.000 C 
ATOM      8  C   UNL     1       2.177   9.279  17.897  0.00  0.00    +0.000 C 
ATOM      9  C   UNL     1       1.095   9.631  18.824  0.00  0.00    +0.000 A 
ATOM     10  C   UNL     1       0.124  10.545  18.401  0.00  0.00    +0.000 A 
ATOM     11  C   UNL     1      -0.911  10.906  19.258  0.00  0.00    +0.000 A 
ATOM     12  F   UNL     1      -1.849  11.764  18.831  0.00  0.00    +0.000 F 
ATOM     13  C   UNL     1      -0.991  10.393  20.548  0.00  0.00    +0.000 A 
ATOM     14  C   UNL     1      -0.020   9.498  20.989  0.00  0.00    +0.000 A 
ATOM     15  C   UNL     1       1.010   9.105  20.125  0.00  0.00    +0.000 A 
ATOM     16  O   UNL     1       1.946   8.227  20.631  0.00  0.00    +0.000 OA
ENDROOT
BRANCH   1  17
ATOM     17  C   UNL     1       1.865   3.138  18.096  0.00  0.00    +0.000 C 
BRANCH  17  19
ATOM     18  O   UNL     1       4.109   2.786  17.331  0.00  0.00    +0.000 OA
ATOM     19  C   UNL     1       3.137   2.338  17.927  0.00  0.00    +0.000 C 
BRANCH  19  20
ATOM     20  O   UNL     1       3.153   1.095  18.451  0.00  0.00    +0.000 OA
ATOM     21  H   UNL     1       3.638   0.429  17.925  0.00  0.00    +0.000 HD
ENDBRANCH  19  20
ENDBRANCH  17  19
ENDBRANCH   1  17
TORSDOF 3
ENDMDL
MODEL 8
REMARK VINA RESULT:      -7.4      4.732      6.395
REMARK  Name = 
REMARK  3 active torsions:
REMARK  status: ('A' for Active; 'I' for Inactive)
REMARK    1  A    between atoms: C_2  and  O_3
REMARK    2  A    between atoms: C_2  and  C_4
REMARK    3  A    between atoms: C_4  and  C_5
REMARK                            x       y       z     vdW  Elec       q    Type
REMARK                         _______ _______ _______ _____ _____    ______ ____
ROOT
ATOM      1  C   UNL     1       2.120   4.776  18.502  0.00  0.00    +0.000 A 
ATOM      2  C   UNL     1       1.922   4.799  19.890  0.00  0.00    +0.000 A 
ATOM      3  C   UNL     1       1.895   6.014  20.574  0.00  0.00    +0.000 A 
ATOM      4  C   UNL     1       2.062   7.214  19.878  0.00  0.00    +0.000 A 
ATOM      5  C   UNL     1       2.347   7.210  18.506  0.00  0.00    +0.000 A 
ATOM      6  C   UNL     1       2.370   5.985  17.826  0.00  0.00    +0.000 A 
ATOM      7  C   UNL     1       2.664   8.434  17.760  0.00  0.00    +0.000 C 
ATOM      8  C   UNL     1       2.070   9.620  17.956  0.00  0.00    +0.000 C 
ATOM      9  C   UNL     1       0.999   9.855  18.931  0.00  0.00    +0.000 A 
ATOM     10  C   UNL     1      -0.026  10.746  18.595  0.00  0.00    +0.000 A 
ATOM     11  C   UNL     1      -1.054  10.996  19.500  0.00  0.00    +0.000 A 
ATOM     12  F   UNL     1      -2.042  11.833  19.156  0.00  0.00    +0.000 F 
ATOM     13  C   UNL     1      -1.074  10.393  20.753  0.00  0.00    +0.000 A 
ATOM     14  C   UNL     1      -0.048   9.520  21.108  0.00  0.00    +0.000 A 
ATOM     15  C   UNL     1       0.974   9.238  20.194  0.00  0.00    +0.000 A 
ATOM     16  O   UNL     1       1.966   8.375  20.616  0.00  0.00    +0.000 OA
ENDROOT
BRANCH   1  17
ATOM     17  C   UNL     1       2.058   3.472  17.739  0.00  0.00    +0.000 C 
BRANCH  17  19
ATOM     18  O   UNL     1       0.217   2.161  18.537  0.00  0.00    +0.000 OA
ATOM     19  C   UNL     1       1.431   2.284  18.435  0.00  0.00    +0.000 C 
BRANCH  19  20
ATOM     20  O   UNL     1       2.271   1.366  18.956  0.00  0.00    +0.000 OA
ATOM     21  H   UNL     1       3.069   1.732  19.387  0.00  0.00    +0.000 HD
ENDBRANCH  19  20
ENDBRANCH  17  19
ENDBRANCH   1  17
TORSDOF 3
ENDMDL
MODEL 9
REMARK VINA RESULT:      -7.3      3.391      6.392
REMARK  Name = 
REMARK  3 active torsions:
REMARK  status: ('A' for Active; 'I' for Inactive)
REMARK    1  A    between atoms: C_2  and  O_3
REMARK    2  A    between atoms: C_2  and  C_4
REMARK    3  A    between atoms: C_4  and  C_5
REMARK                            x       y       z     vdW  Elec       q    Type
REMARK                         _______ _______ _______ _____ _____    ______ ____
ROOT
ATOM      1  C   UNL     1       2.827   3.402  18.685  0.00  0.00    +0.000 A 
ATOM      2  C   UNL     1       3.794   2.973  19.605  0.00  0.00    +0.000 A 
ATOM      3  C   UNL     1       5.145   3.228  19.370  0.00  0.00    +0.000 A 
ATOM      4  C   UNL     1       5.540   3.913  18.218  0.00  0.00    +0.000 A 
ATOM      5  C   UNL     1       4.599   4.275  17.245  0.00  0.00    +0.000 A 
ATOM      6  C   UNL     1       3.243   4.016  17.490  0.00  0.00    +0.000 A 
ATOM      7  C   UNL     1       4.980   4.873  15.960  0.00  0.00    +0.000 C 
ATOM      8  C   UNL     1       5.961   5.773  15.800  0.00  0.00    +0.000 C 
ATOM      9  C   UNL     1       6.777   6.306  16.897  0.00  0.00    +0.000 A 
ATOM     10  C   UNL     1       7.167   7.649  16.848  0.00  0.00    +0.000 A 
ATOM     11  C   UNL     1       7.947   8.184  17.868  0.00  0.00    +0.000 A 
ATOM     12  F   UNL     1       8.294   9.478  17.821  0.00  0.00    +0.000 F 
ATOM     13  C   UNL     1       8.373   7.402  18.936  0.00  0.00    +0.000 A 
ATOM     14  C   UNL     1       8.008   6.058  18.988  0.00  0.00    +0.000 A 
ATOM     15  C   UNL     1       7.199   5.517  17.981  0.00  0.00    +0.000 A 
ATOM     16  O   UNL     1       6.887   4.176  18.087  0.00  0.00    +0.000 OA
ENDROOT
BRANCH   1  17
ATOM     17  C   UNL     1       1.354   3.213  18.975  0.00  0.00    +0.000 C 
BRANCH  17  19
ATOM     18  O   UNL     1       0.633   4.856  20.566  0.00  0.00    +0.000 OA
ATOM     19  C   UNL     1       0.843   3.673  20.322  0.00  0.00    +0.000 C 
BRANCH  19  20
ATOM     20  O   UNL     1       0.642   2.723  21.258  0.00  0.00    +0.000 OA
ATOM     21  H   UNL     1      -0.070   2.916  21.899  0.00  0.00    +0.000 HD
ENDBRANCH  19  20
ENDBRANCH  17  19
ENDBRANCH   1  17
TORSDOF 3
ENDMDL
