MODEL 1
REMARK VINA RESULT:      -8.1      0.000      0.000
REMARK  Name = 
REMARK  7 active torsions:
REMARK  status: ('A' for Active; 'I' for Inactive)
REMARK    1  A    between atoms: C_1  and  C_2
REMARK    2  A    between atoms: C_5  and  S_6
REMARK    3  A    between atoms: S_6  and  N_9
REMARK    4  A    between atoms: C_16  and  N_17
REMARK    5  A    between atoms: C_18  and  C_20
REMARK    6  A    between atoms: C_20  and  S_21
REMARK    7  A    between atoms: S_21  and  C_22
REMARK                            x       y       z     vdW  Elec       q    Type
REMARK                         _______ _______ _______ _____ _____    ______ ____
ROOT
ATOM      1  C   UNL     1       3.516   7.148  17.130  0.00  0.00    +0.000 C 
ATOM      2  C   UNL     1       2.667   7.950  18.082  0.00  0.00    +0.000 A 
ATOM      3  C   UNL     1       2.175   9.188  17.630  0.00  0.00    +0.000 A 
ATOM      4  C   UNL     1       1.400   9.997  18.456  0.00  0.00    +0.000 A 
ATOM      5  C   UNL     1       1.101   9.572  19.750  0.00  0.00    +0.000 A 
ATOM      6  C   UNL     1       1.592   8.350  20.225  0.00  0.00    +0.000 A 
ATOM      7  C   UNL     1       2.365   7.521  19.395  0.00  0.00    +0.000 A 
ENDROOT
BRANCH   7   8
ATOM      8  N   UNL     1       2.885   6.288  19.856  0.00  0.00    +0.000 N 
ATOM      9  C   UNL     1       2.369   5.025  19.611  0.00  0.00    +0.000 C 
ATOM     10  O   UNL     1       1.489   4.772  18.787  0.00  0.00    +0.000 OA
ATOM     11  H   UNL     1       3.730   6.315  20.413  0.00  0.00    +0.000 HD
BRANCH   9  12
ATOM     12  C   UNL     1       3.078   3.874  20.326  0.00  0.00    +0.000 C 
BRANCH  12  13
ATOM     13  S   UNL     1       4.151   2.851  19.257  0.00  0.00    +0.000 S 
BRANCH  13  14
ATOM     14  C   UNL     1       5.396   4.049  18.757  0.00  0.00    +0.000 A 
ATOM     15  N   UNL     1       6.009   4.693  19.766  0.00  0.00    +0.000 NA
ATOM     16  C   UNL     1       6.883   5.639  19.421  0.00  0.00    +0.000 A 
ATOM     17  N   UNL     1       7.207   5.986  18.171  0.00  0.00    +0.000 NA
ATOM     18  C   UNL     1       6.602   5.326  17.180  0.00  0.00    +0.000 A 
ATOM     19  C   UNL     1       6.922   5.675  15.874  0.00  0.00    +0.000 A 
ATOM     20  C   UNL     1       6.340   5.042  14.774  0.00  0.00    +0.000 A 
ATOM     21  C   UNL     1       5.413   4.030  14.975  0.00  0.00    +0.000 A 
ATOM     22  C   UNL     1       5.071   3.664  16.277  0.00  0.00    +0.000 A 
ATOM     23  C   UNL     1       5.660   4.312  17.399  0.00  0.00    +0.000 A 
ENDBRANCH  13  14
ENDBRANCH  12  13
ENDBRANCH   9  12
ENDBRANCH   7   8
BRANCH   5  24
ATOM     24  S   UNL     1       0.212  10.677  20.837  0.00  0.00    +0.000 S 
ATOM     25  O   UNL     1      -1.194  10.344  20.749  0.00  0.00    +0.000 OA
ATOM     26  O   UNL     1       0.898  10.651  22.113  0.00  0.00    +0.000 OA
BRANCH  24  27
ATOM     27  N   UNL     1       0.455  12.226  20.148  0.00  0.00    +0.000 NA
ATOM     28  C   UNL     1      -0.729  12.823  19.481  0.00  0.00    +0.000 C 
ATOM     29  C   UNL     1      -0.333  14.047  18.660  0.00  0.00    +0.000 C 
ATOM     30  C   UNL     1       0.420  15.059  19.513  0.00  0.00    +0.000 C 
ATOM     31  C   UNL     1       1.639  14.396  20.142  0.00  0.00    +0.000 C 
ATOM     32  C   UNL     1       1.240  13.178  20.973  0.00  0.00    +0.000 C 
ENDBRANCH  24  27
ENDBRANCH   5  24
TORSDOF 6
ENDMDL
MODEL 2
REMARK VINA RESULT:      -8.1      1.520      1.727
REMARK  Name = 
REMARK  7 active torsions:
REMARK  status: ('A' for Active; 'I' for Inactive)
REMARK    1  A    between atoms: C_1  and  C_2
REMARK    2  A    between atoms: C_5  and  S_6
REMARK    3  A    between atoms: S_6  and  N_9
REMARK    4  A    between atoms: C_16  and  N_17
REMARK    5  A    between atoms: C_18  and  C_20
REMARK    6  A    between atoms: C_20  and  S_21
REMARK    7  A    between atoms: S_21  and  C_22
REMARK                            x       y       z     vdW  Elec       q    Type
REMARK                         _______ _______ _______ _____ _____    ______ ____
ROOT
ATOM      1  C   UNL     1       3.650   7.271  17.285  0.00  0.00    +0.000 C 
ATOM      2  C   UNL     1       2.737   7.981  18.250  0.00  0.00    +0.000 A 
ATOM      3  C   UNL     1       2.248   9.246  17.873  0.00  0.00    +0.000 A 
ATOM      4  C   UNL     1       1.414   9.973  18.718  0.00  0.00    +0.000 A 
ATOM      5  C   UNL     1       1.053   9.440  19.954  0.00  0.00    +0.000 A 
ATOM      6  C   UNL     1       1.538   8.189  20.354  0.00  0.00    +0.000 A 
ATOM      7  C   UNL     1       2.370   7.442  19.505  0.00  0.00    +0.000 A 
ENDROOT
BRANCH   7   8
ATOM      8  N   UNL     1       2.885   6.181  19.891  0.00  0.00    +0.000 N 
ATOM      9  C   UNL     1       2.425   4.937  19.491  0.00  0.00    +0.000 C 
ATOM     10  O   UNL     1       1.621   4.744  18.579  0.00  0.00    +0.000 OA
ATOM     11  H   UNL     1       3.683   6.173  20.516  0.00  0.00    +0.000 HD
BRANCH   9  12
ATOM     12  C   UNL     1       3.107   3.738  20.153  0.00  0.00    +0.000 C 
BRANCH  12  13
ATOM     13  S   UNL     1       4.204   2.776  19.054  0.00  0.00    +0.000 S 
BRANCH  13  14
ATOM     14  C   UNL     1       5.434   4.013  18.612  0.00  0.00    +0.000 A 
ATOM     15  N   UNL     1       5.970   4.682  19.648  0.00  0.00    +0.000 NA
ATOM     16  C   UNL     1       6.829   5.656  19.343  0.00  0.00    +0.000 A 
ATOM     17  N   UNL     1       7.208   6.007  18.110  0.00  0.00    +0.000 NA
ATOM     18  C   UNL     1       6.678   5.322  17.093  0.00  0.00    +0.000 A 
ATOM     19  C   UNL     1       7.056   5.675  15.803  0.00  0.00    +0.000 A 
ATOM     20  C   UNL     1       6.555   5.016  14.678  0.00  0.00    +0.000 A 
ATOM     21  C   UNL     1       5.652   3.975  14.837  0.00  0.00    +0.000 A 
ATOM     22  C   UNL     1       5.255   3.604  16.121  0.00  0.00    +0.000 A 
ATOM     23  C   UNL     1       5.760   4.277  17.269  0.00  0.00    +0.000 A 
ENDBRANCH  13  14
ENDBRANCH  12  13
ENDBRANCH   9  12
ENDBRANCH   7   8
BRANCH   5  24
ATOM     24  S   UNL     1       0.086  10.440  21.076  0.00  0.00    +0.000 S 
ATOM     25  O   UNL     1      -0.564   9.547  22.012  0.00  0.00    +0.000 OA
ATOM     26  O   UNL     1       0.956  11.498  21.549  0.00  0.00    +0.000 OA
BRANCH  24  27
ATOM     27  N   UNL     1      -1.106  11.154  20.076  0.00  0.00    +0.000 NA
ATOM     28  C   UNL     1      -1.661  10.278  19.015  0.00  0.00    +0.000 C 
ATOM     29  C   UNL     1      -2.483  11.086  18.014  0.00  0.00    +0.000 C 
ATOM     30  C   UNL     1      -3.565  11.895  18.719  0.00  0.00    +0.000 C 
ATOM     31  C   UNL     1      -2.930  12.795  19.772  0.00  0.00    +0.000 C 
ATOM     32  C   UNL     1      -2.118  11.984  20.779  0.00  0.00    +0.000 C 
ENDBRANCH  24  27
ENDBRANCH   5  24
TORSDOF 6
ENDMDL
MODEL 3
REMARK VINA RESULT:      -7.8      1.747      2.521
REMARK  Name = 
REMARK  7 active torsions:
REMARK  status: ('A' for Active; 'I' for Inactive)
REMARK    1  A    between atoms: C_1  and  C_2
REMARK    2  A    between atoms: C_5  and  S_6
REMARK    3  A    between atoms: S_6  and  N_9
REMARK    4  A    between atoms: C_16  and  N_17
REMARK    5  A    between atoms: C_18  and  C_20
REMARK    6  A    between atoms: C_20  and  S_21
REMARK    7  A    between atoms: S_21  and  C_22
REMARK                            x       y       z     vdW  Elec       q    Type
REMARK                         _______ _______ _______ _____ _____    ______ ____
ROOT
ATOM      1  C   UNL     1       2.960   7.795  17.291  0.00  0.00    +0.000 C 
ATOM      2  C   UNL     1       2.229   8.126  18.565  0.00  0.00    +0.000 A 
ATOM      3  C   UNL     1       1.452   9.300  18.584  0.00  0.00    +0.000 A 
ATOM      4  C   UNL     1       0.762   9.684  19.729  0.00  0.00    +0.000 A 
ATOM      5  C   UNL     1       0.836   8.893  20.875  0.00  0.00    +0.000 A 
ATOM      6  C   UNL     1       1.613   7.729  20.883  0.00  0.00    +0.000 A 
ATOM      7  C   UNL     1       2.304   7.325  19.728  0.00  0.00    +0.000 A 
ENDROOT
BRANCH   7   8
ATOM      8  N   UNL     1       3.108   6.160  19.714  0.00  0.00    +0.000 N 
ATOM      9  C   UNL     1       2.673   4.852  19.574  0.00  0.00    +0.000 C 
ATOM     10  O   UNL     1       1.535   4.520  19.241  0.00  0.00    +0.000 OA
ATOM     11  H   UNL     1       4.110   6.282  19.801  0.00  0.00    +0.000 HD
BRANCH   9  12
ATOM     12  C   UNL     1       3.757   3.780  19.702  0.00  0.00    +0.000 C 
BRANCH  12  13
ATOM     13  S   UNL     1       4.225   2.971  18.132  0.00  0.00    +0.000 S 
BRANCH  13  14
ATOM     14  C   UNL     1       4.983   4.338  17.242  0.00  0.00    +0.000 A 
ATOM     15  N   UNL     1       4.528   4.530  15.992  0.00  0.00    +0.000 NA
ATOM     16  C   UNL     1       5.126   5.490  15.285  0.00  0.00    +0.000 A 
ATOM     17  N   UNL     1       6.116   6.277  15.716  0.00  0.00    +0.000 NA
ATOM     18  C   UNL     1       6.547   6.085  16.965  0.00  0.00    +0.000 A 
ATOM     19  C   UNL     1       7.579   6.890  17.430  0.00  0.00    +0.000 A 
ATOM     20  C   UNL     1       8.094   6.761  18.722  0.00  0.00    +0.000 A 
ATOM     21  C   UNL     1       7.569   5.806  19.579  0.00  0.00    +0.000 A 
ATOM     22  C   UNL     1       6.535   4.983  19.135  0.00  0.00    +0.000 A 
ATOM     23  C   UNL     1       6.011   5.109  17.818  0.00  0.00    +0.000 A 
ENDBRANCH  13  14
ENDBRANCH  12  13
ENDBRANCH   9  12
ENDBRANCH   7   8
BRANCH   5  24
ATOM     24  S   UNL     1       0.046   9.467  22.372  0.00  0.00    +0.000 S 
ATOM     25  O   UNL     1      -1.014   8.535  22.696  0.00  0.00    +0.000 OA
ATOM     26  O   UNL     1       1.103   9.741  23.324  0.00  0.00    +0.000 OA
BRANCH  24  27
ATOM     27  N   UNL     1      -0.654  10.965  21.927  0.00  0.00    +0.000 NA
ATOM     28  C   UNL     1      -1.723  11.465  22.827  0.00  0.00    +0.000 C 
ATOM     29  C   UNL     1      -2.468  12.634  22.191  0.00  0.00    +0.000 C 
ATOM     30  C   UNL     1      -1.504  13.737  21.772  0.00  0.00    +0.000 C 
ATOM     31  C   UNL     1      -0.453  13.169  20.827  0.00  0.00    +0.000 C 
ATOM     32  C   UNL     1       0.300  12.007  21.469  0.00  0.00    +0.000 C 
ENDBRANCH  24  27
ENDBRANCH   5  24
TORSDOF 6
ENDMDL
MODEL 4
REMARK VINA RESULT:      -7.8      2.657      9.106
REMARK  Name = 
REMARK  7 active torsions:
REMARK  status: ('A' for Active; 'I' for Inactive)
REMARK    1  A    between atoms: C_1  and  C_2
REMARK    2  A    between atoms: C_5  and  S_6
REMARK    3  A    between atoms: S_6  and  N_9
REMARK    4  A    between atoms: C_16  and  N_17
REMARK    5  A    between atoms: C_18  and  C_20
REMARK    6  A    between atoms: C_20  and  S_21
REMARK    7  A    between atoms: S_21  and  C_22
REMARK                            x       y       z     vdW  Elec       q    Type
REMARK                         _______ _______ _______ _____ _____    ______ ____
ROOT
ATOM      1  C   UNL     1       1.006   3.770  20.007  0.00  0.00    +0.000 C 
ATOM      2  C   UNL     1       2.024   4.294  19.028  0.00  0.00    +0.000 A 
ATOM      3  C   UNL     1       2.469   3.418  18.021  0.00  0.00    +0.000 A 
ATOM      4  C   UNL     1       3.422   3.822  17.090  0.00  0.00    +0.000 A 
ATOM      5  C   UNL     1       3.939   5.115  17.151  0.00  0.00    +0.000 A 
ATOM      6  C   UNL     1       3.519   5.998  18.153  0.00  0.00    +0.000 A 
ATOM      7  C   UNL     1       2.550   5.606  19.090  0.00  0.00    +0.000 A 
ENDROOT
BRANCH   7   8
ATOM      8  N   UNL     1       2.119   6.475  20.120  0.00  0.00    +0.000 N 
ATOM      9  C   UNL     1       1.861   7.832  20.010  0.00  0.00    +0.000 C 
ATOM     10  O   UNL     1       1.779   8.448  18.947  0.00  0.00    +0.000 OA
ATOM     11  H   UNL     1       1.965   6.073  21.038  0.00  0.00    +0.000 HD
BRANCH   9  12
ATOM     12  C   UNL     1       1.510   8.545  21.317  0.00  0.00    +0.000 C 
BRANCH  12  13
ATOM     13  S   UNL     1      -0.193   9.202  21.399  0.00  0.00    +0.000 S 
BRANCH  13  14
ATOM     14  C   UNL     1       0.115  10.975  21.424  0.00  0.00    +0.000 A 
ATOM     15  N   UNL     1       1.186  11.380  20.719  0.00  0.00    +0.000 NA
ATOM     16  C   UNL     1       1.479  12.680  20.782  0.00  0.00    +0.000 A 
ATOM     17  N   UNL     1       0.797  13.603  21.466  0.00  0.00    +0.000 NA
ATOM     18  C   UNL     1      -0.273  13.188  22.149  0.00  0.00    +0.000 A 
ATOM     19  C   UNL     1      -0.993  14.132  22.870  0.00  0.00    +0.000 A 
ATOM     20  C   UNL     1      -2.125  13.791  23.614  0.00  0.00    +0.000 A 
ATOM     21  C   UNL     1      -2.557  12.473  23.641  0.00  0.00    +0.000 A 
ATOM     22  C   UNL     1      -1.850  11.506  22.928  0.00  0.00    +0.000 A 
ATOM     23  C   UNL     1      -0.693  11.850  22.174  0.00  0.00    +0.000 A 
ENDBRANCH  13  14
ENDBRANCH  12  13
ENDBRANCH   9  12
ENDBRANCH   7   8
BRANCH   5  24
ATOM     24  S   UNL     1       5.250   5.574  16.027  0.00  0.00    +0.000 S 
ATOM     25  O   UNL     1       5.571   4.411  15.226  0.00  0.00    +0.000 OA
ATOM     26  O   UNL     1       4.845   6.814  15.397  0.00  0.00    +0.000 OA
BRANCH  24  27
ATOM     27  N   UNL     1       6.577   5.920  17.052  0.00  0.00    +0.000 NA
ATOM     28  C   UNL     1       6.743   7.347  17.425  0.00  0.00    +0.000 C 
ATOM     29  C   UNL     1       8.099   7.584  18.084  0.00  0.00    +0.000 C 
ATOM     30  C   UNL     1       8.302   6.650  19.271  0.00  0.00    +0.000 C 
ATOM     31  C   UNL     1       8.151   5.204  18.818  0.00  0.00    +0.000 C 
ATOM     32  C   UNL     1       6.790   4.965  18.169  0.00  0.00    +0.000 C 
ENDBRANCH  24  27
ENDBRANCH   5  24
TORSDOF 6
ENDMDL
MODEL 5
REMARK VINA RESULT:      -7.6      2.754      9.646
REMARK  Name = 
REMARK  7 active torsions:
REMARK  status: ('A' for Active; 'I' for Inactive)
REMARK    1  A    between atoms: C_1  and  C_2
REMARK    2  A    between atoms: C_5  and  S_6
REMARK    3  A    between atoms: S_6  and  N_9
REMARK    4  A    between atoms: C_16  and  N_17
REMARK    5  A    between atoms: C_18  and  C_20
REMARK    6  A    between atoms: C_20  and  S_21
REMARK    7  A    between atoms: S_21  and  C_22
REMARK                            x       y       z     vdW  Elec       q    Type
REMARK                         _______ _______ _______ _____ _____    ______ ____
ROOT
ATOM      1  C   UNL     1       1.543   4.338  18.939  0.00  0.00    +0.000 C 
ATOM      2  C   UNL     1       2.849   4.688  18.273  0.00  0.00    +0.000 A 
ATOM      3  C   UNL     1       3.571   3.642  17.669  0.00  0.00    +0.000 A 
ATOM      4  C   UNL     1       4.794   3.881  17.049  0.00  0.00    +0.000 A 
ATOM      5  C   UNL     1       5.310   5.176  17.022  0.00  0.00    +0.000 A 
ATOM      6  C   UNL     1       4.615   6.228  17.628  0.00  0.00    +0.000 A 
ATOM      7  C   UNL     1       3.373   6.000  18.246  0.00  0.00    +0.000 A 
ENDROOT
BRANCH   7   8
ATOM      8  N   UNL     1       2.656   7.044  18.878  0.00  0.00    +0.000 N 
ATOM      9  C   UNL     1       2.309   8.267  18.326  0.00  0.00    +0.000 C 
ATOM     10  O   UNL     1       2.401   8.552  17.131  0.00  0.00    +0.000 OA
ATOM     11  H   UNL     1       2.346   6.889  19.830  0.00  0.00    +0.000 HD
BRANCH   9  12
ATOM     12  C   UNL     1       1.625   9.249  19.278  0.00  0.00    +0.000 C 
BRANCH  12  13
ATOM     13  S   UNL     1       0.201  10.145  18.564  0.00  0.00    +0.000 S 
BRANCH  13  14
ATOM     14  C   UNL     1       0.404  11.774  19.300  0.00  0.00    +0.000 A 
ATOM     15  N   UNL     1       1.157  12.633  18.591  0.00  0.00    +0.000 NA
ATOM     16  C   UNL     1       1.385  13.822  19.150  0.00  0.00    +0.000 A 
ATOM     17  N   UNL     1       0.920  14.231  20.334  0.00  0.00    +0.000 NA
ATOM     18  C   UNL     1       0.161  13.372  21.020  0.00  0.00    +0.000 A 
ATOM     19  C   UNL     1      -0.327  13.777  22.256  0.00  0.00    +0.000 A 
ATOM     20  C   UNL     1      -1.128  12.948  23.044  0.00  0.00    +0.000 A 
ATOM     21  C   UNL     1      -1.456  11.678  22.592  0.00  0.00    +0.000 A 
ATOM     22  C   UNL     1      -0.975  11.247  21.356  0.00  0.00    +0.000 A 
ATOM     23  C   UNL     1      -0.154  12.089  20.553  0.00  0.00    +0.000 A 
ENDBRANCH  13  14
ENDBRANCH  12  13
ENDBRANCH   9  12
ENDBRANCH   7   8
BRANCH   5  24
ATOM     24  S   UNL     1       6.938   5.441  16.334  0.00  0.00    +0.000 S 
ATOM     25  O   UNL     1       7.241   6.852  16.451  0.00  0.00    +0.000 OA
ATOM     26  O   UNL     1       7.810   4.448  16.929  0.00  0.00    +0.000 OA
BRANCH  24  27
ATOM     27  N   UNL     1       6.760   5.051  14.676  0.00  0.00    +0.000 NA
ATOM     28  C   UNL     1       7.917   5.389  13.811  0.00  0.00    +0.000 C 
ATOM     29  C   UNL     1       7.546   5.275  12.335  0.00  0.00    +0.000 C 
ATOM     30  C   UNL     1       6.970   3.900  12.019  0.00  0.00    +0.000 C 
ATOM     31  C   UNL     1       5.770   3.627  12.916  0.00  0.00    +0.000 C 
ATOM     32  C   UNL     1       6.145   3.730  14.392  0.00  0.00    +0.000 C 
ENDBRANCH  24  27
ENDBRANCH   5  24
TORSDOF 6
ENDMDL
MODEL 6
REMARK VINA RESULT:      -7.6      2.732      9.835
REMARK  Name = 
REMARK  7 active torsions:
REMARK  status: ('A' for Active; 'I' for Inactive)
REMARK    1  A    between atoms: C_1  and  C_2
REMARK    2  A    between atoms: C_5  and  S_6
REMARK    3  A    between atoms: S_6  and  N_9
REMARK    4  A    between atoms: C_16  and  N_17
REMARK    5  A    between atoms: C_18  and  C_20
REMARK    6  A    between atoms: C_20  and  S_21
REMARK    7  A    between atoms: S_21  and  C_22
REMARK                            x       y       z     vdW  Elec       q    Type
REMARK                         _______ _______ _______ _____ _____    ______ ____
ROOT
ATOM      1  C   UNL     1       0.774  10.991  18.793  0.00  0.00    +0.000 C 
ATOM      2  C   UNL     1       1.353   9.606  18.915  0.00  0.00    +0.000 A 
ATOM      3  C   UNL     1       1.796   8.979  17.735  0.00  0.00    +0.000 A 
ATOM      4  C   UNL     1       2.326   7.693  17.762  0.00  0.00    +0.000 A 
ATOM      5  C   UNL     1       2.426   7.015  18.977  0.00  0.00    +0.000 A 
ATOM      6  C   UNL     1       1.979   7.614  20.160  0.00  0.00    +0.000 A 
ATOM      7  C   UNL     1       1.454   8.917  20.146  0.00  0.00    +0.000 A 
ENDROOT
BRANCH   7   8
ATOM      8  N   UNL     1       0.983   9.540  21.326  0.00  0.00    +0.000 N 
ATOM      9  C   UNL     1      -0.173   9.230  22.025  0.00  0.00    +0.000 C 
ATOM     10  O   UNL     1      -0.865   8.230  21.834  0.00  0.00    +0.000 OA
ATOM     11  H   UNL     1       1.547  10.284  21.720  0.00  0.00    +0.000 HD
BRANCH   9  12
ATOM     12  C   UNL     1      -0.489  10.142  23.212  0.00  0.00    +0.000 C 
BRANCH  12  13
ATOM     13  S   UNL     1      -1.820  11.358  22.912  0.00  0.00    +0.000 S 
BRANCH  13  14
ATOM     14  C   UNL     1      -0.870  12.867  22.668  0.00  0.00    +0.000 A 
ATOM     15  N   UNL     1       0.174  12.757  21.829  0.00  0.00    +0.000 NA
ATOM     16  C   UNL     1       0.939  13.841  21.688  0.00  0.00    +0.000 A 
ATOM     17  N   UNL     1       0.746  15.016  22.293  0.00  0.00    +0.000 NA
ATOM     18  C   UNL     1      -0.304  15.115  23.112  0.00  0.00    +0.000 A 
ATOM     19  C   UNL     1      -0.519  16.329  23.754  0.00  0.00    +0.000 A 
ATOM     20  C   UNL     1      -1.590  16.525  24.628  0.00  0.00    +0.000 A 
ATOM     21  C   UNL     1      -2.478  15.487  24.871  0.00  0.00    +0.000 A 
ATOM     22  C   UNL     1      -2.282  14.258  24.242  0.00  0.00    +0.000 A 
ATOM     23  C   UNL     1      -1.188  14.054  23.355  0.00  0.00    +0.000 A 
ENDBRANCH  13  14
ENDBRANCH  12  13
ENDBRANCH   9  12
ENDBRANCH   7   8
BRANCH   5  24
ATOM     24  S   UNL     1       2.991   5.320  18.975  0.00  0.00    +0.000 S 
ATOM     25  O   UNL     1       3.107   4.893  20.353  0.00  0.00    +0.000 OA
ATOM     26  O   UNL     1       2.144   4.597  18.048  0.00  0.00    +0.000 OA
BRANCH  24  27
ATOM     27  N   UNL     1       4.559   5.403  18.291  0.00  0.00    +0.000 NA
ATOM     28  C   UNL     1       5.682   5.201  19.238  0.00  0.00    +0.000 C 
ATOM     29  C   UNL     1       7.013   5.582  18.596  0.00  0.00    +0.000 C 
ATOM     30  C   UNL     1       7.222   4.835  17.284  0.00  0.00    +0.000 C 
ATOM     31  C   UNL     1       6.054   5.108  16.345  0.00  0.00    +0.000 C 
ATOM     32  C   UNL     1       4.725   4.715  16.985  0.00  0.00    +0.000 C 
ENDBRANCH  24  27
ENDBRANCH   5  24
TORSDOF 6
ENDMDL
MODEL 7
REMARK VINA RESULT:      -7.6      1.810      8.679
REMARK  Name = 
REMARK  7 active torsions:
REMARK  status: ('A' for Active; 'I' for Inactive)
REMARK    1  A    between atoms: C_1  and  C_2
REMARK    2  A    between atoms: C_5  and  S_6
REMARK    3  A    between atoms: S_6  and  N_9
REMARK    4  A    between atoms: C_16  and  N_17
REMARK    5  A    between atoms: C_18  and  C_20
REMARK    6  A    between atoms: C_20  and  S_21
REMARK    7  A    between atoms: S_21  and  C_22
REMARK                            x       y       z     vdW  Elec       q    Type
REMARK                         _______ _______ _______ _____ _____    ______ ____
ROOT
ATOM      1  C   UNL     1       1.437  10.145  18.820  0.00  0.00    +0.000 C 
ATOM      2  C   UNL     1       1.858   8.702  18.919  0.00  0.00    +0.000 A 
ATOM      3  C   UNL     1       2.208   8.043  17.726  0.00  0.00    +0.000 A 
ATOM      4  C   UNL     1       2.590   6.705  17.732  0.00  0.00    +0.000 A 
ATOM      5  C   UNL     1       2.632   6.007  18.938  0.00  0.00    +0.000 A 
ATOM      6  C   UNL     1       2.276   6.640  20.134  0.00  0.00    +0.000 A 
ATOM      7  C   UNL     1       1.900   7.993  20.142  0.00  0.00    +0.000 A 
ENDROOT
BRANCH   7   8
ATOM      8  N   UNL     1       1.522   8.652  21.336  0.00  0.00    +0.000 N 
ATOM      9  C   UNL     1       0.251   8.714  21.884  0.00  0.00    +0.000 C 
ATOM     10  O   UNL     1      -0.708   8.035  21.516  0.00  0.00    +0.000 OA
ATOM     11  H   UNL     1       2.250   9.121  21.862  0.00  0.00    +0.000 HD
BRANCH   9  12
ATOM     12  C   UNL     1       0.114   9.589  23.132  0.00  0.00    +0.000 C 
BRANCH  12  13
ATOM     13  S   UNL     1      -1.278  10.772  23.090  0.00  0.00    +0.000 S 
BRANCH  13  14
ATOM     14  C   UNL     1      -0.631  12.038  21.986  0.00  0.00    +0.000 A 
ATOM     15  N   UNL     1       0.123  12.981  22.577  0.00  0.00    +0.000 NA
ATOM     16  C   UNL     1       0.553  13.972  21.794  0.00  0.00    +0.000 A 
ATOM     17  N   UNL     1       0.312  14.094  20.485  0.00  0.00    +0.000 NA
ATOM     18  C   UNL     1      -0.425  13.141  19.910  0.00  0.00    +0.000 A 
ATOM     19  C   UNL     1      -0.691  13.253  18.551  0.00  0.00    +0.000 A 
ATOM     20  C   UNL     1      -1.452  12.305  17.864  0.00  0.00    +0.000 A 
ATOM     21  C   UNL     1      -1.966  11.212  18.546  0.00  0.00    +0.000 A 
ATOM     22  C   UNL     1      -1.717  11.078  19.911  0.00  0.00    +0.000 A 
ATOM     23  C   UNL     1      -0.945  12.045  20.614  0.00  0.00    +0.000 A 
ENDBRANCH  13  14
ENDBRANCH  12  13
ENDBRANCH   9  12
ENDBRANCH   7   8
BRANCH   5  24
ATOM     24  S   UNL     1       3.003   4.259  18.910  0.00  0.00    +0.000 S 
ATOM     25  O   UNL     1       3.162   3.821  20.281  0.00  0.00    +0.000 OA
ATOM     26  O   UNL     1       2.020   3.637  18.047  0.00  0.00    +0.000 OA
BRANCH  24  27
ATOM     27  N   UNL     1       4.520   4.166  18.122  0.00  0.00    +0.000 NA
ATOM     28  C   UNL     1       4.469   4.096  16.641  0.00  0.00    +0.000 C 
ATOM     29  C   UNL     1       5.832   3.724  16.065  0.00  0.00    +0.000 C 
ATOM     30  C   UNL     1       6.914   4.676  16.560  0.00  0.00    +0.000 C 
ATOM     31  C   UNL     1       6.938   4.679  18.083  0.00  0.00    +0.000 C 
ATOM     32  C   UNL     1       5.576   5.062  18.658  0.00  0.00    +0.000 C 
ENDBRANCH  24  27
ENDBRANCH   5  24
TORSDOF 6
ENDMDL
MODEL 8
REMARK VINA RESULT:      -7.5      2.897      9.451
REMARK  Name = 
REMARK  7 active torsions:
REMARK  status: ('A' for Active; 'I' for Inactive)
REMARK    1  A    between atoms: C_1  and  C_2
REMARK    2  A    between atoms: C_5  and  S_6
REMARK    3  A    between atoms: S_6  and  N_9
REMARK    4  A    between atoms: C_16  and  N_17
REMARK    5  A    between atoms: C_18  and  C_20
REMARK    6  A    between atoms: C_20  and  S_21
REMARK    7  A    between atoms: S_21  and  C_22
REMARK                            x       y       z     vdW  Elec       q    Type
REMARK                         _______ _______ _______ _____ _____    ______ ____
ROOT
ATOM      1  C   UNL     1       1.744   4.232  19.148  0.00  0.00    +0.000 C 
ATOM      2  C   UNL     1       3.003   4.582  18.399  0.00  0.00    +0.000 A 
ATOM      3  C   UNL     1       3.997   3.591  18.298  0.00  0.00    +0.000 A 
ATOM      4  C   UNL     1       5.195   3.843  17.637  0.00  0.00    +0.000 A 
ATOM      5  C   UNL     1       5.414   5.094  17.062  0.00  0.00    +0.000 A 
ATOM      6  C   UNL     1       4.444   6.098  17.162  0.00  0.00    +0.000 A 
ATOM      7  C   UNL     1       3.226   5.851  17.816  0.00  0.00    +0.000 A 
ENDROOT
BRANCH   7   8
ATOM      8  N   UNL     1       2.235   6.853  17.943  0.00  0.00    +0.000 N 
ATOM      9  C   UNL     1       2.420   8.223  17.839  0.00  0.00    +0.000 C 
ATOM     10  O   UNL     1       3.443   8.765  17.422  0.00  0.00    +0.000 OA
ATOM     11  H   UNL     1       1.283   6.551  18.114  0.00  0.00    +0.000 HD
BRANCH   9  12
ATOM     12  C   UNL     1       1.184   9.078  18.128  0.00  0.00    +0.000 C 
BRANCH  12  13
ATOM     13  S   UNL     1       1.524  10.854  18.387  0.00  0.00    +0.000 S 
BRANCH  13  14
ATOM     14  C   UNL     1       0.206  11.302  19.527  0.00  0.00    +0.000 A 
ATOM     15  N   UNL     1      -0.640  12.247  19.081  0.00  0.00    +0.000 NA
ATOM     16  C   UNL     1      -1.582  12.650  19.935  0.00  0.00    +0.000 A 
ATOM     17  N   UNL     1      -1.760  12.188  21.177  0.00  0.00    +0.000 NA
ATOM     18  C   UNL     1      -0.921  11.239  21.600  0.00  0.00    +0.000 A 
ATOM     19  C   UNL     1      -1.087  10.750  22.890  0.00  0.00    +0.000 A 
ATOM     20  C   UNL     1      -0.258   9.758  23.418  0.00  0.00    +0.000 A 
ATOM     21  C   UNL     1       0.767   9.235  22.644  0.00  0.00    +0.000 A 
ATOM     22  C   UNL     1       0.957   9.712  21.348  0.00  0.00    +0.000 A 
ATOM     23  C   UNL     1       0.116  10.726  20.808  0.00  0.00    +0.000 A 
ENDBRANCH  13  14
ENDBRANCH  12  13
ENDBRANCH   9  12
ENDBRANCH   7   8
BRANCH   5  24
ATOM     24  S   UNL     1       7.006   5.440  16.328  0.00  0.00    +0.000 S 
ATOM     25  O   UNL     1       7.245   6.863  16.443  0.00  0.00    +0.000 OA
ATOM     26  O   UNL     1       7.942   4.488  16.891  0.00  0.00    +0.000 OA
BRANCH  24  27
ATOM     27  N   UNL     1       6.798   5.048  14.674  0.00  0.00    +0.000 NA
ATOM     28  C   UNL     1       7.959   5.338  13.796  0.00  0.00    +0.000 C 
ATOM     29  C   UNL     1       7.570   5.230  12.325  0.00  0.00    +0.000 C 
ATOM     30  C   UNL     1       6.941   3.876  12.021  0.00  0.00    +0.000 C 
ATOM     31  C   UNL     1       5.740   3.652  12.930  0.00  0.00    +0.000 C 
ATOM     32  C   UNL     1       6.133   3.748  14.403  0.00  0.00    +0.000 C 
ENDBRANCH  24  27
ENDBRANCH   5  24
TORSDOF 6
ENDMDL
MODEL 9
REMARK VINA RESULT:      -7.5      2.749      8.906
REMARK  Name = 
REMARK  7 active torsions:
REMARK  status: ('A' for Active; 'I' for Inactive)
REMARK    1  A    between atoms: C_1  and  C_2
REMARK    2  A    between atoms: C_5  and  S_6
REMARK    3  A    between atoms: S_6  and  N_9
REMARK    4  A    between atoms: C_16  and  N_17
REMARK    5  A    between atoms: C_18  and  C_20
REMARK    6  A    between atoms: C_20  and  S_21
REMARK    7  A    between atoms: S_21  and  C_22
REMARK                            x       y       z     vdW  Elec       q    Type
REMARK                         _______ _______ _______ _____ _____    ______ ____
ROOT
ATOM      1  C   UNL     1       1.043   4.983  20.404  0.00  0.00    +0.000 C 
ATOM      2  C   UNL     1       2.080   5.198  19.333  0.00  0.00    +0.000 A 
ATOM      3  C   UNL     1       2.627   4.056  18.719  0.00  0.00    +0.000 A 
ATOM      4  C   UNL     1       3.604   4.170  17.734  0.00  0.00    +0.000 A 
ATOM      5  C   UNL     1       4.044   5.434  17.345  0.00  0.00    +0.000 A 
ATOM      6  C   UNL     1       3.522   6.583  17.951  0.00  0.00    +0.000 A 
ATOM      7  C   UNL     1       2.527   6.480  18.938  0.00  0.00    +0.000 A 
ENDROOT
BRANCH   7   8
ATOM      8  N   UNL     1       1.993   7.625  19.576  0.00  0.00    +0.000 N 
ATOM      9  C   UNL     1       1.510   8.769  18.962  0.00  0.00    +0.000 C 
ATOM     10  O   UNL     1       1.288   8.881  17.756  0.00  0.00    +0.000 OA
ATOM     11  H   UNL     1       1.941   7.615  20.588  0.00  0.00    +0.000 HD
BRANCH   9  12
ATOM     12  C   UNL     1       1.090   9.896  19.907  0.00  0.00    +0.000 C 
BRANCH  12  13
ATOM     13  S   UNL     1       1.014  11.553  19.140  0.00  0.00    +0.000 S 
BRANCH  13  14
ATOM     14  C   UNL     1      -0.707  11.994  19.424  0.00  0.00    +0.000 A 
ATOM     15  N   UNL     1      -0.926  12.794  20.482  0.00  0.00    +0.000 NA
ATOM     16  C   UNL     1      -2.200  13.076  20.759  0.00  0.00    +0.000 A 
ATOM     17  N   UNL     1      -3.262  12.646  20.071  0.00  0.00    +0.000 NA
ATOM     18  C   UNL     1      -3.028  11.865  19.013  0.00  0.00    +0.000 A 
ATOM     19  C   UNL     1      -4.120  11.404  18.288  0.00  0.00    +0.000 A 
ATOM     20  C   UNL     1      -3.972  10.583  17.169  0.00  0.00    +0.000 A 
ATOM     21  C   UNL     1      -2.703  10.208  16.754  0.00  0.00    +0.000 A 
ATOM     22  C   UNL     1      -1.591  10.654  17.467  0.00  0.00    +0.000 A 
ATOM     23  C   UNL     1      -1.739  11.487  18.612  0.00  0.00    +0.000 A 
ENDBRANCH  13  14
ENDBRANCH  12  13
ENDBRANCH   9  12
ENDBRANCH   7   8
BRANCH   5  24
ATOM     24  S   UNL     1       5.385   5.557  16.171  0.00  0.00    +0.000 S 
ATOM     25  O   UNL     1       5.698   4.219  15.717  0.00  0.00    +0.000 OA
ATOM     26  O   UNL     1       5.017   6.590  15.223  0.00  0.00    +0.000 OA
BRANCH  24  27
ATOM     27  N   UNL     1       6.699   6.146  17.097  0.00  0.00    +0.000 NA
ATOM     28  C   UNL     1       6.821   7.624  17.168  0.00  0.00    +0.000 C 
ATOM     29  C   UNL     1       8.168   8.031  17.759  0.00  0.00    +0.000 C 
ATOM     30  C   UNL     1       8.396   7.368  19.112  0.00  0.00    +0.000 C 
ATOM     31  C   UNL     1       8.289   5.856  18.967  0.00  0.00    +0.000 C 
ATOM     32  C   UNL     1       6.937   5.449  18.386  0.00  0.00    +0.000 C 
ENDBRANCH  24  27
ENDBRANCH   5  24
TORSDOF 6
ENDMDL
