MODEL 1
REMARK VINA RESULT:      -7.9      0.000      0.000
REMARK  Name = 
REMARK  11 active torsions:
REMARK  status: ('A' for Active; 'I' for Inactive)
REMARK    1  A    between atoms: C_1  and  C_2
REMARK    2  A    between atoms: C_2  and  C_3
REMARK    3  A    between atoms: C_2  and  C_4
REMARK    4  A    between atoms: C_4  and  O_5
REMARK    5  A    between atoms: O_5  and  C_6
REMARK    6  A    between atoms: C_6  and  O_8
REMARK    7  A    between atoms: O_8  and  C_9
REMARK    8  A    between atoms: C_9  and  N_10
REMARK    9  A    between atoms: C_11  and  S_12
REMARK   10  A    between atoms: S_12  and  C_14
REMARK   11  A    between atoms: C_14  and  C_15
REMARK                            x       y       z     vdW  Elec       q    Type
REMARK                         _______ _______ _______ _____ _____    ______ ____
ROOT
ATOM      1  N   UNL     1       3.066   5.721  18.295  0.00  0.00    +0.000 N 
ATOM      2  C   UNL     1       4.022   5.288  17.363  0.00  0.00    +0.000 A 
ATOM      3  N   UNL     1       3.959   4.006  17.206  0.00  0.00    +0.000 NA
ATOM      4  C   UNL     1       2.978   3.538  18.040  0.00  0.00    +0.000 A 
ATOM      5  C   UNL     1       2.531   2.236  18.264  0.00  0.00    +0.000 A 
ATOM      6  C   UNL     1       1.501   2.010  19.179  0.00  0.00    +0.000 A 
ATOM      7  C   UNL     1       0.921   3.074  19.870  0.00  0.00    +0.000 A 
ATOM      8  C   UNL     1       1.351   4.393  19.668  0.00  0.00    +0.000 A 
ATOM      9  C   UNL     1       2.388   4.591  18.743  0.00  0.00    +0.000 A 
ENDROOT
BRANCH   2  10
ATOM     10  S   UNL     1       5.204   6.248  16.448  0.00  0.00    +0.000 S 
ATOM     11  O   UNL     1       5.836   7.247  17.499  0.00  0.00    +0.000 OA
BRANCH  10  12
ATOM     12  C   UNL     1       6.490   4.971  16.060  0.00  0.00    +0.000 C 
BRANCH  12  13
ATOM     13  C   UNL     1       6.708   4.742  14.573  0.00  0.00    +0.000 A 
ATOM     14  C   UNL     1       5.908   3.831  13.892  0.00  0.00    +0.000 A 
ATOM     15  C   UNL     1       6.168   3.544  12.560  0.00  0.00    +0.000 A 
ATOM     16  C   UNL     1       7.204   4.211  11.918  0.00  0.00    +0.000 A 
ATOM     17  C   UNL     1       7.906   5.166  12.634  0.00  0.00    +0.000 A 
ATOM     18  N   UNL     1       7.675   5.458  13.936  0.00  0.00    +0.000 NA
ENDBRANCH  12  13
ENDBRANCH  10  12
ENDBRANCH   2  10
BRANCH   1  19
ATOM     19  C   UNL     1       2.773   7.054  18.778  0.00  0.00    +0.000 C 
BRANCH  19  20
ATOM     20  O   UNL     1       2.045   7.800  17.786  0.00  0.00    +0.000 OA
BRANCH  20  21
ATOM     21  C   UNL     1       1.799   9.069  18.194  0.00  0.00    +0.000 C 
ATOM     22  O   UNL     1       2.135  10.078  17.591  0.00  0.00    +0.000 OA
BRANCH  21  23
ATOM     23  O   UNL     1       1.212   9.029  19.409  0.00  0.00    +0.000 OA
BRANCH  23  24
ATOM     24  C   UNL     1       0.081   9.899  19.542  0.00  0.00    +0.000 C 
BRANCH  24  26
ATOM     25  C   UNL     1       0.581   9.804  22.001  0.00  0.00    +0.000 C 
ATOM     26  C   UNL     1       0.146  10.701  20.842  0.00  0.00    +0.000 C 
ATOM     27  C   UNL     1       1.094  11.891  20.709  0.00  0.00    +0.000 C 
ENDBRANCH  24  26
ENDBRANCH  23  24
ENDBRANCH  21  23
ENDBRANCH  20  21
ENDBRANCH  19  20
ENDBRANCH   1  19
TORSDOF 9
ENDMDL
MODEL 2
REMARK VINA RESULT:      -7.7      1.484      1.743
REMARK  Name = 
REMARK  11 active torsions:
REMARK  status: ('A' for Active; 'I' for Inactive)
REMARK    1  A    between atoms: C_1  and  C_2
REMARK    2  A    between atoms: C_2  and  C_3
REMARK    3  A    between atoms: C_2  and  C_4
REMARK    4  A    between atoms: C_4  and  O_5
REMARK    5  A    between atoms: O_5  and  C_6
REMARK    6  A    between atoms: C_6  and  O_8
REMARK    7  A    between atoms: O_8  and  C_9
REMARK    8  A    between atoms: C_9  and  N_10
REMARK    9  A    between atoms: C_11  and  S_12
REMARK   10  A    between atoms: S_12  and  C_14
REMARK   11  A    between atoms: C_14  and  C_15
REMARK                            x       y       z     vdW  Elec       q    Type
REMARK                         _______ _______ _______ _____ _____    ______ ____
ROOT
ATOM      1  N   UNL     1       3.599   5.091  18.569  0.00  0.00    +0.000 N 
ATOM      2  C   UNL     1       4.847   4.470  18.401  0.00  0.00    +0.000 A 
ATOM      3  N   UNL     1       4.960   3.451  19.189  0.00  0.00    +0.000 NA
ATOM      4  C   UNL     1       3.804   3.369  19.921  0.00  0.00    +0.000 A 
ATOM      5  C   UNL     1       3.431   2.468  20.918  0.00  0.00    +0.000 A 
ATOM      6  C   UNL     1       2.180   2.593  21.526  0.00  0.00    +0.000 A 
ATOM      7  C   UNL     1       1.308   3.613  21.147  0.00  0.00    +0.000 A 
ATOM      8  C   UNL     1       1.656   4.536  20.151  0.00  0.00    +0.000 A 
ATOM      9  C   UNL     1       2.919   4.387  19.557  0.00  0.00    +0.000 A 
ENDROOT
BRANCH   2  10
ATOM     10  S   UNL     1       6.172   4.906  17.300  0.00  0.00    +0.000 S 
ATOM     11  O   UNL     1       7.496   4.453  18.037  0.00  0.00    +0.000 OA
BRANCH  10  12
ATOM     12  C   UNL     1       5.888   3.722  15.902  0.00  0.00    +0.000 C 
BRANCH  12  13
ATOM     13  C   UNL     1       6.457   4.186  14.571  0.00  0.00    +0.000 A 
ATOM     14  C   UNL     1       5.984   3.629  13.388  0.00  0.00    +0.000 A 
ATOM     15  C   UNL     1       6.570   3.975  12.179  0.00  0.00    +0.000 A 
ATOM     16  C   UNL     1       7.596   4.912  12.173  0.00  0.00    +0.000 A 
ATOM     17  C   UNL     1       7.960   5.489  13.379  0.00  0.00    +0.000 A 
ATOM     18  N   UNL     1       7.407   5.162  14.571  0.00  0.00    +0.000 NA
ENDBRANCH  12  13
ENDBRANCH  10  12
ENDBRANCH   2  10
BRANCH   1  19
ATOM     19  C   UNL     1       3.040   6.252  17.907  0.00  0.00    +0.000 C 
BRANCH  19  20
ATOM     20  O   UNL     1       2.660   7.247  18.874  0.00  0.00    +0.000 OA
BRANCH  20  21
ATOM     21  C   UNL     1       2.218   8.381  18.279  0.00  0.00    +0.000 C 
ATOM     22  O   UNL     1       2.586   8.791  17.188  0.00  0.00    +0.000 OA
BRANCH  21  23
ATOM     23  O   UNL     1       1.386   9.022  19.128  0.00  0.00    +0.000 OA
BRANCH  23  24
ATOM     24  C   UNL     1       0.973  10.318  18.676  0.00  0.00    +0.000 C 
BRANCH  24  26
ATOM     25  C   UNL     1      -1.532  10.294  18.511  0.00  0.00    +0.000 C 
ATOM     26  C   UNL     1      -0.333  10.750  19.343  0.00  0.00    +0.000 C 
ATOM     27  C   UNL     1      -0.435  10.201  20.764  0.00  0.00    +0.000 C 
ENDBRANCH  24  26
ENDBRANCH  23  24
ENDBRANCH  21  23
ENDBRANCH  20  21
ENDBRANCH  19  20
ENDBRANCH   1  19
TORSDOF 9
ENDMDL
MODEL 3
REMARK VINA RESULT:      -7.6      1.017      1.569
REMARK  Name = 
REMARK  11 active torsions:
REMARK  status: ('A' for Active; 'I' for Inactive)
REMARK    1  A    between atoms: C_1  and  C_2
REMARK    2  A    between atoms: C_2  and  C_3
REMARK    3  A    between atoms: C_2  and  C_4
REMARK    4  A    between atoms: C_4  and  O_5
REMARK    5  A    between atoms: O_5  and  C_6
REMARK    6  A    between atoms: C_6  and  O_8
REMARK    7  A    between atoms: O_8  and  C_9
REMARK    8  A    between atoms: C_9  and  N_10
REMARK    9  A    between atoms: C_11  and  S_12
REMARK   10  A    between atoms: S_12  and  C_14
REMARK   11  A    between atoms: C_14  and  C_15
REMARK                            x       y       z     vdW  Elec       q    Type
REMARK                         _______ _______ _______ _____ _____    ______ ____
ROOT
ATOM      1  N   UNL     1       3.330   5.570  18.419  0.00  0.00    +0.000 N 
ATOM      2  C   UNL     1       4.177   5.157  17.377  0.00  0.00    +0.000 A 
ATOM      3  N   UNL     1       3.904   3.945  17.020  0.00  0.00    +0.000 NA
ATOM      4  C   UNL     1       2.884   3.500  17.821  0.00  0.00    +0.000 A 
ATOM      5  C   UNL     1       2.241   2.264  17.858  0.00  0.00    +0.000 A 
ATOM      6  C   UNL     1       1.215   2.049  18.781  0.00  0.00    +0.000 A 
ATOM      7  C   UNL     1       0.836   3.058  19.665  0.00  0.00    +0.000 A 
ATOM      8  C   UNL     1       1.465   4.310  19.654  0.00  0.00    +0.000 A 
ATOM      9  C   UNL     1       2.493   4.499  18.717  0.00  0.00    +0.000 A 
ENDROOT
BRANCH   2  10
ATOM     10  S   UNL     1       5.470   6.064  16.564  0.00  0.00    +0.000 S 
ATOM     11  O   UNL     1       6.220   6.847  17.715  0.00  0.00    +0.000 OA
BRANCH  10  12
ATOM     12  C   UNL     1       6.587   4.691  16.013  0.00  0.00    +0.000 C 
BRANCH  12  13
ATOM     13  C   UNL     1       6.795   4.626  14.508  0.00  0.00    +0.000 A 
ATOM     14  C   UNL     1       6.059   3.722  13.750  0.00  0.00    +0.000 A 
ATOM     15  C   UNL     1       6.316   3.588  12.394  0.00  0.00    +0.000 A 
ATOM     16  C   UNL     1       7.281   4.399  11.809  0.00  0.00    +0.000 A 
ATOM     17  C   UNL     1       7.916   5.336  12.608  0.00  0.00    +0.000 A 
ATOM     18  N   UNL     1       7.687   5.480  13.934  0.00  0.00    +0.000 NA
ENDBRANCH  12  13
ENDBRANCH  10  12
ENDBRANCH   2  10
BRANCH   1  19
ATOM     19  C   UNL     1       3.270   6.832  19.126  0.00  0.00    +0.000 C 
BRANCH  19  20
ATOM     20  O   UNL     1       2.016   7.491  18.872  0.00  0.00    +0.000 OA
BRANCH  20  21
ATOM     21  C   UNL     1       1.593   8.195  19.949  0.00  0.00    +0.000 C 
ATOM     22  O   UNL     1       1.373   7.723  21.055  0.00  0.00    +0.000 OA
BRANCH  21  23
ATOM     23  O   UNL     1       1.368   9.472  19.573  0.00  0.00    +0.000 OA
BRANCH  23  24
ATOM     24  C   UNL     1       0.788   9.604  18.269  0.00  0.00    +0.000 C 
BRANCH  24  26
ATOM     25  C   UNL     1      -1.530  10.034  17.404  0.00  0.00    +0.000 C 
ATOM     26  C   UNL     1      -0.398  10.568  18.283  0.00  0.00    +0.000 C 
ATOM     27  C   UNL     1      -0.900  10.805  19.705  0.00  0.00    +0.000 C 
ENDBRANCH  24  26
ENDBRANCH  23  24
ENDBRANCH  21  23
ENDBRANCH  20  21
ENDBRANCH  19  20
ENDBRANCH   1  19
TORSDOF 9
ENDMDL
MODEL 4
REMARK VINA RESULT:      -7.5      1.318      1.806
REMARK  Name = 
REMARK  11 active torsions:
REMARK  status: ('A' for Active; 'I' for Inactive)
REMARK    1  A    between atoms: C_1  and  C_2
REMARK    2  A    between atoms: C_2  and  C_3
REMARK    3  A    between atoms: C_2  and  C_4
REMARK    4  A    between atoms: C_4  and  O_5
REMARK    5  A    between atoms: O_5  and  C_6
REMARK    6  A    between atoms: C_6  and  O_8
REMARK    7  A    between atoms: O_8  and  C_9
REMARK    8  A    between atoms: C_9  and  N_10
REMARK    9  A    between atoms: C_11  and  S_12
REMARK   10  A    between atoms: S_12  and  C_14
REMARK   11  A    between atoms: C_14  and  C_15
REMARK                            x       y       z     vdW  Elec       q    Type
REMARK                         _______ _______ _______ _____ _____    ______ ____
ROOT
ATOM      1  N   UNL     1       3.060   5.829  18.395  0.00  0.00    +0.000 N 
ATOM      2  C   UNL     1       4.226   5.341  17.782  0.00  0.00    +0.000 A 
ATOM      3  N   UNL     1       4.555   4.192  18.274  0.00  0.00    +0.000 NA
ATOM      4  C   UNL     1       3.637   3.883  19.244  0.00  0.00    +0.000 A 
ATOM      5  C   UNL     1       3.553   2.773  20.084  0.00  0.00    +0.000 A 
ATOM      6  C   UNL     1       2.508   2.686  21.006  0.00  0.00    +0.000 A 
ATOM      7  C   UNL     1       1.555   3.701  21.095  0.00  0.00    +0.000 A 
ATOM      8  C   UNL     1       1.615   4.830  20.267  0.00  0.00    +0.000 A 
ATOM      9  C   UNL     1       2.675   4.892  19.349  0.00  0.00    +0.000 A 
ENDROOT
BRANCH   2  10
ATOM     10  S   UNL     1       5.204   6.082  16.497  0.00  0.00    +0.000 S 
ATOM     11  O   UNL     1       6.088   7.175  17.221  0.00  0.00    +0.000 OA
BRANCH  10  12
ATOM     12  C   UNL     1       6.327   4.680  16.039  0.00  0.00    +0.000 C 
BRANCH  12  13
ATOM     13  C   UNL     1       6.647   4.601  14.555  0.00  0.00    +0.000 A 
ATOM     14  C   UNL     1       5.936   3.725  13.743  0.00  0.00    +0.000 A 
ATOM     15  C   UNL     1       6.292   3.575  12.411  0.00  0.00    +0.000 A 
ATOM     16  C   UNL     1       7.331   4.344  11.902  0.00  0.00    +0.000 A 
ATOM     17  C   UNL     1       7.940   5.257  12.747  0.00  0.00    +0.000 A 
ATOM     18  N   UNL     1       7.615   5.415  14.052  0.00  0.00    +0.000 NA
ENDBRANCH  12  13
ENDBRANCH  10  12
ENDBRANCH   2  10
BRANCH   1  19
ATOM     19  C   UNL     1       2.332   7.059  18.167  0.00  0.00    +0.000 C 
BRANCH  19  20
ATOM     20  O   UNL     1       2.599   8.004  19.220  0.00  0.00    +0.000 OA
BRANCH  20  21
ATOM     21  C   UNL     1       1.485   8.689  19.573  0.00  0.00    +0.000 C 
ATOM     22  O   UNL     1       1.023   8.744  20.704  0.00  0.00    +0.000 OA
BRANCH  21  23
ATOM     23  O   UNL     1       0.928   9.215  18.461  0.00  0.00    +0.000 OA
BRANCH  23  24
ATOM     24  C   UNL     1       0.300  10.487  18.667  0.00  0.00    +0.000 C 
BRANCH  24  26
ATOM     25  C   UNL     1      -1.870  11.739  18.828  0.00  0.00    +0.000 C 
ATOM     26  C   UNL     1      -1.221  10.379  18.567  0.00  0.00    +0.000 C 
ATOM     27  C   UNL     1      -1.649   9.842  17.203  0.00  0.00    +0.000 C 
ENDBRANCH  24  26
ENDBRANCH  23  24
ENDBRANCH  21  23
ENDBRANCH  20  21
ENDBRANCH  19  20
ENDBRANCH   1  19
TORSDOF 9
ENDMDL
MODEL 5
REMARK VINA RESULT:      -7.5      1.419      1.769
REMARK  Name = 
REMARK  11 active torsions:
REMARK  status: ('A' for Active; 'I' for Inactive)
REMARK    1  A    between atoms: C_1  and  C_2
REMARK    2  A    between atoms: C_2  and  C_3
REMARK    3  A    between atoms: C_2  and  C_4
REMARK    4  A    between atoms: C_4  and  O_5
REMARK    5  A    between atoms: O_5  and  C_6
REMARK    6  A    between atoms: C_6  and  O_8
REMARK    7  A    between atoms: O_8  and  C_9
REMARK    8  A    between atoms: C_9  and  N_10
REMARK    9  A    between atoms: C_11  and  S_12
REMARK   10  A    between atoms: S_12  and  C_14
REMARK   11  A    between atoms: C_14  and  C_15
REMARK                            x       y       z     vdW  Elec       q    Type
REMARK                         _______ _______ _______ _____ _____    ______ ____
ROOT
ATOM      1  N   UNL     1       3.816   5.372  18.515  0.00  0.00    +0.000 N 
ATOM      2  C   UNL     1       5.090   4.850  18.792  0.00  0.00    +0.000 A 
ATOM      3  N   UNL     1       5.010   3.607  19.136  0.00  0.00    +0.000 NA
ATOM      4  C   UNL     1       3.683   3.262  19.122  0.00  0.00    +0.000 A 
ATOM      5  C   UNL     1       3.063   2.053  19.433  0.00  0.00    +0.000 A 
ATOM      6  C   UNL     1       1.673   1.948  19.342  0.00  0.00    +0.000 A 
ATOM      7  C   UNL     1       0.905   3.044  18.949  0.00  0.00    +0.000 A 
ATOM      8  C   UNL     1       1.499   4.273  18.633  0.00  0.00    +0.000 A 
ATOM      9  C   UNL     1       2.897   4.350  18.733  0.00  0.00    +0.000 A 
ENDROOT
BRANCH   2  10
ATOM     10  S   UNL     1       6.670   5.660  18.712  0.00  0.00    +0.000 S 
ATOM     11  O   UNL     1       7.306   5.479  20.148  0.00  0.00    +0.000 OA
BRANCH  10  12
ATOM     12  C   UNL     1       7.594   4.545  17.556  0.00  0.00    +0.000 C 
BRANCH  12  13
ATOM     13  C   UNL     1       7.041   4.523  16.140  0.00  0.00    +0.000 A 
ATOM     14  C   UNL     1       5.916   3.759  15.851  0.00  0.00    +0.000 A 
ATOM     15  C   UNL     1       5.468   3.655  14.543  0.00  0.00    +0.000 A 
ATOM     16  C   UNL     1       6.133   4.360  13.547  0.00  0.00    +0.000 A 
ATOM     17  C   UNL     1       7.195   5.169  13.919  0.00  0.00    +0.000 A 
ATOM     18  N   UNL     1       7.654   5.279  15.188  0.00  0.00    +0.000 NA
ENDBRANCH  12  13
ENDBRANCH  10  12
ENDBRANCH   2  10
BRANCH   1  19
ATOM     19  C   UNL     1       3.425   6.702  18.097  0.00  0.00    +0.000 C 
BRANCH  19  20
ATOM     20  O   UNL     1       2.768   7.394  19.174  0.00  0.00    +0.000 OA
BRANCH  20  21
ATOM     21  C   UNL     1       1.968   8.389  18.717  0.00  0.00    +0.000 C 
ATOM     22  O   UNL     1       1.570   8.496  17.566  0.00  0.00    +0.000 OA
BRANCH  21  23
ATOM     23  O   UNL     1       1.769   9.279  19.712  0.00  0.00    +0.000 OA
BRANCH  23  24
ATOM     24  C   UNL     1       0.680   8.949  20.583  0.00  0.00    +0.000 C 
BRANCH  24  26
ATOM     25  C   UNL     1      -0.133  11.235  21.230  0.00  0.00    +0.000 C 
ATOM     26  C   UNL     1       0.552   9.959  21.722  0.00  0.00    +0.000 C 
ATOM     27  C   UNL     1      -0.217   9.367  22.901  0.00  0.00    +0.000 C 
ENDBRANCH  24  26
ENDBRANCH  23  24
ENDBRANCH  21  23
ENDBRANCH  20  21
ENDBRANCH  19  20
ENDBRANCH   1  19
TORSDOF 9
ENDMDL
MODEL 6
REMARK VINA RESULT:      -7.5      1.579      1.942
REMARK  Name = 
REMARK  11 active torsions:
REMARK  status: ('A' for Active; 'I' for Inactive)
REMARK    1  A    between atoms: C_1  and  C_2
REMARK    2  A    between atoms: C_2  and  C_3
REMARK    3  A    between atoms: C_2  and  C_4
REMARK    4  A    between atoms: C_4  and  O_5
REMARK    5  A    between atoms: O_5  and  C_6
REMARK    6  A    between atoms: C_6  and  O_8
REMARK    7  A    between atoms: O_8  and  C_9
REMARK    8  A    between atoms: C_9  and  N_10
REMARK    9  A    between atoms: C_11  and  S_12
REMARK   10  A    between atoms: S_12  and  C_14
REMARK   11  A    between atoms: C_14  and  C_15
REMARK                            x       y       z     vdW  Elec       q    Type
REMARK                         _______ _______ _______ _____ _____    ______ ____
ROOT
ATOM      1  N   UNL     1       3.899   5.232  18.299  0.00  0.00    +0.000 N 
ATOM      2  C   UNL     1       5.137   4.898  18.872  0.00  0.00    +0.000 A 
ATOM      3  N   UNL     1       5.019   3.873  19.650  0.00  0.00    +0.000 NA
ATOM      4  C   UNL     1       3.700   3.499  19.640  0.00  0.00    +0.000 A 
ATOM      5  C   UNL     1       3.049   2.473  20.323  0.00  0.00    +0.000 A 
ATOM      6  C   UNL     1       1.676   2.291  20.145  0.00  0.00    +0.000 A 
ATOM      7  C   UNL     1       0.954   3.130  19.297  0.00  0.00    +0.000 A 
ATOM      8  C   UNL     1       1.580   4.173  18.600  0.00  0.00    +0.000 A 
ATOM      9  C   UNL     1       2.961   4.333  18.796  0.00  0.00    +0.000 A 
ENDROOT
BRANCH   2  10
ATOM     10  S   UNL     1       6.718   5.677  18.646  0.00  0.00    +0.000 S 
ATOM     11  O   UNL     1       7.435   5.586  20.052  0.00  0.00    +0.000 OA
BRANCH  10  12
ATOM     12  C   UNL     1       7.560   4.470  17.519  0.00  0.00    +0.000 C 
BRANCH  12  13
ATOM     13  C   UNL     1       7.018   4.466  16.098  0.00  0.00    +0.000 A 
ATOM     14  C   UNL     1       5.888   3.715  15.795  0.00  0.00    +0.000 A 
ATOM     15  C   UNL     1       5.450   3.627  14.482  0.00  0.00    +0.000 A 
ATOM     16  C   UNL     1       6.130   4.332  13.497  0.00  0.00    +0.000 A 
ATOM     17  C   UNL     1       7.197   5.126  13.883  0.00  0.00    +0.000 A 
ATOM     18  N   UNL     1       7.647   5.222  15.157  0.00  0.00    +0.000 NA
ENDBRANCH  12  13
ENDBRANCH  10  12
ENDBRANCH   2  10
BRANCH   1  19
ATOM     19  C   UNL     1       3.555   6.293  17.376  0.00  0.00    +0.000 C 
BRANCH  19  20
ATOM     20  O   UNL     1       3.771   7.579  17.985  0.00  0.00    +0.000 OA
BRANCH  20  21
ATOM     21  C   UNL     1       2.640   8.060  18.555  0.00  0.00    +0.000 C 
ATOM     22  O   UNL     1       2.051   7.542  19.493  0.00  0.00    +0.000 OA
BRANCH  21  23
ATOM     23  O   UNL     1       2.229   9.141  17.858  0.00  0.00    +0.000 OA
BRANCH  23  24
ATOM     24  C   UNL     1       0.814   9.366  17.909  0.00  0.00    +0.000 C 
BRANCH  24  26
ATOM     25  C   UNL     1       0.066  10.366  20.087  0.00  0.00    +0.000 C 
ATOM     26  C   UNL     1       0.484  10.664  18.647  0.00  0.00    +0.000 C 
ATOM     27  C   UNL     1       1.669  11.626  18.628  0.00  0.00    +0.000 C 
ENDBRANCH  24  26
ENDBRANCH  23  24
ENDBRANCH  21  23
ENDBRANCH  20  21
ENDBRANCH  19  20
ENDBRANCH   1  19
TORSDOF 9
ENDMDL
MODEL 7
REMARK VINA RESULT:      -7.4      0.711      1.177
REMARK  Name = 
REMARK  11 active torsions:
REMARK  status: ('A' for Active; 'I' for Inactive)
REMARK    1  A    between atoms: C_1  and  C_2
REMARK    2  A    between atoms: C_2  and  C_3
REMARK    3  A    between atoms: C_2  and  C_4
REMARK    4  A    between atoms: C_4  and  O_5
REMARK    5  A    between atoms: O_5  and  C_6
REMARK    6  A    between atoms: C_6  and  O_8
REMARK    7  A    between atoms: O_8  and  C_9
REMARK    8  A    between atoms: C_9  and  N_10
REMARK    9  A    between atoms: C_11  and  S_12
REMARK   10  A    between atoms: S_12  and  C_14
REMARK   11  A    between atoms: C_14  and  C_15
REMARK                            x       y       z     vdW  Elec       q    Type
REMARK                         _______ _______ _______ _____ _____    ______ ____
ROOT
ATOM      1  N   UNL     1       3.073   5.699  18.219  0.00  0.00    +0.000 N 
ATOM      2  C   UNL     1       4.017   5.266  17.274  0.00  0.00    +0.000 A 
ATOM      3  N   UNL     1       3.941   3.987  17.105  0.00  0.00    +0.000 NA
ATOM      4  C   UNL     1       2.962   3.520  17.943  0.00  0.00    +0.000 A 
ATOM      5  C   UNL     1       2.505   2.221  18.160  0.00  0.00    +0.000 A 
ATOM      6  C   UNL     1       1.480   1.996  19.081  0.00  0.00    +0.000 A 
ATOM      7  C   UNL     1       0.917   3.059  19.788  0.00  0.00    +0.000 A 
ATOM      8  C   UNL     1       1.358   4.375  19.594  0.00  0.00    +0.000 A 
ATOM      9  C   UNL     1       2.388   4.572  18.662  0.00  0.00    +0.000 A 
ENDROOT
BRANCH   2  10
ATOM     10  S   UNL     1       5.200   6.224  16.358  0.00  0.00    +0.000 S 
ATOM     11  O   UNL     1       5.791   7.262  17.394  0.00  0.00    +0.000 OA
BRANCH  10  12
ATOM     12  C   UNL     1       6.517   4.962  16.031  0.00  0.00    +0.000 C 
BRANCH  12  13
ATOM     13  C   UNL     1       6.721   4.644  14.558  0.00  0.00    +0.000 A 
ATOM     14  C   UNL     1       7.661   5.358  13.823  0.00  0.00    +0.000 A 
ATOM     15  C   UNL     1       7.779   5.143  12.458  0.00  0.00    +0.000 A 
ATOM     16  C   UNL     1       6.979   4.178  11.858  0.00  0.00    +0.000 A 
ATOM     17  C   UNL     1       6.124   3.446  12.665  0.00  0.00    +0.000 A 
ATOM     18  N   UNL     1       5.986   3.644  13.998  0.00  0.00    +0.000 NA
ENDBRANCH  12  13
ENDBRANCH  10  12
ENDBRANCH   2  10
BRANCH   1  19
ATOM     19  C   UNL     1       2.797   7.031  18.717  0.00  0.00    +0.000 C 
BRANCH  19  20
ATOM     20  O   UNL     1       2.270   7.862  17.668  0.00  0.00    +0.000 OA
BRANCH  20  21
ATOM     21  C   UNL     1       1.914   9.085  18.128  0.00  0.00    +0.000 C 
ATOM     22  O   UNL     1       2.161  10.145  17.570  0.00  0.00    +0.000 OA
BRANCH  21  23
ATOM     23  O   UNL     1       1.332   8.942  19.338  0.00  0.00    +0.000 OA
BRANCH  23  24
ATOM     24  C   UNL     1       0.719  10.137  19.837  0.00  0.00    +0.000 C 
BRANCH  24  26
ATOM     25  C   UNL     1      -0.443  10.796  21.964  0.00  0.00    +0.000 C 
ATOM     26  C   UNL     1       0.843  10.233  21.358  0.00  0.00    +0.000 C 
ATOM     27  C   UNL     1       1.166   8.872  21.972  0.00  0.00    +0.000 C 
ENDBRANCH  24  26
ENDBRANCH  23  24
ENDBRANCH  21  23
ENDBRANCH  20  21
ENDBRANCH  19  20
ENDBRANCH   1  19
TORSDOF 9
ENDMDL
MODEL 8
REMARK VINA RESULT:      -7.4      1.540      1.823
REMARK  Name = 
REMARK  11 active torsions:
REMARK  status: ('A' for Active; 'I' for Inactive)
REMARK    1  A    between atoms: C_1  and  C_2
REMARK    2  A    between atoms: C_2  and  C_3
REMARK    3  A    between atoms: C_2  and  C_4
REMARK    4  A    between atoms: C_4  and  O_5
REMARK    5  A    between atoms: O_5  and  C_6
REMARK    6  A    between atoms: C_6  and  O_8
REMARK    7  A    between atoms: O_8  and  C_9
REMARK    8  A    between atoms: C_9  and  N_10
REMARK    9  A    between atoms: C_11  and  S_12
REMARK   10  A    between atoms: S_12  and  C_14
REMARK   11  A    between atoms: C_14  and  C_15
REMARK                            x       y       z     vdW  Elec       q    Type
REMARK                         _______ _______ _______ _____ _____    ______ ____
ROOT
ATOM      1  N   UNL     1       3.765   5.279  18.701  0.00  0.00    +0.000 N 
ATOM      2  C   UNL     1       5.063   4.768  18.855  0.00  0.00    +0.000 A 
ATOM      3  N   UNL     1       5.033   3.485  19.013  0.00  0.00    +0.000 NA
ATOM      4  C   UNL     1       3.718   3.099  18.991  0.00  0.00    +0.000 A 
ATOM      5  C   UNL     1       3.147   1.836  19.139  0.00  0.00    +0.000 A 
ATOM      6  C   UNL     1       1.759   1.697  19.078  0.00  0.00    +0.000 A 
ATOM      7  C   UNL     1       0.944   2.810  18.877  0.00  0.00    +0.000 A 
ATOM      8  C   UNL     1       1.488   4.093  18.729  0.00  0.00    +0.000 A 
ATOM      9  C   UNL     1       2.886   4.204  18.793  0.00  0.00    +0.000 A 
ENDROOT
BRANCH   2  10
ATOM     10  S   UNL     1       6.613   5.636  18.846  0.00  0.00    +0.000 S 
ATOM     11  O   UNL     1       7.711   4.530  18.576  0.00  0.00    +0.000 OA
BRANCH  10  12
ATOM     12  C   UNL     1       6.457   6.645  17.299  0.00  0.00    +0.000 C 
BRANCH  12  13
ATOM     13  C   UNL     1       6.431   5.823  16.021  0.00  0.00    +0.000 A 
ATOM     14  C   UNL     1       5.239   5.247  15.597  0.00  0.00    +0.000 A 
ATOM     15  C   UNL     1       5.231   4.413  14.488  0.00  0.00    +0.000 A 
ATOM     16  C   UNL     1       6.417   4.205  13.795  0.00  0.00    +0.000 A 
ATOM     17  C   UNL     1       7.550   4.877  14.224  0.00  0.00    +0.000 A 
ATOM     18  N   UNL     1       7.583   5.690  15.307  0.00  0.00    +0.000 NA
ENDBRANCH  12  13
ENDBRANCH  10  12
ENDBRANCH   2  10
BRANCH   1  19
ATOM     19  C   UNL     1       3.318   6.641  18.498  0.00  0.00    +0.000 C 
BRANCH  19  20
ATOM     20  O   UNL     1       2.669   7.139  19.683  0.00  0.00    +0.000 OA
BRANCH  20  21
ATOM     21  C   UNL     1       1.929   8.244  19.422  0.00  0.00    +0.000 C 
ATOM     22  O   UNL     1       1.692   8.684  18.307  0.00  0.00    +0.000 OA
BRANCH  21  23
ATOM     23  O   UNL     1       1.583   8.821  20.593  0.00  0.00    +0.000 OA
BRANCH  23  24
ATOM     24  C   UNL     1       0.469   8.199  21.245  0.00  0.00    +0.000 C 
BRANCH  24  26
ATOM     25  C   UNL     1       0.080   9.523  23.343  0.00  0.00    +0.000 C 
ATOM     26  C   UNL     1      -0.425   9.234  21.929  0.00  0.00    +0.000 C 
ATOM     27  C   UNL     1      -0.493  10.525  21.117  0.00  0.00    +0.000 C 
ENDBRANCH  24  26
ENDBRANCH  23  24
ENDBRANCH  21  23
ENDBRANCH  20  21
ENDBRANCH  19  20
ENDBRANCH   1  19
TORSDOF 9
ENDMDL
MODEL 9
REMARK VINA RESULT:      -7.4      0.947      1.144
REMARK  Name = 
REMARK  11 active torsions:
REMARK  status: ('A' for Active; 'I' for Inactive)
REMARK    1  A    between atoms: C_1  and  C_2
REMARK    2  A    between atoms: C_2  and  C_3
REMARK    3  A    between atoms: C_2  and  C_4
REMARK    4  A    between atoms: C_4  and  O_5
REMARK    5  A    between atoms: O_5  and  C_6
REMARK    6  A    between atoms: C_6  and  O_8
REMARK    7  A    between atoms: O_8  and  C_9
REMARK    8  A    between atoms: C_9  and  N_10
REMARK    9  A    between atoms: C_11  and  S_12
REMARK   10  A    between atoms: S_12  and  C_14
REMARK   11  A    between atoms: C_14  and  C_15
REMARK                            x       y       z     vdW  Elec       q    Type
REMARK                         _______ _______ _______ _____ _____    ______ ____
ROOT
ATOM      1  N   UNL     1       3.076   5.790  18.278  0.00  0.00    +0.000 N 
ATOM      2  C   UNL     1       4.356   5.469  17.799  0.00  0.00    +0.000 A 
ATOM      3  N   UNL     1       4.788   4.380  18.346  0.00  0.00    +0.000 NA
ATOM      4  C   UNL     1       3.824   3.950  19.221  0.00  0.00    +0.000 A 
ATOM      5  C   UNL     1       3.807   2.844  20.070  0.00  0.00    +0.000 A 
ATOM      6  C   UNL     1       2.693   2.615  20.880  0.00  0.00    +0.000 A 
ATOM      7  C   UNL     1       1.604   3.486  20.849  0.00  0.00    +0.000 A 
ATOM      8  C   UNL     1       1.594   4.608  20.009  0.00  0.00    +0.000 A 
ATOM      9  C   UNL     1       2.726   4.813  19.205  0.00  0.00    +0.000 A 
ENDROOT
BRANCH   2  10
ATOM     10  S   UNL     1       5.352   6.333  16.609  0.00  0.00    +0.000 S 
ATOM     11  O   UNL     1       6.090   7.468  17.426  0.00  0.00    +0.000 OA
BRANCH  10  12
ATOM     12  C   UNL     1       6.618   5.046  16.189  0.00  0.00    +0.000 C 
BRANCH  12  13
ATOM     13  C   UNL     1       6.753   4.770  14.700  0.00  0.00    +0.000 A 
ATOM     14  C   UNL     1       5.899   3.858  14.089  0.00  0.00    +0.000 A 
ATOM     15  C   UNL     1       6.083   3.528  12.755  0.00  0.00    +0.000 A 
ATOM     16  C   UNL     1       7.096   4.154  12.040  0.00  0.00    +0.000 A 
ATOM     17  C   UNL     1       7.855   5.114  12.690  0.00  0.00    +0.000 A 
ATOM     18  N   UNL     1       7.699   5.447  13.994  0.00  0.00    +0.000 NA
ENDBRANCH  12  13
ENDBRANCH  10  12
ENDBRANCH   2  10
BRANCH   1  19
ATOM     19  C   UNL     1       2.212   6.905  17.951  0.00  0.00    +0.000 C 
BRANCH  19  20
ATOM     20  O   UNL     1       2.622   8.086  18.664  0.00  0.00    +0.000 OA
BRANCH  20  21
ATOM     21  C   UNL     1       1.886   9.167  18.310  0.00  0.00    +0.000 C 
ATOM     22  O   UNL     1       2.252  10.046  17.543  0.00  0.00    +0.000 OA
BRANCH  21  23
ATOM     23  O   UNL     1       0.733   9.156  19.014  0.00  0.00    +0.000 OA
BRANCH  23  24
ATOM     24  C   UNL     1       0.872   9.596  20.371  0.00  0.00    +0.000 C 
BRANCH  24  26
ATOM     25  C   UNL     1       0.934  12.092  20.635  0.00  0.00    +0.000 C 
ATOM     26  C   UNL     1       0.041  10.851  20.637  0.00  0.00    +0.000 C 
ATOM     27  C   UNL     1      -1.076  11.001  19.607  0.00  0.00    +0.000 C 
ENDBRANCH  24  26
ENDBRANCH  23  24
ENDBRANCH  21  23
ENDBRANCH  20  21
ENDBRANCH  19  20
ENDBRANCH   1  19
TORSDOF 9
ENDMDL
