MODEL 1
REMARK VINA RESULT:      -5.8      0.000      0.000
REMARK  Name = 
REMARK  6 active torsions:
REMARK  status: ('A' for Active; 'I' for Inactive)
REMARK    1  A    between atoms: C_1  and  S_2
REMARK    2  A    between atoms: S_2  and  C_3
REMARK    3  A    between atoms: C_4  and  C_5
REMARK    4  A    between atoms: C_12  and  C_13
REMARK    5  A    between atoms: N_15  and  C_16
REMARK    6  A    between atoms: C_19  and  C_20
REMARK                            x       y       z     vdW  Elec       q    Type
REMARK                         _______ _______ _______ _____ _____    ______ ____
ROOT
ATOM      1  C   UNL     1       0.333  10.988  20.325  0.00  0.00    +0.000 C 
ATOM      2  C   UNL     1       0.204  12.254  20.791  0.00  0.00    +0.000 C 
ATOM      3  C   UNL     1      -0.393  12.510  22.136  0.00  0.00    +0.000 C 
ATOM      4  S   UNL     1      -0.847  14.043  22.686  0.00  0.00    +0.000 S 
ATOM      5  N   UNL     1      -0.566  11.422  22.960  0.00  0.00    +0.000 NA
ATOM      6  C   UNL     1      -0.423  10.194  22.564  0.00  0.00    +0.000 C 
ATOM      7  N   UNL     1      -0.622   9.221  23.515  0.00  0.00    +0.000 N 
ATOM      8  C   UNL     1      -0.071   9.778  21.135  0.00  0.00    +0.000 C 
ATOM      9  H   UNL     1      -0.629   9.622  24.450  0.00  0.00    +0.000 HD
ATOM     10  H   UNL     1       0.037   8.444  23.479  0.00  0.00    +0.000 HD
ENDROOT
BRANCH   8  11
ATOM     11  C   UNL     1       1.060   8.734  21.175  0.00  0.00    +0.000 C 
ATOM     12  O   UNL     1       1.884   8.759  22.085  0.00  0.00    +0.000 OA
ATOM     13  N   UNL     1       1.059   7.822  20.126  0.00  0.00    +0.000 N 
ATOM     14  H   UNL     1       0.546   8.077  19.288  0.00  0.00    +0.000 HD
BRANCH  13  15
ATOM     15  C   UNL     1       1.947   6.726  20.009  0.00  0.00    +0.000 A 
ATOM     16  C   UNL     1       3.094   6.768  19.212  0.00  0.00    +0.000 A 
ATOM     17  C   UNL     1       3.917   5.650  19.078  0.00  0.00    +0.000 A 
ATOM     18  C   UNL     1       3.616   4.462  19.748  0.00  0.00    +0.000 A 
ATOM     19  C   UNL     1       4.468   3.243  19.551  0.00  0.00    +0.000 C 
ATOM     20  C   UNL     1       2.492   4.429  20.580  0.00  0.00    +0.000 A 
ATOM     21  C   UNL     1       1.671   5.555  20.722  0.00  0.00    +0.000 A 
ENDBRANCH  13  15
ENDBRANCH   8  11
BRANCH   1  23
ATOM     22  C   UNL     1      -0.783  10.238  17.895  0.00  0.00    +0.000 C 
ATOM     23  S   UNL     1       0.814  10.674  18.646  0.00  0.00    +0.000 S 
ENDBRANCH   1  23
BRANCH   2  24
ATOM     24  C   UNL     1       0.619  13.420  19.909  0.00  0.00    +0.000 C 
ATOM     25  N   UNL     1       0.964  14.388  19.177  0.00  0.00    +0.000 NA
ENDBRANCH   2  24
TORSDOF 4
ENDMDL
MODEL 2
REMARK VINA RESULT:      -5.7      1.513      2.033
REMARK  Name = 
REMARK  6 active torsions:
REMARK  status: ('A' for Active; 'I' for Inactive)
REMARK    1  A    between atoms: C_1  and  S_2
REMARK    2  A    between atoms: S_2  and  C_3
REMARK    3  A    between atoms: C_4  and  C_5
REMARK    4  A    between atoms: C_12  and  C_13
REMARK    5  A    between atoms: N_15  and  C_16
REMARK    6  A    between atoms: C_19  and  C_20
REMARK                            x       y       z     vdW  Elec       q    Type
REMARK                         _______ _______ _______ _____ _____    ______ ____
ROOT
ATOM      1  C   UNL     1      -0.156  12.372  20.670  0.00  0.00    +0.000 C 
ATOM      2  C   UNL     1      -0.347  13.451  21.466  0.00  0.00    +0.000 C 
ATOM      3  C   UNL     1      -0.897  13.290  22.845  0.00  0.00    +0.000 C 
ATOM      4  S   UNL     1      -1.425  14.579  23.803  0.00  0.00    +0.000 S 
ATOM      5  N   UNL     1      -0.960  12.010  23.346  0.00  0.00    +0.000 NA
ATOM      6  C   UNL     1      -0.756  10.949  22.627  0.00  0.00    +0.000 C 
ATOM      7  N   UNL     1      -0.847   9.743  23.282  0.00  0.00    +0.000 N 
ATOM      8  C   UNL     1      -0.443  10.961  21.130  0.00  0.00    +0.000 C 
ATOM      9  H   UNL     1      -0.838   9.876  24.291  0.00  0.00    +0.000 HD
ATOM     10  H   UNL     1      -0.141   9.056  23.019  0.00  0.00    +0.000 HD
ENDROOT
BRANCH   8  11
ATOM     11  C   UNL     1       0.754  10.034  20.855  0.00  0.00    +0.000 C 
ATOM     12  O   UNL     1       1.678   9.970  21.662  0.00  0.00    +0.000 OA
ATOM     13  N   UNL     1       0.691   9.327  19.660  0.00  0.00    +0.000 N 
ATOM     14  H   UNL     1       0.065   9.680  18.943  0.00  0.00    +0.000 HD
BRANCH  13  15
ATOM     15  C   UNL     1       1.633   8.354  19.247  0.00  0.00    +0.000 A 
ATOM     16  C   UNL     1       1.916   7.212  20.000  0.00  0.00    +0.000 A 
ATOM     17  C   UNL     1       2.891   6.303  19.589  0.00  0.00    +0.000 A 
ATOM     18  C   UNL     1       3.601   6.511  18.404  0.00  0.00    +0.000 A 
ATOM     19  C   UNL     1       4.692   5.565  17.998  0.00  0.00    +0.000 C 
ATOM     20  C   UNL     1       3.291   7.631  17.625  0.00  0.00    +0.000 A 
ATOM     21  C   UNL     1       2.305   8.539  18.034  0.00  0.00    +0.000 A 
ENDBRANCH  13  15
ENDBRANCH   8  11
BRANCH   1  23
ATOM     22  C   UNL     1      -1.327  12.205  18.157  0.00  0.00    +0.000 C 
ATOM     23  S   UNL     1       0.267  12.558  18.957  0.00  0.00    +0.000 S 
ENDBRANCH   1  23
BRANCH   2  24
ATOM     24  C   UNL     1      -0.049  14.840  20.924  0.00  0.00    +0.000 C 
ATOM     25  N   UNL     1       0.198  15.992  20.474  0.00  0.00    +0.000 NA
ENDBRANCH   2  24
TORSDOF 4
ENDMDL
MODEL 3
REMARK VINA RESULT:      -5.7      3.681      7.907
REMARK  Name = 
REMARK  6 active torsions:
REMARK  status: ('A' for Active; 'I' for Inactive)
REMARK    1  A    between atoms: C_1  and  S_2
REMARK    2  A    between atoms: S_2  and  C_3
REMARK    3  A    between atoms: C_4  and  C_5
REMARK    4  A    between atoms: C_12  and  C_13
REMARK    5  A    between atoms: N_15  and  C_16
REMARK    6  A    between atoms: C_19  and  C_20
REMARK                            x       y       z     vdW  Elec       q    Type
REMARK                         _______ _______ _______ _____ _____    ______ ____
ROOT
ATOM      1  C   UNL     1       4.219   5.374  18.176  0.00  0.00    +0.000 C 
ATOM      2  C   UNL     1       4.312   4.097  17.733  0.00  0.00    +0.000 C 
ATOM      3  C   UNL     1       3.676   2.981  18.494  0.00  0.00    +0.000 C 
ATOM      4  S   UNL     1       3.964   1.345  18.179  0.00  0.00    +0.000 S 
ATOM      5  N   UNL     1       2.803   3.328  19.499  0.00  0.00    +0.000 NA
ATOM      6  C   UNL     1       2.660   4.542  19.935  0.00  0.00    +0.000 C 
ATOM      7  N   UNL     1       1.738   4.723  20.939  0.00  0.00    +0.000 N 
ATOM      8  C   UNL     1       3.448   5.749  19.422  0.00  0.00    +0.000 C 
ATOM      9  H   UNL     1       1.138   3.907  21.033  0.00  0.00    +0.000 HD
ATOM     10  H   UNL     1       1.166   5.563  20.851  0.00  0.00    +0.000 HD
ENDROOT
BRANCH   8  11
ATOM     11  C   UNL     1       2.476   6.909  19.144  0.00  0.00    +0.000 C 
ATOM     12  O   UNL     1       2.010   7.062  18.018  0.00  0.00    +0.000 OA
ATOM     13  N   UNL     1       2.205   7.727  20.235  0.00  0.00    +0.000 N 
ATOM     14  H   UNL     1       2.864   7.706  21.006  0.00  0.00    +0.000 HD
BRANCH  13  15
ATOM     15  C   UNL     1       1.276   8.794  20.232  0.00  0.00    +0.000 A 
ATOM     16  C   UNL     1       1.135   9.668  19.151  0.00  0.00    +0.000 A 
ATOM     17  C   UNL     1       0.247  10.743  19.206  0.00  0.00    +0.000 A 
ATOM     18  C   UNL     1      -0.532  10.963  20.344  0.00  0.00    +0.000 A 
ATOM     19  C   UNL     1      -1.439  12.155  20.423  0.00  0.00    +0.000 C 
ATOM     20  C   UNL     1      -0.425  10.065  21.412  0.00  0.00    +0.000 A 
ATOM     21  C   UNL     1       0.460   8.981  21.353  0.00  0.00    +0.000 A 
ENDBRANCH  13  15
ENDBRANCH   8  11
BRANCH   1  23
ATOM     22  C   UNL     1       6.826   6.323  18.060  0.00  0.00    +0.000 C 
ATOM     23  S   UNL     1       5.160   6.677  17.425  0.00  0.00    +0.000 S 
ENDBRANCH   1  23
BRANCH   2  24
ATOM     24  C   UNL     1       5.119   3.800  16.479  0.00  0.00    +0.000 C 
ATOM     25  N   UNL     1       5.789   3.553  15.439  0.00  0.00    +0.000 NA
ENDBRANCH   2  24
TORSDOF 4
ENDMDL
MODEL 4
REMARK VINA RESULT:      -5.7      4.010      5.244
REMARK  Name = 
REMARK  6 active torsions:
REMARK  status: ('A' for Active; 'I' for Inactive)
REMARK    1  A    between atoms: C_1  and  S_2
REMARK    2  A    between atoms: S_2  and  C_3
REMARK    3  A    between atoms: C_4  and  C_5
REMARK    4  A    between atoms: C_12  and  C_13
REMARK    5  A    between atoms: N_15  and  C_16
REMARK    6  A    between atoms: C_19  and  C_20
REMARK                            x       y       z     vdW  Elec       q    Type
REMARK                         _______ _______ _______ _____ _____    ______ ____
ROOT
ATOM      1  C   UNL     1      -3.252  12.069  19.173  0.00  0.00    +0.000 C 
ATOM      2  C   UNL     1      -4.574  12.344  19.064  0.00  0.00    +0.000 C 
ATOM      3  C   UNL     1      -5.242  12.343  17.728  0.00  0.00    +0.000 C 
ATOM      4  S   UNL     1      -6.802  12.936  17.458  0.00  0.00    +0.000 S 
ATOM      5  N   UNL     1      -4.531  11.818  16.674  0.00  0.00    +0.000 NA
ATOM      6  C   UNL     1      -3.271  11.512  16.743  0.00  0.00    +0.000 C 
ATOM      7  N   UNL     1      -2.710  10.988  15.602  0.00  0.00    +0.000 N 
ATOM      8  C   UNL     1      -2.395  11.712  17.980  0.00  0.00    +0.000 C 
ATOM      9  H   UNL     1      -3.429  10.704  14.940  0.00  0.00    +0.000 HD
ATOM     10  H   UNL     1      -2.062  10.216  15.758  0.00  0.00    +0.000 HD
ENDROOT
BRANCH   8  11
ATOM     11  C   UNL     1      -1.588  10.428  18.242  0.00  0.00    +0.000 C 
ATOM     12  O   UNL     1      -2.137   9.332  18.161  0.00  0.00    +0.000 OA
ATOM     13  N   UNL     1      -0.253  10.627  18.575  0.00  0.00    +0.000 N 
ATOM     14  H   UNL     1       0.010  11.546  18.916  0.00  0.00    +0.000 HD
BRANCH  13  15
ATOM     15  C   UNL     1       0.693   9.592  18.769  0.00  0.00    +0.000 A 
ATOM     16  C   UNL     1       1.486   9.093  17.733  0.00  0.00    +0.000 A 
ATOM     17  C   UNL     1       2.369   8.034  17.949  0.00  0.00    +0.000 A 
ATOM     18  C   UNL     1       2.487   7.455  19.214  0.00  0.00    +0.000 A 
ATOM     19  C   UNL     1       3.389   6.276  19.428  0.00  0.00    +0.000 C 
ATOM     20  C   UNL     1       1.725   7.979  20.265  0.00  0.00    +0.000 A 
ATOM     21  C   UNL     1       0.846   9.049  20.049  0.00  0.00    +0.000 A 
ENDBRANCH  13  15
ENDBRANCH   8  11
BRANCH   1  23
ATOM     22  C   UNL     1      -1.394  13.771  20.340  0.00  0.00    +0.000 C 
ATOM     23  S   UNL     1      -2.391  12.297  20.707  0.00  0.00    +0.000 S 
ENDBRANCH   1  23
BRANCH   2  24
ATOM     24  C   UNL     1      -5.365  12.710  20.309  0.00  0.00    +0.000 C 
ATOM     25  N   UNL     1      -6.021  13.014  21.343  0.00  0.00    +0.000 NA
ENDBRANCH   2  24
TORSDOF 4
ENDMDL
MODEL 5
REMARK VINA RESULT:      -5.7      0.393      1.086
REMARK  Name = 
REMARK  6 active torsions:
REMARK  status: ('A' for Active; 'I' for Inactive)
REMARK    1  A    between atoms: C_1  and  S_2
REMARK    2  A    between atoms: S_2  and  C_3
REMARK    3  A    between atoms: C_4  and  C_5
REMARK    4  A    between atoms: C_12  and  C_13
REMARK    5  A    between atoms: N_15  and  C_16
REMARK    6  A    between atoms: C_19  and  C_20
REMARK                            x       y       z     vdW  Elec       q    Type
REMARK                         _______ _______ _______ _____ _____    ______ ____
ROOT
ATOM      1  C   UNL     1       0.155  11.138  20.328  0.00  0.00    +0.000 C 
ATOM      2  C   UNL     1       0.016  12.391  20.825  0.00  0.00    +0.000 C 
ATOM      3  C   UNL     1      -0.510  12.605  22.206  0.00  0.00    +0.000 C 
ATOM      4  S   UNL     1      -0.976  14.114  22.810  0.00  0.00    +0.000 S 
ATOM      5  N   UNL     1      -0.604  11.498  23.018  0.00  0.00    +0.000 NA
ATOM      6  C   UNL     1      -0.449  10.282  22.590  0.00  0.00    +0.000 C 
ATOM      7  N   UNL     1      -0.566   9.287  23.532  0.00  0.00    +0.000 N 
ATOM      8  C   UNL     1      -0.167   9.902  21.136  0.00  0.00    +0.000 C 
ATOM      9  H   UNL     1      -0.531   9.672  24.474  0.00  0.00    +0.000 HD
ATOM     10  H   UNL     1       0.112   8.530  23.444  0.00  0.00    +0.000 HD
ENDROOT
BRANCH   8  11
ATOM     11  C   UNL     1       0.993   8.892  21.092  0.00  0.00    +0.000 C 
ATOM     12  O   UNL     1       1.832   8.883  21.989  0.00  0.00    +0.000 OA
ATOM     13  N   UNL     1       1.000   8.049  19.987  0.00  0.00    +0.000 N 
ATOM     14  H   UNL     1       0.466   8.341  19.175  0.00  0.00    +0.000 HD
BRANCH  13  15
ATOM     15  C   UNL     1       1.917   6.989  19.786  0.00  0.00    +0.000 A 
ATOM     16  C   UNL     1       1.899   5.822  20.554  0.00  0.00    +0.000 A 
ATOM     17  C   UNL     1       2.854   4.822  20.365  0.00  0.00    +0.000 A 
ATOM     18  C   UNL     1       3.846   4.963  19.393  0.00  0.00    +0.000 A 
ATOM     19  C   UNL     1       4.908   3.915  19.235  0.00  0.00    +0.000 C 
ATOM     20  C   UNL     1       3.842   6.111  18.593  0.00  0.00    +0.000 A 
ATOM     21  C   UNL     1       2.878   7.111  18.777  0.00  0.00    +0.000 A 
ENDBRANCH  13  15
ENDBRANCH   8  11
BRANCH   1  23
ATOM     22  C   UNL     1      -1.051  10.295  17.973  0.00  0.00    +0.000 C 
ATOM     23  S   UNL     1       0.548  10.868  18.619  0.00  0.00    +0.000 S 
ENDBRANCH   1  23
BRANCH   2  24
ATOM     24  C   UNL     1       0.347  13.584  19.944  0.00  0.00    +0.000 C 
ATOM     25  N   UNL     1       0.622  14.575  19.213  0.00  0.00    +0.000 NA
ENDBRANCH   2  24
TORSDOF 4
ENDMDL
MODEL 6
REMARK VINA RESULT:      -5.6      2.812      4.307
REMARK  Name = 
REMARK  6 active torsions:
REMARK  status: ('A' for Active; 'I' for Inactive)
REMARK    1  A    between atoms: C_1  and  S_2
REMARK    2  A    between atoms: S_2  and  C_3
REMARK    3  A    between atoms: C_4  and  C_5
REMARK    4  A    between atoms: C_12  and  C_13
REMARK    5  A    between atoms: N_15  and  C_16
REMARK    6  A    between atoms: C_19  and  C_20
REMARK                            x       y       z     vdW  Elec       q    Type
REMARK                         _______ _______ _______ _____ _____    ______ ____
ROOT
ATOM      1  C   UNL     1      -1.567  12.638  21.121  0.00  0.00    +0.000 C 
ATOM      2  C   UNL     1      -2.897  12.465  21.315  0.00  0.00    +0.000 C 
ATOM      3  C   UNL     1      -3.834  12.414  20.153  0.00  0.00    +0.000 C 
ATOM      4  S   UNL     1      -5.517  12.480  20.299  0.00  0.00    +0.000 S 
ATOM      5  N   UNL     1      -3.272  12.298  18.903  0.00  0.00    +0.000 NA
ATOM      6  C   UNL     1      -2.000  12.426  18.675  0.00  0.00    +0.000 C 
ATOM      7  N   UNL     1      -1.598  12.272  17.369  0.00  0.00    +0.000 N 
ATOM      8  C   UNL     1      -0.954  12.745  19.744  0.00  0.00    +0.000 C 
ATOM      9  H   UNL     1      -2.336  11.852  16.808  0.00  0.00    +0.000 HD
ATOM     10  H   UNL     1      -0.731  11.749  17.245  0.00  0.00    +0.000 HD
ENDROOT
BRANCH   8  11
ATOM     11  C   UNL     1       0.238  11.783  19.591  0.00  0.00    +0.000 C 
ATOM     12  O   UNL     1       1.386  12.215  19.659  0.00  0.00    +0.000 OA
ATOM     13  N   UNL     1      -0.101  10.454  19.366  0.00  0.00    +0.000 N 
ATOM     14  H   UNL     1      -1.036  10.265  19.020  0.00  0.00    +0.000 HD
BRANCH  13  15
ATOM     15  C   UNL     1       0.826   9.388  19.285  0.00  0.00    +0.000 A 
ATOM     16  C   UNL     1       1.507   9.070  18.108  0.00  0.00    +0.000 A 
ATOM     17  C   UNL     1       2.373   7.977  18.051  0.00  0.00    +0.000 A 
ATOM     18  C   UNL     1       2.585   7.180  19.178  0.00  0.00    +0.000 A 
ATOM     19  C   UNL     1       3.467   5.969  19.096  0.00  0.00    +0.000 C 
ATOM     20  C   UNL     1       1.937   7.520  20.371  0.00  0.00    +0.000 A 
ATOM     21  C   UNL     1       1.075   8.623  20.430  0.00  0.00    +0.000 A 
ENDBRANCH  13  15
ENDBRANCH   8  11
BRANCH   1  23
ATOM     22  C   UNL     1       0.060  14.643  22.142  0.00  0.00    +0.000 C 
ATOM     23  S   UNL     1      -0.473  12.939  22.484  0.00  0.00    +0.000 S 
ENDBRANCH   1  23
BRANCH   2  24
ATOM     24  C   UNL     1      -3.439  12.381  22.733  0.00  0.00    +0.000 C 
ATOM     25  N   UNL     1      -3.889  12.311  23.909  0.00  0.00    +0.000 NA
ENDBRANCH   2  24
TORSDOF 4
ENDMDL
MODEL 7
REMARK VINA RESULT:      -5.6      1.283      1.790
REMARK  Name = 
REMARK  6 active torsions:
REMARK  status: ('A' for Active; 'I' for Inactive)
REMARK    1  A    between atoms: C_1  and  S_2
REMARK    2  A    between atoms: S_2  and  C_3
REMARK    3  A    between atoms: C_4  and  C_5
REMARK    4  A    between atoms: C_12  and  C_13
REMARK    5  A    between atoms: N_15  and  C_16
REMARK    6  A    between atoms: C_19  and  C_20
REMARK                            x       y       z     vdW  Elec       q    Type
REMARK                         _______ _______ _______ _____ _____    ______ ____
ROOT
ATOM      1  C   UNL     1      -0.184  11.543  20.503  0.00  0.00    +0.000 C 
ATOM      2  C   UNL     1      -0.420  12.674  21.211  0.00  0.00    +0.000 C 
ATOM      3  C   UNL     1      -0.884  12.600  22.628  0.00  0.00    +0.000 C 
ATOM      4  S   UNL     1      -1.465  13.929  23.497  0.00  0.00    +0.000 S 
ATOM      5  N   UNL     1      -0.819  11.371  23.244  0.00  0.00    +0.000 NA
ATOM      6  C   UNL     1      -0.566  10.267  22.611  0.00  0.00    +0.000 C 
ATOM      7  N   UNL     1      -0.527   9.124  23.374  0.00  0.00    +0.000 N 
ATOM      8  C   UNL     1      -0.332  10.163  21.103  0.00  0.00    +0.000 C 
ATOM      9  H   UNL     1      -0.476   9.350  24.365  0.00  0.00    +0.000 HD
ATOM     10  H   UNL     1       0.218   8.470  23.132  0.00  0.00    +0.000 HD
ENDROOT
BRANCH   8  11
ATOM     11  C   UNL     1       0.920   9.308  20.841  0.00  0.00    +0.000 C 
ATOM     12  O   UNL     1       1.790   9.216  21.704  0.00  0.00    +0.000 OA
ATOM     13  N   UNL     1       0.967   8.696  19.594  0.00  0.00    +0.000 N 
ATOM     14  H   UNL     1       0.376   9.080  18.865  0.00  0.00    +0.000 HD
BRANCH  13  15
ATOM     15  C   UNL     1       1.977   7.796  19.175  0.00  0.00    +0.000 A 
ATOM     16  C   UNL     1       2.279   6.625  19.874  0.00  0.00    +0.000 A 
ATOM     17  C   UNL     1       3.318   5.789  19.461  0.00  0.00    +0.000 A 
ATOM     18  C   UNL     1       4.075   6.103  18.330  0.00  0.00    +0.000 A 
ATOM     19  C   UNL     1       5.231   5.236  17.927  0.00  0.00    +0.000 C 
ATOM     20  C   UNL     1       3.748   7.253  17.603  0.00  0.00    +0.000 A 
ATOM     21  C   UNL     1       2.698   8.087  18.012  0.00  0.00    +0.000 A 
ENDBRANCH  13  15
ENDBRANCH   8  11
BRANCH   1  23
ATOM     22  C   UNL     1       1.894  12.053  18.734  0.00  0.00    +0.000 C 
ATOM     23  S   UNL     1       0.134  11.601  18.759  0.00  0.00    +0.000 S 
ENDBRANCH   1  23
BRANCH   2  24
ATOM     24  C   UNL     1      -0.264  14.025  20.532  0.00  0.00    +0.000 C 
ATOM     25  N   UNL     1      -0.134  15.146  19.968  0.00  0.00    +0.000 NA
ENDBRANCH   2  24
TORSDOF 4
ENDMDL
MODEL 8
REMARK VINA RESULT:      -5.6      3.704      7.958
REMARK  Name = 
REMARK  6 active torsions:
REMARK  status: ('A' for Active; 'I' for Inactive)
REMARK    1  A    between atoms: C_1  and  S_2
REMARK    2  A    between atoms: S_2  and  C_3
REMARK    3  A    between atoms: C_4  and  C_5
REMARK    4  A    between atoms: C_12  and  C_13
REMARK    5  A    between atoms: N_15  and  C_16
REMARK    6  A    between atoms: C_19  and  C_20
REMARK                            x       y       z     vdW  Elec       q    Type
REMARK                         _______ _______ _______ _____ _____    ______ ____
ROOT
ATOM      1  C   UNL     1       4.213   5.369  18.205  0.00  0.00    +0.000 C 
ATOM      2  C   UNL     1       4.296   4.092  17.758  0.00  0.00    +0.000 C 
ATOM      3  C   UNL     1       3.627   2.982  18.501  0.00  0.00    +0.000 C 
ATOM      4  S   UNL     1       3.897   1.344  18.186  0.00  0.00    +0.000 S 
ATOM      5  N   UNL     1       2.737   3.339  19.488  0.00  0.00    +0.000 NA
ATOM      6  C   UNL     1       2.603   4.554  19.926  0.00  0.00    +0.000 C 
ATOM      7  N   UNL     1       1.662   4.745  20.910  0.00  0.00    +0.000 N 
ATOM      8  C   UNL     1       3.420   5.750  19.434  0.00  0.00    +0.000 C 
ATOM      9  H   UNL     1       1.048   3.938  20.988  0.00  0.00    +0.000 HD
ATOM     10  H   UNL     1       1.105   5.594  20.813  0.00  0.00    +0.000 HD
ENDROOT
BRANCH   8  11
ATOM     11  C   UNL     1       2.472   6.925  19.140  0.00  0.00    +0.000 C 
ATOM     12  O   UNL     1       2.034   7.090  18.005  0.00  0.00    +0.000 OA
ATOM     13  N   UNL     1       2.190   7.743  20.228  0.00  0.00    +0.000 N 
ATOM     14  H   UNL     1       2.831   7.710  21.014  0.00  0.00    +0.000 HD
BRANCH  13  15
ATOM     15  C   UNL     1       1.277   8.825  20.209  0.00  0.00    +0.000 A 
ATOM     16  C   UNL     1       0.454   9.134  21.295  0.00  0.00    +0.000 A 
ATOM     17  C   UNL     1      -0.474  10.174  21.220  0.00  0.00    +0.000 A 
ATOM     18  C   UNL     1      -0.594  10.937  20.057  0.00  0.00    +0.000 A 
ATOM     19  C   UNL     1      -1.635  12.012  19.958  0.00  0.00    +0.000 C 
ATOM     20  C   UNL     1       0.258  10.657  18.982  0.00  0.00    +0.000 A 
ATOM     21  C   UNL     1       1.196   9.619  19.061  0.00  0.00    +0.000 A 
ENDBRANCH  13  15
ENDBRANCH   8  11
BRANCH   1  23
ATOM     22  C   UNL     1       6.830   6.296  18.172  0.00  0.00    +0.000 C 
ATOM     23  S   UNL     1       5.189   6.660  17.480  0.00  0.00    +0.000 S 
ENDBRANCH   1  23
BRANCH   2  24
ATOM     24  C   UNL     1       5.125   3.787  16.521  0.00  0.00    +0.000 C 
ATOM     25  N   UNL     1       5.814   3.534  15.495  0.00  0.00    +0.000 NA
ENDBRANCH   2  24
TORSDOF 4
ENDMDL
MODEL 9
REMARK VINA RESULT:      -5.6      1.854      2.261
REMARK  Name = 
REMARK  6 active torsions:
REMARK  status: ('A' for Active; 'I' for Inactive)
REMARK    1  A    between atoms: C_1  and  S_2
REMARK    2  A    between atoms: S_2  and  C_3
REMARK    3  A    between atoms: C_4  and  C_5
REMARK    4  A    between atoms: C_12  and  C_13
REMARK    5  A    between atoms: N_15  and  C_16
REMARK    6  A    between atoms: C_19  and  C_20
REMARK                            x       y       z     vdW  Elec       q    Type
REMARK                         _______ _______ _______ _____ _____    ______ ____
ROOT
ATOM      1  C   UNL     1      -0.792  12.535  20.658  0.00  0.00    +0.000 C 
ATOM      2  C   UNL     1      -1.077  13.587  21.462  0.00  0.00    +0.000 C 
ATOM      3  C   UNL     1      -1.459  13.371  22.890  0.00  0.00    +0.000 C 
ATOM      4  S   UNL     1      -2.094  14.580  23.886  0.00  0.00    +0.000 S 
ATOM      5  N   UNL     1      -1.265  12.109  23.403  0.00  0.00    +0.000 NA
ATOM      6  C   UNL     1      -0.962  11.079  22.675  0.00  0.00    +0.000 C 
ATOM      7  N   UNL     1      -0.793   9.889  23.344  0.00  0.00    +0.000 N 
ATOM      8  C   UNL     1      -0.800  11.107  21.154  0.00  0.00    +0.000 C 
ATOM      9  H   UNL     1      -0.708  10.045  24.346  0.00  0.00    +0.000 HD
ATOM     10  H   UNL     1      -0.014   9.319  23.017  0.00  0.00    +0.000 HD
ENDROOT
BRANCH   8  11
ATOM     11  C   UNL     1       0.499  10.378  20.769  0.00  0.00    +0.000 C 
ATOM     12  O   UNL     1       1.536  10.606  21.387  0.00  0.00    +0.000 OA
ATOM     13  N   UNL     1       0.387   9.496  19.700  0.00  0.00    +0.000 N 
ATOM     14  H   UNL     1      -0.406   9.617  19.078  0.00  0.00    +0.000 HD
BRANCH  13  15
ATOM     15  C   UNL     1       1.428   8.657  19.234  0.00  0.00    +0.000 A 
ATOM     16  C   UNL     1       2.081   8.871  18.018  0.00  0.00    +0.000 A 
ATOM     17  C   UNL     1       3.064   7.990  17.565  0.00  0.00    +0.000 A 
ATOM     18  C   UNL     1       3.425   6.876  18.327  0.00  0.00    +0.000 A 
ATOM     19  C   UNL     1       4.436   5.898  17.808  0.00  0.00    +0.000 C 
ATOM     20  C   UNL     1       2.803   6.682  19.565  0.00  0.00    +0.000 A 
ATOM     21  C   UNL     1       1.822   7.572  20.024  0.00  0.00    +0.000 A 
ENDBRANCH  13  15
ENDBRANCH   8  11
BRANCH   1  23
ATOM     22  C   UNL     1       1.188  13.197  18.827  0.00  0.00    +0.000 C 
ATOM     23  S   UNL     1      -0.571  12.748  18.911  0.00  0.00    +0.000 S 
ENDBRANCH   1  23
BRANCH   2  24
ATOM     24  C   UNL     1      -1.062  14.993  20.884  0.00  0.00    +0.000 C 
ATOM     25  N   UNL     1      -1.050  16.159  20.404  0.00  0.00    +0.000 NA
ENDBRANCH   2  24
TORSDOF 4
ENDMDL
