MODEL 1
REMARK VINA RESULT:      -7.6      0.000      0.000
REMARK  Name = 
REMARK  3 active torsions:
REMARK  status: ('A' for Active; 'I' for Inactive)
REMARK    1  A    between atoms: C_2  and  C_4
REMARK    2  A    between atoms: C_4  and  C_7
REMARK    3  A    between atoms: C_9  and  C_10
REMARK                            x       y       z     vdW  Elec       q    Type
REMARK                         _______ _______ _______ _____ _____    ______ ____
ROOT
ATOM      1  C   UNL     1       3.385   3.865  19.710  0.00  0.00    +0.000 A 
ATOM      2  C   UNL     1       3.585   4.455  18.436  0.00  0.00    +0.000 A 
ATOM      3  C   UNL     1       4.810   3.999  17.988  0.00  0.00    +0.000 A 
ATOM      4  N   UNL     1       5.279   3.214  19.010  0.00  0.00    +0.000 N 
ATOM      5  N   UNL     1       4.419   3.072  20.036  0.00  0.00    +0.000 NA
ATOM      6  H   UNL     1       6.175   2.743  19.069  0.00  0.00    +0.000 HD
ENDROOT
BRANCH   3   7
ATOM      7  C   UNL     1       5.533   4.254  16.744  0.00  0.00    +0.000 A 
ATOM      8  C   UNL     1       6.857   4.716  16.785  0.00  0.00    +0.000 A 
ATOM      9  C   UNL     1       7.553   5.004  15.607  0.00  0.00    +0.000 A 
ATOM     10  C   UNL     1       6.927   4.831  14.377  0.00  0.00    +0.000 A 
ATOM     11 CL   UNL     1       7.774   5.202  12.926  0.00  0.00    +0.000 Cl
ATOM     12  C   UNL     1       5.616   4.366  14.314  0.00  0.00    +0.000 A 
ATOM     13  C   UNL     1       4.921   4.078  15.495  0.00  0.00    +0.000 A 
ENDBRANCH   3   7
BRANCH   1  14
ATOM     14  C   UNL     1       2.181   4.035  20.602  0.00  0.00    +0.000 C 
ATOM     15  F   UNL     1       1.405   5.070  20.154  0.00  0.00    +0.000 F 
ATOM     16  F   UNL     1       2.557   4.388  21.869  0.00  0.00    +0.000 F 
BRANCH  14  18
ATOM     17  F   UNL     1       0.825   2.572  21.903  0.00  0.00    +0.000 F 
ATOM     18  C   UNL     1       1.352   2.755  20.659  0.00  0.00    +0.000 C 
ATOM     19  F   UNL     1       0.286   2.818  19.812  0.00  0.00    +0.000 F 
ENDBRANCH  14  18
ENDBRANCH   1  14
TORSDOF 3
ENDMDL
MODEL 2
REMARK VINA RESULT:      -7.5      0.080      1.140
REMARK  Name = 
REMARK  3 active torsions:
REMARK  status: ('A' for Active; 'I' for Inactive)
REMARK    1  A    between atoms: C_2  and  C_4
REMARK    2  A    between atoms: C_4  and  C_7
REMARK    3  A    between atoms: C_9  and  C_10
REMARK                            x       y       z     vdW  Elec       q    Type
REMARK                         _______ _______ _______ _____ _____    ______ ____
ROOT
ATOM      1  C   UNL     1       3.422   3.865  19.740  0.00  0.00    +0.000 A 
ATOM      2  C   UNL     1       3.606   4.490  18.481  0.00  0.00    +0.000 A 
ATOM      3  C   UNL     1       4.832   4.058  18.012  0.00  0.00    +0.000 A 
ATOM      4  N   UNL     1       5.318   3.253  19.010  0.00  0.00    +0.000 N 
ATOM      5  N   UNL     1       4.467   3.075  20.038  0.00  0.00    +0.000 NA
ATOM      6  H   UNL     1       6.219   2.790  19.050  0.00  0.00    +0.000 HD
ENDROOT
BRANCH   3   7
ATOM      7  C   UNL     1       5.543   4.352  16.769  0.00  0.00    +0.000 A 
ATOM      8  C   UNL     1       4.894   4.189  15.536  0.00  0.00    +0.000 A 
ATOM      9  C   UNL     1       5.568   4.427  14.334  0.00  0.00    +0.000 A 
ATOM     10  C   UNL     1       6.899   4.829  14.358  0.00  0.00    +0.000 A 
ATOM     11 CL   UNL     1       7.737   5.102  12.881  0.00  0.00    +0.000 Cl
ATOM     12  C   UNL     1       7.559   5.002  15.571  0.00  0.00    +0.000 A 
ATOM     13  C   UNL     1       6.882   4.765  16.774  0.00  0.00    +0.000 A 
ENDBRANCH   3   7
BRANCH   1  14
ATOM     14  C   UNL     1       2.223   4.000  20.645  0.00  0.00    +0.000 C 
ATOM     15  F   UNL     1       1.419   5.020  20.214  0.00  0.00    +0.000 F 
ATOM     16  F   UNL     1       2.604   4.351  21.912  0.00  0.00    +0.000 F 
BRANCH  14  18
ATOM     17  F   UNL     1       0.878   2.516  21.934  0.00  0.00    +0.000 F 
ATOM     18  C   UNL     1       1.425   2.701  20.700  0.00  0.00    +0.000 C 
ATOM     19  F   UNL     1       0.375   2.729  19.831  0.00  0.00    +0.000 F 
ENDBRANCH  14  18
ENDBRANCH   1  14
TORSDOF 3
ENDMDL
MODEL 3
REMARK VINA RESULT:      -7.5      0.629      1.606
REMARK  Name = 
REMARK  3 active torsions:
REMARK  status: ('A' for Active; 'I' for Inactive)
REMARK    1  A    between atoms: C_2  and  C_4
REMARK    2  A    between atoms: C_4  and  C_7
REMARK    3  A    between atoms: C_9  and  C_10
REMARK                            x       y       z     vdW  Elec       q    Type
REMARK                         _______ _______ _______ _____ _____    ______ ____
ROOT
ATOM      1  C   UNL     1       3.497   3.437  19.780  0.00  0.00    +0.000 A 
ATOM      2  C   UNL     1       3.608   4.051  18.507  0.00  0.00    +0.000 A 
ATOM      3  C   UNL     1       4.903   3.826  18.081  0.00  0.00    +0.000 A 
ATOM      4  N   UNL     1       5.490   3.141  19.114  0.00  0.00    +0.000 N 
ATOM      5  N   UNL     1       4.653   2.846  20.127  0.00  0.00    +0.000 NA
ATOM      6  H   UNL     1       6.456   2.841  19.190  0.00  0.00    +0.000 HD
ENDROOT
BRANCH   3   7
ATOM      7  C   UNL     1       5.588   4.205  16.848  0.00  0.00    +0.000 A 
ATOM      8  C   UNL     1       4.954   4.021  15.609  0.00  0.00    +0.000 A 
ATOM      9  C   UNL     1       5.607   4.341  14.415  0.00  0.00    +0.000 A 
ATOM     10  C   UNL     1       6.902   4.848  14.451  0.00  0.00    +0.000 A 
ATOM     11 CL   UNL     1       7.716   5.224  12.983  0.00  0.00    +0.000 Cl
ATOM     12  C   UNL     1       7.545   5.045  15.670  0.00  0.00    +0.000 A 
ATOM     13  C   UNL     1       6.889   4.725  16.865  0.00  0.00    +0.000 A 
ENDBRANCH   3   7
BRANCH   1  14
ATOM     14  C   UNL     1       2.268   3.386  20.652  0.00  0.00    +0.000 C 
ATOM     15  F   UNL     1       2.439   4.179  21.754  0.00  0.00    +0.000 F 
ATOM     16  F   UNL     1       2.067   2.125  21.142  0.00  0.00    +0.000 F 
BRANCH  14  18
ATOM     17  F   UNL     1       0.232   2.768  19.582  0.00  0.00    +0.000 F 
ATOM     18  C   UNL     1       1.028   3.832  19.883  0.00  0.00    +0.000 C 
ATOM     19  F   UNL     1       0.257   4.671  20.631  0.00  0.00    +0.000 F 
ENDBRANCH  14  18
ENDBRANCH   1  14
TORSDOF 3
ENDMDL
MODEL 4
REMARK VINA RESULT:      -7.4      0.879      1.611
REMARK  Name = 
REMARK  3 active torsions:
REMARK  status: ('A' for Active; 'I' for Inactive)
REMARK    1  A    between atoms: C_2  and  C_4
REMARK    2  A    between atoms: C_4  and  C_7
REMARK    3  A    between atoms: C_9  and  C_10
REMARK                            x       y       z     vdW  Elec       q    Type
REMARK                         _______ _______ _______ _____ _____    ______ ____
ROOT
ATOM      1  C   UNL     1       3.090   3.163  18.891  0.00  0.00    +0.000 A 
ATOM      2  C   UNL     1       3.338   3.601  17.565  0.00  0.00    +0.000 A 
ATOM      3  C   UNL     1       4.711   3.690  17.439  0.00  0.00    +0.000 A 
ATOM      4  N   UNL     1       5.193   3.348  18.676  0.00  0.00    +0.000 N 
ATOM      5  N   UNL     1       4.243   2.974  19.554  0.00  0.00    +0.000 NA
ATOM      6  H   UNL     1       6.158   3.344  18.987  0.00  0.00    +0.000 HD
ENDROOT
BRANCH   3   7
ATOM      7  C   UNL     1       5.548   4.071  16.303  0.00  0.00    +0.000 A 
ATOM      8  C   UNL     1       6.722   4.810  16.516  0.00  0.00    +0.000 A 
ATOM      9  C   UNL     1       7.516   5.219  15.440  0.00  0.00    +0.000 A 
ATOM     10  C   UNL     1       7.140   4.891  14.141  0.00  0.00    +0.000 A 
ATOM     11 CL   UNL     1       8.104   5.410  12.814  0.00  0.00    +0.000 Cl
ATOM     12  C   UNL     1       5.983   4.153  13.910  0.00  0.00    +0.000 A 
ATOM     13  C   UNL     1       5.189   3.743  14.989  0.00  0.00    +0.000 A 
ENDBRANCH   3   7
BRANCH   1  14
ATOM     14  C   UNL     1       1.743   2.892  19.512  0.00  0.00    +0.000 C 
ATOM     15  F   UNL     1       1.588   1.551  19.734  0.00  0.00    +0.000 F 
ATOM     16  F   UNL     1       0.732   3.236  18.658  0.00  0.00    +0.000 F 
BRANCH  14  18
ATOM     17  F   UNL     1       0.672   4.664  20.689  0.00  0.00    +0.000 F 
ATOM     18  C   UNL     1       1.578   3.655  20.824  0.00  0.00    +0.000 C 
ATOM     19  F   UNL     1       1.088   2.847  21.807  0.00  0.00    +0.000 F 
ENDBRANCH  14  18
ENDBRANCH   1  14
TORSDOF 3
ENDMDL
MODEL 5
REMARK VINA RESULT:      -7.3      0.778      1.941
REMARK  Name = 
REMARK  3 active torsions:
REMARK  status: ('A' for Active; 'I' for Inactive)
REMARK    1  A    between atoms: C_2  and  C_4
REMARK    2  A    between atoms: C_4  and  C_7
REMARK    3  A    between atoms: C_9  and  C_10
REMARK                            x       y       z     vdW  Elec       q    Type
REMARK                         _______ _______ _______ _____ _____    ______ ____
ROOT
ATOM      1  C   UNL     1       2.979   3.185  19.079  0.00  0.00    +0.000 A 
ATOM      2  C   UNL     1       3.223   3.653  17.763  0.00  0.00    +0.000 A 
ATOM      3  C   UNL     1       4.595   3.754  17.638  0.00  0.00    +0.000 A 
ATOM      4  N   UNL     1       5.080   3.389  18.868  0.00  0.00    +0.000 N 
ATOM      5  N   UNL     1       4.133   2.989  19.738  0.00  0.00    +0.000 NA
ATOM      6  H   UNL     1       6.046   3.385  19.178  0.00  0.00    +0.000 HD
ENDROOT
BRANCH   3   7
ATOM      7  C   UNL     1       5.429   4.166  16.511  0.00  0.00    +0.000 A 
ATOM      8  C   UNL     1       4.977   3.970  15.197  0.00  0.00    +0.000 A 
ATOM      9  C   UNL     1       5.776   4.321  14.105  0.00  0.00    +0.000 A 
ATOM     10  C   UNL     1       7.036   4.869  14.319  0.00  0.00    +0.000 A 
ATOM     11 CL   UNL     1       8.029   5.283  12.977  0.00  0.00    +0.000 Cl
ATOM     12  C   UNL     1       7.500   5.078  15.615  0.00  0.00    +0.000 A 
ATOM     13  C   UNL     1       6.698   4.727  16.708  0.00  0.00    +0.000 A 
ENDBRANCH   3   7
BRANCH   1  14
ATOM     14  C   UNL     1       1.634   2.891  19.696  0.00  0.00    +0.000 C 
ATOM     15  F   UNL     1       1.644   1.653  20.280  0.00  0.00    +0.000 F 
ATOM     16  F   UNL     1       0.660   2.830  18.737  0.00  0.00    +0.000 F 
BRANCH  14  18
ATOM     17  F   UNL     1       1.843   3.681  21.933  0.00  0.00    +0.000 F 
ATOM     18  C   UNL     1       1.259   3.947  20.731  0.00  0.00    +0.000 C 
ATOM     19  F   UNL     1       1.712   5.180  20.365  0.00  0.00    +0.000 F 
ENDBRANCH  14  18
ENDBRANCH   1  14
TORSDOF 3
ENDMDL
MODEL 6
REMARK VINA RESULT:      -7.3      2.424      2.881
REMARK  Name = 
REMARK  3 active torsions:
REMARK  status: ('A' for Active; 'I' for Inactive)
REMARK    1  A    between atoms: C_2  and  C_4
REMARK    2  A    between atoms: C_4  and  C_7
REMARK    3  A    between atoms: C_9  and  C_10
REMARK                            x       y       z     vdW  Elec       q    Type
REMARK                         _______ _______ _______ _____ _____    ______ ____
ROOT
ATOM      1  C   UNL     1       3.065   3.044  19.311  0.00  0.00    +0.000 A 
ATOM      2  C   UNL     1       3.423   4.356  18.910  0.00  0.00    +0.000 A 
ATOM      3  C   UNL     1       4.803   4.375  18.840  0.00  0.00    +0.000 A 
ATOM      4  N   UNL     1       5.184   3.117  19.232  0.00  0.00    +0.000 N 
ATOM      5  N   UNL     1       4.157   2.279  19.470  0.00  0.00    +0.000 NA
ATOM      6  H   UNL     1       6.127   2.764  19.354  0.00  0.00    +0.000 HD
ENDROOT
BRANCH   3   7
ATOM      7  C   UNL     1       5.732   5.440  18.469  0.00  0.00    +0.000 A 
ATOM      8  C   UNL     1       6.982   5.530  19.099  0.00  0.00    +0.000 A 
ATOM      9  C   UNL     1       7.869   6.565  18.786  0.00  0.00    +0.000 A 
ATOM     10  C   UNL     1       7.510   7.519  17.841  0.00  0.00    +0.000 A 
ATOM     11 CL   UNL     1       8.591   8.805  17.469  0.00  0.00    +0.000 Cl
ATOM     12  C   UNL     1       6.277   7.444  17.200  0.00  0.00    +0.000 A 
ATOM     13  C   UNL     1       5.390   6.407  17.513  0.00  0.00    +0.000 A 
ENDBRANCH   3   7
BRANCH   1  14
ATOM     14  C   UNL     1       1.667   2.514  19.509  0.00  0.00    +0.000 C 
ATOM     15  F   UNL     1       1.667   1.147  19.438  0.00  0.00    +0.000 F 
ATOM     16  F   UNL     1       0.839   2.928  18.502  0.00  0.00    +0.000 F 
BRANCH  14  18
ATOM     17  F   UNL     1       1.982   2.740  21.859  0.00  0.00    +0.000 F 
ATOM     18  C   UNL     1       1.093   2.961  20.851  0.00  0.00    +0.000 C 
ATOM     19  F   UNL     1       0.848   4.302  20.861  0.00  0.00    +0.000 F 
ENDBRANCH  14  18
ENDBRANCH   1  14
TORSDOF 3
ENDMDL
MODEL 7
REMARK VINA RESULT:      -7.1      1.008      1.695
REMARK  Name = 
REMARK  3 active torsions:
REMARK  status: ('A' for Active; 'I' for Inactive)
REMARK    1  A    between atoms: C_2  and  C_4
REMARK    2  A    between atoms: C_4  and  C_7
REMARK    3  A    between atoms: C_9  and  C_10
REMARK                            x       y       z     vdW  Elec       q    Type
REMARK                         _______ _______ _______ _____ _____    ______ ____
ROOT
ATOM      1  C   UNL     1       2.741   3.243  19.090  0.00  0.00    +0.000 A 
ATOM      2  C   UNL     1       3.400   4.240  18.327  0.00  0.00    +0.000 A 
ATOM      3  C   UNL     1       4.249   3.569  17.467  0.00  0.00    +0.000 A 
ATOM      4  N   UNL     1       4.083   2.245  17.784  0.00  0.00    +0.000 N 
ATOM      5  N   UNL     1       3.142   2.016  18.720  0.00  0.00    +0.000 NA
ATOM      6  H   UNL     1       4.576   1.448  17.397  0.00  0.00    +0.000 HD
ENDROOT
BRANCH   3   7
ATOM      7  C   UNL     1       5.164   4.064  16.442  0.00  0.00    +0.000 A 
ATOM      8  C   UNL     1       5.015   3.647  15.110  0.00  0.00    +0.000 A 
ATOM      9  C   UNL     1       5.904   4.078  14.120  0.00  0.00    +0.000 A 
ATOM     10  C   UNL     1       6.951   4.929  14.457  0.00  0.00    +0.000 A 
ATOM     11 CL   UNL     1       8.059   5.444  13.246  0.00  0.00    +0.000 Cl
ATOM     12  C   UNL     1       7.113   5.359  15.771  0.00  0.00    +0.000 A 
ATOM     13  C   UNL     1       6.221   4.928  16.761  0.00  0.00    +0.000 A 
ENDBRANCH   3   7
BRANCH   1  14
ATOM     14  C   UNL     1       1.697   3.468  20.155  0.00  0.00    +0.000 C 
ATOM     15  F   UNL     1       0.445   3.414  19.606  0.00  0.00    +0.000 F 
ATOM     16  F   UNL     1       1.803   4.723  20.688  0.00  0.00    +0.000 F 
BRANCH  14  18
ATOM     17  F   UNL     1       2.996   2.571  21.938  0.00  0.00    +0.000 F 
ATOM     18  C   UNL     1       1.816   2.434  21.271  0.00  0.00    +0.000 C 
ATOM     19  F   UNL     1       0.840   2.603  22.208  0.00  0.00    +0.000 F 
ENDBRANCH  14  18
ENDBRANCH   1  14
TORSDOF 3
ENDMDL
MODEL 8
REMARK VINA RESULT:      -7.1      5.812      7.421
REMARK  Name = 
REMARK  3 active torsions:
REMARK  status: ('A' for Active; 'I' for Inactive)
REMARK    1  A    between atoms: C_2  and  C_4
REMARK    2  A    between atoms: C_4  and  C_7
REMARK    3  A    between atoms: C_9  and  C_10
REMARK                            x       y       z     vdW  Elec       q    Type
REMARK                         _______ _______ _______ _____ _____    ______ ____
ROOT
ATOM      1  C   UNL     1       6.386   4.194  13.733  0.00  0.00    +0.000 A 
ATOM      2  C   UNL     1       5.339   3.869  14.633  0.00  0.00    +0.000 A 
ATOM      3  C   UNL     1       5.586   4.587  15.788  0.00  0.00    +0.000 A 
ATOM      4  N   UNL     1       6.758   5.253  15.534  0.00  0.00    +0.000 N 
ATOM      5  N   UNL     1       7.234   5.078  14.287  0.00  0.00    +0.000 NA
ATOM      6  H   UNL     1       7.284   5.846  16.167  0.00  0.00    +0.000 HD
ENDROOT
BRANCH   3   7
ATOM      7  C   UNL     1       4.846   4.668  17.044  0.00  0.00    +0.000 A 
ATOM      8  C   UNL     1       3.649   3.951  17.200  0.00  0.00    +0.000 A 
ATOM      9  C   UNL     1       2.906   4.046  18.380  0.00  0.00    +0.000 A 
ATOM     10  C   UNL     1       3.353   4.862  19.414  0.00  0.00    +0.000 A 
ATOM     11 CL   UNL     1       2.430   4.996  20.860  0.00  0.00    +0.000 Cl
ATOM     12  C   UNL     1       4.541   5.576  19.282  0.00  0.00    +0.000 A 
ATOM     13  C   UNL     1       5.286   5.479  18.100  0.00  0.00    +0.000 A 
ENDBRANCH   3   7
BRANCH   1  14
ATOM     14  C   UNL     1       6.555   3.682  12.325  0.00  0.00    +0.000 C 
ATOM     15  F   UNL     1       7.662   2.883  12.244  0.00  0.00    +0.000 F 
ATOM     16  F   UNL     1       6.788   4.712  11.455  0.00  0.00    +0.000 F 
BRANCH  14  18
ATOM     17  F   UNL     1       4.525   3.676  11.078  0.00  0.00    +0.000 F 
ATOM     18  C   UNL     1       5.323   2.905  11.870  0.00  0.00    +0.000 C 
ATOM     19  F   UNL     1       5.670   1.829  11.108  0.00  0.00    +0.000 F 
ENDBRANCH  14  18
ENDBRANCH   1  14
TORSDOF 3
ENDMDL
MODEL 9
REMARK VINA RESULT:      -7.0      5.811      7.531
REMARK  Name = 
REMARK  3 active torsions:
REMARK  status: ('A' for Active; 'I' for Inactive)
REMARK    1  A    between atoms: C_2  and  C_4
REMARK    2  A    between atoms: C_4  and  C_7
REMARK    3  A    between atoms: C_9  and  C_10
REMARK                            x       y       z     vdW  Elec       q    Type
REMARK                         _______ _______ _______ _____ _____    ______ ____
ROOT
ATOM      1  C   UNL     1       6.292   4.274  13.485  0.00  0.00    +0.000 A 
ATOM      2  C   UNL     1       5.243   3.971  14.389  0.00  0.00    +0.000 A 
ATOM      3  C   UNL     1       5.538   4.639  15.562  0.00  0.00    +0.000 A 
ATOM      4  N   UNL     1       6.737   5.256  15.312  0.00  0.00    +0.000 N 
ATOM      5  N   UNL     1       7.188   5.098  14.053  0.00  0.00    +0.000 NA
ATOM      6  H   UNL     1       7.299   5.804  15.955  0.00  0.00    +0.000 HD
ENDROOT
BRANCH   3   7
ATOM      7  C   UNL     1       4.819   4.715  16.831  0.00  0.00    +0.000 A 
ATOM      8  C   UNL     1       4.347   3.542  17.440  0.00  0.00    +0.000 A 
ATOM      9  C   UNL     1       3.622   3.597  18.635  0.00  0.00    +0.000 A 
ATOM     10  C   UNL     1       3.364   4.827  19.229  0.00  0.00    +0.000 A 
ATOM     11 CL   UNL     1       2.455   4.899  20.688  0.00  0.00    +0.000 Cl
ATOM     12  C   UNL     1       3.829   6.001  18.645  0.00  0.00    +0.000 A 
ATOM     13  C   UNL     1       4.556   5.946  17.449  0.00  0.00    +0.000 A 
ENDBRANCH   3   7
BRANCH   1  14
ATOM     14  C   UNL     1       6.417   3.800  12.059  0.00  0.00    +0.000 C 
ATOM     15  F   UNL     1       7.409   4.490  11.418  0.00  0.00    +0.000 F 
ATOM     16  F   UNL     1       5.277   4.066  11.352  0.00  0.00    +0.000 F 
BRANCH  14  18
ATOM     17  F   UNL     1       5.614   1.609  11.583  0.00  0.00    +0.000 F 
ATOM     18  C   UNL     1       6.709   2.303  12.000  0.00  0.00    +0.000 C 
ATOM     19  F   UNL     1       7.690   2.026  11.094  0.00  0.00    +0.000 F 
ENDBRANCH  14  18
ENDBRANCH   1  14
TORSDOF 3
ENDMDL
