MODEL 1
REMARK VINA RESULT:      -7.4      0.000      0.000
REMARK  Name = 
REMARK  5 active torsions:
REMARK  status: ('A' for Active; 'I' for Inactive)
REMARK    1  A    between atoms: C_1  and  C_2
REMARK    2  A    between atoms: C_2  and  O_3
REMARK    3  A    between atoms: O_3  and  C_4
REMARK    4  A    between atoms: C_15  and  C_16
REMARK    5  A    between atoms: C_16  and  O_18
REMARK                            x       y       z     vdW  Elec       q    Type
REMARK                         _______ _______ _______ _____ _____    ______ ____
ROOT
ATOM      1  C   UNL     1       1.221   8.398  20.333  0.00  0.00    +0.000 A 
ATOM      2  C   UNL     1       0.573   9.550  19.860  0.00  0.00    +0.000 A 
ATOM      3  C   UNL     1       0.827  10.048  18.582  0.00  0.00    +0.000 A 
ATOM      4  C   UNL     1       1.761   9.415  17.770  0.00  0.00    +0.000 A 
ATOM      5  C   UNL     1       2.395   8.247  18.215  0.00  0.00    +0.000 A 
ATOM      6  C   UNL     1       2.079   7.699  19.469  0.00  0.00    +0.000 A 
ATOM      7  C   UNL     1       2.611   6.350  19.763  0.00  0.00    +0.000 C 
ATOM      8  O   UNL     1       2.057   5.578  20.537  0.00  0.00    +0.000 OA
ATOM      9  C   UNL     1       3.828   5.894  19.077  0.00  0.00    +0.000 A 
ATOM     10  C   UNL     1       4.573   4.836  19.614  0.00  0.00    +0.000 A 
ATOM     11  C   UNL     1       5.715   4.379  18.955  0.00  0.00    +0.000 A 
ATOM     12  C   UNL     1       6.098   4.969  17.739  0.00  0.00    +0.000 A 
ATOM     13  C   UNL     1       5.354   6.037  17.214  0.00  0.00    +0.000 A 
ATOM     14  C   UNL     1       4.221   6.500  17.889  0.00  0.00    +0.000 A 
ATOM     15  C   UNL     1       3.426   7.622  17.355  0.00  0.00    +0.000 C 
ATOM     16  O   UNL     1       3.650   8.052  16.230  0.00  0.00    +0.000 OA
ENDROOT
BRANCH  12  17
ATOM     17  C   UNL     1       7.312   4.529  17.003  0.00  0.00    +0.000 C 
ATOM     18  O   UNL     1       7.407   4.619  15.791  0.00  0.00    +0.000 OA
BRANCH  17  19
ATOM     19  O   UNL     1       8.279   4.007  17.784  0.00  0.00    +0.000 OA
ATOM     20  H   UNL     1       8.743   3.229  17.432  0.00  0.00    +0.000 HD
ENDBRANCH  17  19
ENDBRANCH  12  17
BRANCH   1  21
ATOM     21  O   UNL     1       0.895   8.099  21.628  0.00  0.00    +0.000 OA
BRANCH  21  23
ATOM     22  C   UNL     1      -0.020   9.512  23.356  0.00  0.00    +0.000 C 
ATOM     23  C   UNL     1      -0.321   8.640  22.152  0.00  0.00    +0.000 C 
ENDBRANCH  21  23
ENDBRANCH   1  21
TORSDOF 4
ENDMDL
MODEL 2
REMARK VINA RESULT:      -7.2      2.478      4.110
REMARK  Name = 
REMARK  5 active torsions:
REMARK  status: ('A' for Active; 'I' for Inactive)
REMARK    1  A    between atoms: C_1  and  C_2
REMARK    2  A    between atoms: C_2  and  O_3
REMARK    3  A    between atoms: O_3  and  C_4
REMARK    4  A    between atoms: C_15  and  C_16
REMARK    5  A    between atoms: C_16  and  O_18
REMARK                            x       y       z     vdW  Elec       q    Type
REMARK                         _______ _______ _______ _____ _____    ______ ____
ROOT
ATOM      1  C   UNL     1       2.082   4.825  20.398  0.00  0.00    +0.000 A 
ATOM      2  C   UNL     1       1.125   3.883  20.808  0.00  0.00    +0.000 A 
ATOM      3  C   UNL     1       1.036   2.631  20.199  0.00  0.00    +0.000 A 
ATOM      4  C   UNL     1       1.887   2.317  19.145  0.00  0.00    +0.000 A 
ATOM      5  C   UNL     1       2.867   3.234  18.744  0.00  0.00    +0.000 A 
ATOM      6  C   UNL     1       3.011   4.461  19.410  0.00  0.00    +0.000 A 
ATOM      7  C   UNL     1       4.210   5.265  19.084  0.00  0.00    +0.000 C 
ATOM      8  O   UNL     1       4.711   6.053  19.877  0.00  0.00    +0.000 OA
ATOM      9  C   UNL     1       4.854   5.091  17.774  0.00  0.00    +0.000 A 
ATOM     10  C   UNL     1       5.703   6.090  17.279  0.00  0.00    +0.000 A 
ATOM     11  C   UNL     1       6.340   5.920  16.050  0.00  0.00    +0.000 A 
ATOM     12  C   UNL     1       6.146   4.733  15.324  0.00  0.00    +0.000 A 
ATOM     13  C   UNL     1       5.284   3.742  15.821  0.00  0.00    +0.000 A 
ATOM     14  C   UNL     1       4.636   3.927  17.045  0.00  0.00    +0.000 A 
ATOM     15  C   UNL     1       3.725   2.899  17.583  0.00  0.00    +0.000 C 
ATOM     16  O   UNL     1       3.656   1.800  17.048  0.00  0.00    +0.000 OA
ENDROOT
BRANCH  12  17
ATOM     17  C   UNL     1       6.790   4.507  14.004  0.00  0.00    +0.000 C 
ATOM     18  O   UNL     1       7.590   5.293  13.526  0.00  0.00    +0.000 OA
BRANCH  17  19
ATOM     19  O   UNL     1       6.398   3.378  13.378  0.00  0.00    +0.000 OA
ATOM     20  H   UNL     1       6.825   2.554  13.669  0.00  0.00    +0.000 HD
ENDBRANCH  17  19
ENDBRANCH  12  17
BRANCH   1  21
ATOM     21  O   UNL     1       1.975   6.015  21.065  0.00  0.00    +0.000 OA
BRANCH  21  23
ATOM     22  C   UNL     1       1.257   8.307  21.283  0.00  0.00    +0.000 C 
ATOM     23  C   UNL     1       1.504   7.150  20.334  0.00  0.00    +0.000 C 
ENDBRANCH  21  23
ENDBRANCH   1  21
TORSDOF 4
ENDMDL
MODEL 3
REMARK VINA RESULT:      -7.1      3.120      6.454
REMARK  Name = 
REMARK  5 active torsions:
REMARK  status: ('A' for Active; 'I' for Inactive)
REMARK    1  A    between atoms: C_1  and  C_2
REMARK    2  A    between atoms: C_2  and  O_3
REMARK    3  A    between atoms: O_3  and  C_4
REMARK    4  A    between atoms: C_15  and  C_16
REMARK    5  A    between atoms: C_16  and  O_18
REMARK                            x       y       z     vdW  Elec       q    Type
REMARK                         _______ _______ _______ _____ _____    ______ ____
ROOT
ATOM      1  C   UNL     1       6.457   6.357  16.376  0.00  0.00    +0.000 A 
ATOM      2  C   UNL     1       7.210   5.753  15.357  0.00  0.00    +0.000 A 
ATOM      3  C   UNL     1       6.951   4.447  14.944  0.00  0.00    +0.000 A 
ATOM      4  C   UNL     1       5.951   3.712  15.572  0.00  0.00    +0.000 A 
ATOM      5  C   UNL     1       5.170   4.310  16.570  0.00  0.00    +0.000 A 
ATOM      6  C   UNL     1       5.377   5.651  16.930  0.00  0.00    +0.000 A 
ATOM      7  C   UNL     1       4.366   6.271  17.816  0.00  0.00    +0.000 C 
ATOM      8  O   UNL     1       4.139   7.475  17.814  0.00  0.00    +0.000 OA
ATOM      9  C   UNL     1       3.573   5.414  18.707  0.00  0.00    +0.000 A 
ATOM     10  C   UNL     1       2.929   5.974  19.819  0.00  0.00    +0.000 A 
ATOM     11  C   UNL     1       2.152   5.172  20.655  0.00  0.00    +0.000 A 
ATOM     12  C   UNL     1       1.998   3.807  20.362  0.00  0.00    +0.000 A 
ATOM     13  C   UNL     1       2.656   3.250  19.254  0.00  0.00    +0.000 A 
ATOM     14  C   UNL     1       3.447   4.057  18.431  0.00  0.00    +0.000 A 
ATOM     15  C   UNL     1       4.148   3.491  17.263  0.00  0.00    +0.000 C 
ATOM     16  O   UNL     1       3.912   2.344  16.902  0.00  0.00    +0.000 OA
ENDROOT
BRANCH  12  17
ATOM     17  C   UNL     1       1.192   2.906  21.227  0.00  0.00    +0.000 C 
ATOM     18  O   UNL     1       1.532   2.615  22.360  0.00  0.00    +0.000 OA
BRANCH  17  19
ATOM     19  O   UNL     1       0.075   2.426  20.644  0.00  0.00    +0.000 OA
ATOM     20  H   UNL     1      -0.769   2.775  20.978  0.00  0.00    +0.000 HD
ENDBRANCH  17  19
ENDBRANCH  12  17
BRANCH   1  21
ATOM     21  O   UNL     1       6.897   7.615  16.688  0.00  0.00    +0.000 OA
BRANCH  21  23
ATOM     22  C   UNL     1       8.194   9.208  17.953  0.00  0.00    +0.000 C 
ATOM     23  C   UNL     1       7.819   7.749  17.774  0.00  0.00    +0.000 C 
ENDBRANCH  21  23
ENDBRANCH   1  21
TORSDOF 4
ENDMDL
MODEL 4
REMARK VINA RESULT:      -7.1      2.368      3.597
REMARK  Name = 
REMARK  5 active torsions:
REMARK  status: ('A' for Active; 'I' for Inactive)
REMARK    1  A    between atoms: C_1  and  C_2
REMARK    2  A    between atoms: C_2  and  O_3
REMARK    3  A    between atoms: O_3  and  C_4
REMARK    4  A    between atoms: C_15  and  C_16
REMARK    5  A    between atoms: C_16  and  O_18
REMARK                            x       y       z     vdW  Elec       q    Type
REMARK                         _______ _______ _______ _____ _____    ______ ____
ROOT
ATOM      1  C   UNL     1       1.556   4.807  20.143  0.00  0.00    +0.000 A 
ATOM      2  C   UNL     1       1.141   5.872  20.958  0.00  0.00    +0.000 A 
ATOM      3  C   UNL     1       1.530   7.184  20.686  0.00  0.00    +0.000 A 
ATOM      4  C   UNL     1       2.369   7.443  19.608  0.00  0.00    +0.000 A 
ATOM      5  C   UNL     1       2.768   6.395  18.767  0.00  0.00    +0.000 A 
ATOM      6  C   UNL     1       2.311   5.087  18.993  0.00  0.00    +0.000 A 
ATOM      7  C   UNL     1       2.584   4.089  17.934  0.00  0.00    +0.000 C 
ATOM      8  O   UNL     1       1.872   3.109  17.754  0.00  0.00    +0.000 OA
ATOM      9  C   UNL     1       3.728   4.294  17.035  0.00  0.00    +0.000 A 
ATOM     10  C   UNL     1       4.252   3.209  16.319  0.00  0.00    +0.000 A 
ATOM     11  C   UNL     1       5.320   3.400  15.443  0.00  0.00    +0.000 A 
ATOM     12  C   UNL     1       5.850   4.689  15.263  0.00  0.00    +0.000 A 
ATOM     13  C   UNL     1       5.328   5.768  15.992  0.00  0.00    +0.000 A 
ATOM     14  C   UNL     1       4.268   5.566  16.882  0.00  0.00    +0.000 A 
ATOM     15  C   UNL     1       3.706   6.687  17.659  0.00  0.00    +0.000 C 
ATOM     16  O   UNL     1       4.048   7.837  17.411  0.00  0.00    +0.000 OA
ENDROOT
BRANCH  12  17
ATOM     17  C   UNL     1       6.996   4.945  14.351  0.00  0.00    +0.000 C 
ATOM     18  O   UNL     1       7.925   5.670  14.661  0.00  0.00    +0.000 OA
BRANCH  17  19
ATOM     19  O   UNL     1       6.905   4.329  13.155  0.00  0.00    +0.000 OA
ATOM     20  H   UNL     1       6.965   4.901  12.371  0.00  0.00    +0.000 HD
ENDBRANCH  17  19
ENDBRANCH  12  17
BRANCH   1  21
ATOM     21  O   UNL     1       1.130   3.590  20.602  0.00  0.00    +0.000 OA
BRANCH  21  23
ATOM     22  C   UNL     1       3.145   2.415  21.220  0.00  0.00    +0.000 C 
ATOM     23  C   UNL     1       1.834   3.008  21.703  0.00  0.00    +0.000 C 
ENDBRANCH  21  23
ENDBRANCH   1  21
TORSDOF 4
ENDMDL
MODEL 5
REMARK VINA RESULT:      -7.1      2.652      6.662
REMARK  Name = 
REMARK  5 active torsions:
REMARK  status: ('A' for Active; 'I' for Inactive)
REMARK    1  A    between atoms: C_1  and  C_2
REMARK    2  A    between atoms: C_2  and  O_3
REMARK    3  A    between atoms: O_3  and  C_4
REMARK    4  A    between atoms: C_15  and  C_16
REMARK    5  A    between atoms: C_16  and  O_18
REMARK                            x       y       z     vdW  Elec       q    Type
REMARK                         _______ _______ _______ _____ _____    ______ ____
ROOT
ATOM      1  C   UNL     1       2.282   5.641  20.012  0.00  0.00    +0.000 A 
ATOM      2  C   UNL     1       3.127   4.901  19.169  0.00  0.00    +0.000 A 
ATOM      3  C   UNL     1       3.681   5.469  18.022  0.00  0.00    +0.000 A 
ATOM      4  C   UNL     1       3.369   6.781  17.685  0.00  0.00    +0.000 A 
ATOM      5  C   UNL     1       2.551   7.543  18.531  0.00  0.00    +0.000 A 
ATOM      6  C   UNL     1       2.059   6.997  19.727  0.00  0.00    +0.000 A 
ATOM      7  C   UNL     1       1.405   7.931  20.671  0.00  0.00    +0.000 C 
ATOM      8  O   UNL     1       1.378   7.734  21.880  0.00  0.00    +0.000 OA
ATOM      9  C   UNL     1       0.796   9.164  20.152  0.00  0.00    +0.000 A 
ATOM     10  C   UNL     1      -0.161   9.842  20.919  0.00  0.00    +0.000 A 
ATOM     11  C   UNL     1      -0.724  11.027  20.445  0.00  0.00    +0.000 A 
ATOM     12  C   UNL     1      -0.308  11.550  19.209  0.00  0.00    +0.000 A 
ATOM     13  C   UNL     1       0.642  10.858  18.442  0.00  0.00    +0.000 A 
ATOM     14  C   UNL     1       1.189   9.662  18.915  0.00  0.00    +0.000 A 
ATOM     15  C   UNL     1       2.188   8.920  18.122  0.00  0.00    +0.000 C 
ATOM     16  O   UNL     1       2.675   9.427  17.120  0.00  0.00    +0.000 OA
ENDROOT
BRANCH  12  17
ATOM     17  C   UNL     1      -0.885  12.802  18.653  0.00  0.00    +0.000 C 
ATOM     18  O   UNL     1      -0.980  13.823  19.311  0.00  0.00    +0.000 OA
BRANCH  17  19
ATOM     19  O   UNL     1      -1.310  12.701  17.378  0.00  0.00    +0.000 OA
ATOM     20  H   UNL     1      -0.714  12.242  16.761  0.00  0.00    +0.000 HD
ENDBRANCH  17  19
ENDBRANCH  12  17
BRANCH   1  21
ATOM     21  O   UNL     1       1.785   4.899  21.049  0.00  0.00    +0.000 OA
BRANCH  21  23
ATOM     22  C   UNL     1       1.696   2.591  21.746  0.00  0.00    +0.000 C 
ATOM     23  C   UNL     1       1.214   3.623  20.744  0.00  0.00    +0.000 C 
ENDBRANCH  21  23
ENDBRANCH   1  21
TORSDOF 4
ENDMDL
MODEL 6
REMARK VINA RESULT:      -7.0      2.836      5.481
REMARK  Name = 
REMARK  5 active torsions:
REMARK  status: ('A' for Active; 'I' for Inactive)
REMARK    1  A    between atoms: C_1  and  C_2
REMARK    2  A    between atoms: C_2  and  O_3
REMARK    3  A    between atoms: O_3  and  C_4
REMARK    4  A    between atoms: C_15  and  C_16
REMARK    5  A    between atoms: C_16  and  O_18
REMARK                            x       y       z     vdW  Elec       q    Type
REMARK                         _______ _______ _______ _____ _____    ______ ____
ROOT
ATOM      1  C   UNL     1      -1.893  12.077  20.709  0.00  0.00    +0.000 A 
ATOM      2  C   UNL     1      -2.441  12.364  21.969  0.00  0.00    +0.000 A 
ATOM      3  C   UNL     1      -1.970  11.736  23.122  0.00  0.00    +0.000 A 
ATOM      4  C   UNL     1      -0.962  10.783  23.023  0.00  0.00    +0.000 A 
ATOM      5  C   UNL     1      -0.383  10.507  21.777  0.00  0.00    +0.000 A 
ATOM      6  C   UNL     1      -0.801  11.199  20.629  0.00  0.00    +0.000 A 
ATOM      7  C   UNL     1       0.014  11.021  19.406  0.00  0.00    +0.000 C 
ATOM      8  O   UNL     1       0.083  11.875  18.530  0.00  0.00    +0.000 OA
ATOM      9  C   UNL     1       0.805   9.793  19.244  0.00  0.00    +0.000 A 
ATOM     10  C   UNL     1       1.240   9.409  17.969  0.00  0.00    +0.000 A 
ATOM     11  C   UNL     1       2.014   8.260  17.810  0.00  0.00    +0.000 A 
ATOM     12  C   UNL     1       2.375   7.504  18.938  0.00  0.00    +0.000 A 
ATOM     13  C   UNL     1       1.925   7.887  20.211  0.00  0.00    +0.000 A 
ATOM     14  C   UNL     1       1.135   9.031  20.359  0.00  0.00    +0.000 A 
ATOM     15  C   UNL     1       0.650   9.450  21.689  0.00  0.00    +0.000 C 
ATOM     16  O   UNL     1       1.072   8.898  22.697  0.00  0.00    +0.000 OA
ENDROOT
BRANCH  12  17
ATOM     17  C   UNL     1       3.187   6.264  18.824  0.00  0.00    +0.000 C 
ATOM     18  O   UNL     1       3.523   5.803  17.747  0.00  0.00    +0.000 OA
BRANCH  17  19
ATOM     19  O   UNL     1       3.497   5.690  20.004  0.00  0.00    +0.000 OA
ATOM     20  H   UNL     1       3.067   4.838  20.193  0.00  0.00    +0.000 HD
ENDBRANCH  17  19
ENDBRANCH  12  17
BRANCH   1  21
ATOM     21  O   UNL     1      -2.525  12.740  19.692  0.00  0.00    +0.000 OA
BRANCH  21  23
ATOM     22  C   UNL     1      -3.548  11.276  18.070  0.00  0.00    +0.000 C 
ATOM     23  C   UNL     1      -3.777  12.223  19.234  0.00  0.00    +0.000 C 
ENDBRANCH  21  23
ENDBRANCH   1  21
TORSDOF 4
ENDMDL
MODEL 7
REMARK VINA RESULT:      -6.9      2.517      3.794
REMARK  Name = 
REMARK  5 active torsions:
REMARK  status: ('A' for Active; 'I' for Inactive)
REMARK    1  A    between atoms: C_1  and  C_2
REMARK    2  A    between atoms: C_2  and  O_3
REMARK    3  A    between atoms: O_3  and  C_4
REMARK    4  A    between atoms: C_15  and  C_16
REMARK    5  A    between atoms: C_16  and  O_18
REMARK                            x       y       z     vdW  Elec       q    Type
REMARK                         _______ _______ _______ _____ _____    ______ ____
ROOT
ATOM      1  C   UNL     1       2.752   4.845  19.946  0.00  0.00    +0.000 A 
ATOM      2  C   UNL     1       2.111   5.919  20.584  0.00  0.00    +0.000 A 
ATOM      3  C   UNL     1       2.084   7.190  20.010  0.00  0.00    +0.000 A 
ATOM      4  C   UNL     1       2.731   7.411  18.799  0.00  0.00    +0.000 A 
ATOM      5  C   UNL     1       3.350   6.344  18.135  0.00  0.00    +0.000 A 
ATOM      6  C   UNL     1       3.307   5.048  18.673  0.00  0.00    +0.000 A 
ATOM      7  C   UNL     1       3.775   3.945  17.803  0.00  0.00    +0.000 C 
ATOM      8  O   UNL     1       3.364   2.797  17.917  0.00  0.00    +0.000 OA
ATOM      9  C   UNL     1       4.742   4.237  16.735  0.00  0.00    +0.000 A 
ATOM     10  C   UNL     1       5.501   3.196  16.182  0.00  0.00    +0.000 A 
ATOM     11  C   UNL     1       6.401   3.460  15.149  0.00  0.00    +0.000 A 
ATOM     12  C   UNL     1       6.522   4.768  14.650  0.00  0.00    +0.000 A 
ATOM     13  C   UNL     1       5.768   5.806  15.217  0.00  0.00    +0.000 A 
ATOM     14  C   UNL     1       4.881   5.537  16.264  0.00  0.00    +0.000 A 
ATOM     15  C   UNL     1       4.080   6.615  16.874  0.00  0.00    +0.000 C 
ATOM     16  O   UNL     1       4.057   7.727  16.362  0.00  0.00    +0.000 OA
ENDROOT
BRANCH  12  17
ATOM     17  C   UNL     1       7.475   5.105  13.560  0.00  0.00    +0.000 C 
ATOM     18  O   UNL     1       8.414   5.863  13.727  0.00  0.00    +0.000 OA
BRANCH  17  19
ATOM     19  O   UNL     1       7.197   4.521  12.377  0.00  0.00    +0.000 OA
ATOM     20  H   UNL     1       7.439   5.025  11.581  0.00  0.00    +0.000 HD
ENDBRANCH  17  19
ENDBRANCH  12  17
BRANCH   1  21
ATOM     21  O   UNL     1       2.730   3.696  20.689  0.00  0.00    +0.000 OA
BRANCH  21  23
ATOM     22  C   UNL     1       0.693   2.779  19.777  0.00  0.00    +0.000 C 
ATOM     23  C   UNL     1       1.454   3.150  21.036  0.00  0.00    +0.000 C 
ENDBRANCH  21  23
ENDBRANCH   1  21
TORSDOF 4
ENDMDL
MODEL 8
REMARK VINA RESULT:      -6.9      2.272      6.221
REMARK  Name = 
REMARK  5 active torsions:
REMARK  status: ('A' for Active; 'I' for Inactive)
REMARK    1  A    between atoms: C_1  and  C_2
REMARK    2  A    between atoms: C_2  and  O_3
REMARK    3  A    between atoms: O_3  and  C_4
REMARK    4  A    between atoms: C_15  and  C_16
REMARK    5  A    between atoms: C_16  and  O_18
REMARK                            x       y       z     vdW  Elec       q    Type
REMARK                         _______ _______ _______ _____ _____    ______ ____
ROOT
ATOM      1  C   UNL     1       3.348   3.638  18.742  0.00  0.00    +0.000 A 
ATOM      2  C   UNL     1       4.116   3.132  17.681  0.00  0.00    +0.000 A 
ATOM      3  C   UNL     1       4.622   3.972  16.690  0.00  0.00    +0.000 A 
ATOM      4  C   UNL     1       4.337   5.332  16.729  0.00  0.00    +0.000 A 
ATOM      5  C   UNL     1       3.597   5.859  17.797  0.00  0.00    +0.000 A 
ATOM      6  C   UNL     1       3.157   5.026  18.838  0.00  0.00    +0.000 A 
ATOM      7  C   UNL     1       2.592   5.690  20.034  0.00  0.00    +0.000 C 
ATOM      8  O   UNL     1       2.628   5.181  21.148  0.00  0.00    +0.000 OA
ATOM      9  C   UNL     1       1.998   7.026  19.897  0.00  0.00    +0.000 A 
ATOM     10  C   UNL     1       1.111   7.496  20.876  0.00  0.00    +0.000 A 
ATOM     11  C   UNL     1       0.563   8.774  20.768  0.00  0.00    +0.000 A 
ATOM     12  C   UNL     1       0.925   9.597  19.688  0.00  0.00    +0.000 A 
ATOM     13  C   UNL     1       1.804   9.115  18.705  0.00  0.00    +0.000 A 
ATOM     14  C   UNL     1       2.335   7.826  18.812  0.00  0.00    +0.000 A 
ATOM     15  C   UNL     1       3.260   7.301  17.789  0.00  0.00    +0.000 C 
ATOM     16  O   UNL     1       3.705   8.045  16.924  0.00  0.00    +0.000 OA
ENDROOT
BRANCH  12  17
ATOM     17  C   UNL     1       0.361  10.961  19.519  0.00  0.00    +0.000 C 
ATOM     18  O   UNL     1       0.049  11.659  20.468  0.00  0.00    +0.000 OA
BRANCH  17  19
ATOM     19  O   UNL     1       0.206  11.345  18.235  0.00  0.00    +0.000 OA
ATOM     20  H   UNL     1      -0.165  12.233  18.094  0.00  0.00    +0.000 HD
ENDBRANCH  17  19
ENDBRANCH  12  17
BRANCH   1  21
ATOM     21  O   UNL     1       2.886   2.658  19.578  0.00  0.00    +0.000 OA
BRANCH  21  23
ATOM     22  C   UNL     1       0.578   2.580  18.880  0.00  0.00    +0.000 C 
ATOM     23  C   UNL     1       1.858   1.793  19.089  0.00  0.00    +0.000 C 
ENDBRANCH  21  23
ENDBRANCH   1  21
TORSDOF 4
ENDMDL
MODEL 9
REMARK VINA RESULT:      -6.9      1.650      7.023
REMARK  Name = 
REMARK  5 active torsions:
REMARK  status: ('A' for Active; 'I' for Inactive)
REMARK    1  A    between atoms: C_1  and  C_2
REMARK    2  A    between atoms: C_2  and  O_3
REMARK    3  A    between atoms: O_3  and  C_4
REMARK    4  A    between atoms: C_15  and  C_16
REMARK    5  A    between atoms: C_16  and  O_18
REMARK                            x       y       z     vdW  Elec       q    Type
REMARK                         _______ _______ _______ _____ _____    ______ ____
ROOT
ATOM      1  C   UNL     1       4.473   5.852  17.481  0.00  0.00    +0.000 A 
ATOM      2  C   UNL     1       4.895   4.518  17.597  0.00  0.00    +0.000 A 
ATOM      3  C   UNL     1       4.356   3.672  18.566  0.00  0.00    +0.000 A 
ATOM      4  C   UNL     1       3.408   4.162  19.457  0.00  0.00    +0.000 A 
ATOM      5  C   UNL     1       2.954   5.482  19.335  0.00  0.00    +0.000 A 
ATOM      6  C   UNL     1       3.437   6.310  18.309  0.00  0.00    +0.000 A 
ATOM      7  C   UNL     1       2.741   7.601  18.106  0.00  0.00    +0.000 C 
ATOM      8  O   UNL     1       2.708   8.167  17.021  0.00  0.00    +0.000 OA
ATOM      9  C   UNL     1       2.028   8.215  19.235  0.00  0.00    +0.000 A 
ATOM     10  C   UNL     1       1.725   9.583  19.204  0.00  0.00    +0.000 A 
ATOM     11  C   UNL     1       1.024  10.168  20.259  0.00  0.00    +0.000 A 
ATOM     12  C   UNL     1       0.603   9.374  21.339  0.00  0.00    +0.000 A 
ATOM     13  C   UNL     1       0.922   8.008  21.369  0.00  0.00    +0.000 A 
ATOM     14  C   UNL     1       1.639   7.432  20.316  0.00  0.00    +0.000 A 
ATOM     15  C   UNL     1       1.985   5.998  20.330  0.00  0.00    +0.000 C 
ATOM     16  O   UNL     1       1.504   5.259  21.180  0.00  0.00    +0.000 OA
ENDROOT
BRANCH  12  17
ATOM     17  C   UNL     1      -0.135   9.950  22.494  0.00  0.00    +0.000 C 
ATOM     18  O   UNL     1      -1.122  10.650  22.352  0.00  0.00    +0.000 OA
BRANCH  17  19
ATOM     19  O   UNL     1       0.393   9.650  23.698  0.00  0.00    +0.000 OA
ATOM     20  H   UNL     1       0.331   8.721  23.976  0.00  0.00    +0.000 HD
ENDBRANCH  17  19
ENDBRANCH  12  17
BRANCH   1  21
ATOM     21  O   UNL     1       5.158   6.544  16.519  0.00  0.00    +0.000 OA
BRANCH  21  23
ATOM     22  C   UNL     1       7.288   7.287  17.375  0.00  0.00    +0.000 C 
ATOM     23  C   UNL     1       6.572   6.341  16.429  0.00  0.00    +0.000 C 
ENDBRANCH  21  23
ENDBRANCH   1  21
TORSDOF 4
ENDMDL
