MODEL 1
REMARK VINA RESULT:      -8.2      0.000      0.000
REMARK  Name = 
REMARK  6 active torsions:
REMARK  status: ('A' for Active; 'I' for Inactive)
REMARK    1  A    between atoms: C_1  and  C_2
REMARK    2  A    between atoms: C_5  and  O_6
REMARK    3  A    between atoms: C_15  and  C_16
REMARK    4  A    between atoms: C_17  and  C_18
REMARK    5  A    between atoms: C_18  and  C_20
REMARK    6  A    between atoms: C_20  and  O_21
REMARK                            x       y       z     vdW  Elec       q    Type
REMARK                         _______ _______ _______ _____ _____    ______ ____
ROOT
ATOM      1  C   UNL     1       1.113   4.828  18.016  0.00  0.00    +0.000 C 
ATOM      2  C   UNL     1       2.277   4.337  18.915  0.00  0.00    +0.000 C 
ATOM      3  C   UNL     1       1.993   4.903  20.352  0.00  0.00    +0.000 C 
ATOM      4  C   UNL     1       0.895   4.158  21.128  0.00  0.00    +0.000 C 
ATOM      5  C   UNL     1       1.101   2.645  21.138  0.00  0.00    +0.000 C 
ATOM      6  C   UNL     1       1.209   2.115  19.710  0.00  0.00    +0.000 C 
ATOM      7  C   UNL     1       2.385   2.794  19.013  0.00  0.00    +0.000 C 
ATOM      8  C   UNL     1       2.746   2.154  17.682  0.00  0.00    +0.000 C 
ATOM      9  C   UNL     1       4.214   2.446  17.447  0.00  0.00    +0.000 C 
ATOM     10  C   UNL     1       4.595   3.935  17.543  0.00  0.00    +0.000 C 
ATOM     11  C   UNL     1       3.672   4.877  18.412  0.00  0.00    +0.000 C 
ATOM     12  C   UNL     1       3.626   6.311  17.851  0.00  0.00    +0.000 C 
ATOM     13  C   UNL     1       5.042   6.740  17.489  0.00  0.00    +0.000 C 
ATOM     14  C   UNL     1       5.550   5.972  16.257  0.00  0.00    +0.000 C 
ATOM     15  C   UNL     1       5.048   6.765  15.011  0.00  0.00    +0.000 C 
ATOM     16  C   UNL     1       7.097   5.785  16.186  0.00  0.00    +0.000 C 
ATOM     17  C   UNL     1       7.231   4.687  15.119  0.00  0.00    +0.000 C 
ATOM     18  C   UNL     1       6.115   3.704  15.464  0.00  0.00    +0.000 C 
ATOM     19  C   UNL     1       4.991   4.519  16.162  0.00  0.00    +0.000 C 
ENDROOT
BRANCH   5  20
ATOM     20  O   UNL     1       2.259   2.300  21.905  0.00  0.00    +0.000 OA
ATOM     21  H   UNL     1       2.925   3.011  21.828  0.00  0.00    +0.000 HD
ENDBRANCH   5  20
BRANCH  16  22
ATOM     22  C   UNL     1       7.830   5.313  17.474  0.00  0.00    +0.000 C 
ATOM     23  O   UNL     1       8.372   4.209  17.573  0.00  0.00    +0.000 OA
BRANCH  22  24
ATOM     24  C   UNL     1       7.894   6.270  18.654  0.00  0.00    +0.000 C 
BRANCH  24  25
ATOM     25  O   UNL     1       8.051   5.553  19.875  0.00  0.00    +0.000 OA
ATOM     26  H   UNL     1       8.066   6.230  20.583  0.00  0.00    +0.000 HD
ENDBRANCH  24  25
ENDBRANCH  22  24
ENDBRANCH  16  22
TORSDOF 4
ENDMDL
MODEL 2
REMARK VINA RESULT:      -6.5      9.551     12.668
REMARK  Name = 
REMARK  6 active torsions:
REMARK  status: ('A' for Active; 'I' for Inactive)
REMARK    1  A    between atoms: C_1  and  C_2
REMARK    2  A    between atoms: C_5  and  O_6
REMARK    3  A    between atoms: C_15  and  C_16
REMARK    4  A    between atoms: C_17  and  C_18
REMARK    5  A    between atoms: C_18  and  C_20
REMARK    6  A    between atoms: C_20  and  O_21
REMARK                            x       y       z     vdW  Elec       q    Type
REMARK                         _______ _______ _______ _____ _____    ______ ____
ROOT
ATOM      1  C   UNL     1      -1.123  12.616  17.961  0.00  0.00    +0.000 C 
ATOM      2  C   UNL     1      -1.570  11.832  19.222  0.00  0.00    +0.000 C 
ATOM      3  C   UNL     1      -0.806  10.462  19.183  0.00  0.00    +0.000 C 
ATOM      4  C   UNL     1       0.675  10.543  19.587  0.00  0.00    +0.000 C 
ATOM      5  C   UNL     1       0.889  11.281  20.907  0.00  0.00    +0.000 C 
ATOM      6  C   UNL     1       0.268  12.675  20.842  0.00  0.00    +0.000 C 
ATOM      7  C   UNL     1      -1.225  12.543  20.556  0.00  0.00    +0.000 C 
ATOM      8  C   UNL     1      -1.988  13.847  20.729  0.00  0.00    +0.000 C 
ATOM      9  C   UNL     1      -3.416  13.470  21.063  0.00  0.00    +0.000 C 
ATOM     10  C   UNL     1      -4.073  12.496  20.067  0.00  0.00    +0.000 C 
ATOM     11  C   UNL     1      -3.124  11.559  19.221  0.00  0.00    +0.000 C 
ATOM     12  C   UNL     1      -3.709  11.260  17.827  0.00  0.00    +0.000 C 
ATOM     13  C   UNL     1      -5.187  10.926  17.979  0.00  0.00    +0.000 C 
ATOM     14  C   UNL     1      -5.996  12.177  18.360  0.00  0.00    +0.000 C 
ATOM     15  C   UNL     1      -6.349  12.893  17.019  0.00  0.00    +0.000 C 
ATOM     16  C   UNL     1      -7.294  11.901  19.178  0.00  0.00    +0.000 C 
ATOM     17  C   UNL     1      -7.626  13.301  19.722  0.00  0.00    +0.000 C 
ATOM     18  C   UNL     1      -6.269  13.858  20.146  0.00  0.00    +0.000 C 
ATOM     19  C   UNL     1      -5.198  13.181  19.248  0.00  0.00    +0.000 C 
ENDROOT
BRANCH   5  20
ATOM     20  O   UNL     1       0.349  10.527  21.997  0.00  0.00    +0.000 OA
ATOM     21  H   UNL     1       0.752   9.636  22.009  0.00  0.00    +0.000 HD
ENDBRANCH   5  20
BRANCH  16  22
ATOM     22  C   UNL     1      -7.199  10.917  20.379  0.00  0.00    +0.000 C 
ATOM     23  O   UNL     1      -7.119  11.292  21.551  0.00  0.00    +0.000 OA
BRANCH  22  24
ATOM     24  C   UNL     1      -7.227   9.425  20.086  0.00  0.00    +0.000 C 
BRANCH  24  25
ATOM     25  O   UNL     1      -7.608   8.692  21.247  0.00  0.00    +0.000 OA
ATOM     26  H   UNL     1      -7.187   9.151  22.003  0.00  0.00    +0.000 HD
ENDBRANCH  24  25
ENDBRANCH  22  24
ENDBRANCH  16  22
TORSDOF 4
ENDMDL
MODEL 3
REMARK VINA RESULT:      -6.3      2.043      6.266
REMARK  Name = 
REMARK  6 active torsions:
REMARK  status: ('A' for Active; 'I' for Inactive)
REMARK    1  A    between atoms: C_1  and  C_2
REMARK    2  A    between atoms: C_5  and  O_6
REMARK    3  A    between atoms: C_15  and  C_16
REMARK    4  A    between atoms: C_17  and  C_18
REMARK    5  A    between atoms: C_18  and  C_20
REMARK    6  A    between atoms: C_20  and  O_21
REMARK                            x       y       z     vdW  Elec       q    Type
REMARK                         _______ _______ _______ _____ _____    ______ ____
ROOT
ATOM      1  C   UNL     1       5.546   7.079  17.262  0.00  0.00    +0.000 C 
ATOM      2  C   UNL     1       5.154   5.653  16.796  0.00  0.00    +0.000 C 
ATOM      3  C   UNL     1       4.897   5.750  15.250  0.00  0.00    +0.000 C 
ATOM      4  C   UNL     1       6.171   5.831  14.394  0.00  0.00    +0.000 C 
ATOM      5  C   UNL     1       7.187   4.745  14.739  0.00  0.00    +0.000 C 
ATOM      6  C   UNL     1       7.530   4.793  16.226  0.00  0.00    +0.000 C 
ATOM      7  C   UNL     1       6.255   4.590  17.039  0.00  0.00    +0.000 C 
ATOM      8  C   UNL     1       6.516   4.358  18.519  0.00  0.00    +0.000 C 
ATOM      9  C   UNL     1       5.342   3.559  19.045  0.00  0.00    +0.000 C 
ATOM     10  C   UNL     1       3.962   4.176  18.749  0.00  0.00    +0.000 C 
ATOM     11  C   UNL     1       3.840   5.145  17.507  0.00  0.00    +0.000 C 
ATOM     12  C   UNL     1       2.786   6.244  17.740  0.00  0.00    +0.000 C 
ATOM     13  C   UNL     1       1.542   5.607  18.345  0.00  0.00    +0.000 C 
ATOM     14  C   UNL     1       1.804   5.159  19.793  0.00  0.00    +0.000 C 
ATOM     15  C   UNL     1       1.538   6.407  20.691  0.00  0.00    +0.000 C 
ATOM     16  C   UNL     1       0.940   3.955  20.278  0.00  0.00    +0.000 C 
ATOM     17  C   UNL     1       1.696   3.518  21.545  0.00  0.00    +0.000 C 
ATOM     18  C   UNL     1       3.165   3.602  21.140  0.00  0.00    +0.000 C 
ATOM     19  C   UNL     1       3.272   4.691  20.038  0.00  0.00    +0.000 C 
ENDROOT
BRANCH   5  20
ATOM     20  O   UNL     1       6.689   3.456  14.366  0.00  0.00    +0.000 OA
ATOM     21  H   UNL     1       6.088   3.546  13.601  0.00  0.00    +0.000 HD
ENDBRANCH   5  20
BRANCH  16  22
ATOM     22  C   UNL     1       0.812   2.726  19.334  0.00  0.00    +0.000 C 
ATOM     23  O   UNL     1      -0.031   2.653  18.436  0.00  0.00    +0.000 OA
BRANCH  22  24
ATOM     24  C   UNL     1       1.788   1.575  19.520  0.00  0.00    +0.000 C 
BRANCH  24  25
ATOM     25  O   UNL     1       2.475   1.296  18.304  0.00  0.00    +0.000 OA
ATOM     26  H   UNL     1       3.069   0.542  18.498  0.00  0.00    +0.000 HD
ENDBRANCH  24  25
ENDBRANCH  22  24
ENDBRANCH  16  22
TORSDOF 4
ENDMDL
MODEL 4
REMARK VINA RESULT:      -6.2      9.441     11.196
REMARK  Name = 
REMARK  6 active torsions:
REMARK  status: ('A' for Active; 'I' for Inactive)
REMARK    1  A    between atoms: C_1  and  C_2
REMARK    2  A    between atoms: C_5  and  O_6
REMARK    3  A    between atoms: C_15  and  C_16
REMARK    4  A    between atoms: C_17  and  C_18
REMARK    5  A    between atoms: C_18  and  C_20
REMARK    6  A    between atoms: C_20  and  O_21
REMARK                            x       y       z     vdW  Elec       q    Type
REMARK                         _______ _______ _______ _____ _____    ______ ____
ROOT
ATOM      1  C   UNL     1       9.017  11.978  24.379  0.00  0.00    +0.000 C 
ATOM      2  C   UNL     1       8.029  12.729  23.449  0.00  0.00    +0.000 C 
ATOM      3  C   UNL     1       6.676  11.934  23.511  0.00  0.00    +0.000 C 
ATOM      4  C   UNL     1       5.859  12.160  24.794  0.00  0.00    +0.000 C 
ATOM      5  C   UNL     1       5.670  13.639  25.122  0.00  0.00    +0.000 C 
ATOM      6  C   UNL     1       7.025  14.339  25.213  0.00  0.00    +0.000 C 
ATOM      7  C   UNL     1       7.752  14.192  23.880  0.00  0.00    +0.000 C 
ATOM      8  C   UNL     1       8.989  15.069  23.770  0.00  0.00    +0.000 C 
ATOM      9  C   UNL     1       9.205  15.329  22.294  0.00  0.00    +0.000 C 
ATOM     10  C   UNL     1       9.266  14.061  21.421  0.00  0.00    +0.000 C 
ATOM     11  C   UNL     1       8.541  12.763  21.958  0.00  0.00    +0.000 C 
ATOM     12  C   UNL     1       9.263  11.478  21.510  0.00  0.00    +0.000 C 
ATOM     13  C   UNL     1       9.621  11.607  20.036  0.00  0.00    +0.000 C 
ATOM     14  C   UNL     1      10.741  12.643  19.831  0.00  0.00    +0.000 C 
ATOM     15  C   UNL     1      12.085  11.879  20.038  0.00  0.00    +0.000 C 
ATOM     16  C   UNL     1      10.736  13.356  18.445  0.00  0.00    +0.000 C 
ATOM     17  C   UNL     1      11.667  14.552  18.704  0.00  0.00    +0.000 C 
ATOM     18  C   UNL     1      11.251  15.044  20.088  0.00  0.00    +0.000 C 
ATOM     19  C   UNL     1      10.690  13.816  20.858  0.00  0.00    +0.000 C 
ENDROOT
BRANCH   5  20
ATOM     20  O   UNL     1       4.830  14.266  24.149  0.00  0.00    +0.000 OA
ATOM     21  H   UNL     1       4.855  15.235  24.272  0.00  0.00    +0.000 HD
ENDBRANCH   5  20
BRANCH  16  22
ATOM     22  C   UNL     1       9.379  13.895  17.911  0.00  0.00    +0.000 C 
ATOM     23  O   UNL     1       9.110  15.098  17.848  0.00  0.00    +0.000 OA
BRANCH  22  24
ATOM     24  C   UNL     1       8.348  12.887  17.427  0.00  0.00    +0.000 C 
BRANCH  24  25
ATOM     25  O   UNL     1       7.095  13.523  17.190  0.00  0.00    +0.000 OA
ATOM     26  H   UNL     1       6.609  13.481  18.040  0.00  0.00    +0.000 HD
ENDBRANCH  24  25
ENDBRANCH  22  24
ENDBRANCH  16  22
TORSDOF 4
ENDMDL
MODEL 5
REMARK VINA RESULT:      -6.1      9.850     12.933
REMARK  Name = 
REMARK  6 active torsions:
REMARK  status: ('A' for Active; 'I' for Inactive)
REMARK    1  A    between atoms: C_1  and  C_2
REMARK    2  A    between atoms: C_5  and  O_6
REMARK    3  A    between atoms: C_15  and  C_16
REMARK    4  A    between atoms: C_17  and  C_18
REMARK    5  A    between atoms: C_18  and  C_20
REMARK    6  A    between atoms: C_20  and  O_21
REMARK                            x       y       z     vdW  Elec       q    Type
REMARK                         _______ _______ _______ _____ _____    ______ ____
ROOT
ATOM      1  C   UNL     1      -1.416  12.293  17.852  0.00  0.00    +0.000 C 
ATOM      2  C   UNL     1      -1.812  11.740  19.246  0.00  0.00    +0.000 C 
ATOM      3  C   UNL     1      -1.127  10.333  19.372  0.00  0.00    +0.000 C 
ATOM      4  C   UNL     1       0.381  10.379  19.665  0.00  0.00    +0.000 C 
ATOM      5  C   UNL     1       0.729  11.293  20.837  0.00  0.00    +0.000 C 
ATOM      6  C   UNL     1       0.180  12.698  20.596  0.00  0.00    +0.000 C 
ATOM      7  C   UNL     1      -1.334  12.621  20.429  0.00  0.00    +0.000 C 
ATOM      8  C   UNL     1      -2.011  13.982  20.445  0.00  0.00    +0.000 C 
ATOM      9  C   UNL     1      -3.430  13.753  20.923  0.00  0.00    +0.000 C 
ATOM     10  C   UNL     1      -4.208  12.684  20.134  0.00  0.00    +0.000 C 
ATOM     11  C   UNL     1      -3.375  11.570  19.385  0.00  0.00    +0.000 C 
ATOM     12  C   UNL     1      -4.074  11.101  18.095  0.00  0.00    +0.000 C 
ATOM     13  C   UNL     1      -5.553  10.890  18.390  0.00  0.00    +0.000 C 
ATOM     14  C   UNL     1      -6.264  12.234  18.622  0.00  0.00    +0.000 C 
ATOM     15  C   UNL     1      -6.674  12.760  17.212  0.00  0.00    +0.000 C 
ATOM     16  C   UNL     1      -7.512  12.169  19.554  0.00  0.00    +0.000 C 
ATOM     17  C   UNL     1      -7.728  13.653  19.893  0.00  0.00    +0.000 C 
ATOM     18  C   UNL     1      -6.317  14.180  20.139  0.00  0.00    +0.000 C 
ATOM     19  C   UNL     1      -5.351  13.307  19.291  0.00  0.00    +0.000 C 
ENDROOT
BRANCH   5  20
ATOM     20  O   UNL     1       0.230  10.749  22.063  0.00  0.00    +0.000 OA
ATOM     21  H   UNL     1      -0.712  10.989  22.168  0.00  0.00    +0.000 HD
ENDBRANCH   5  20
BRANCH  16  22
ATOM     22  C   UNL     1      -7.384  11.374  20.884  0.00  0.00    +0.000 C 
ATOM     23  O   UNL     1      -7.117  10.171  20.927  0.00  0.00    +0.000 OA
BRANCH  22  24
ATOM     24  C   UNL     1      -7.579  12.128  22.190  0.00  0.00    +0.000 C 
BRANCH  24  25
ATOM     25  O   UNL     1      -7.876  11.227  23.252  0.00  0.00    +0.000 OA
ATOM     26  H   UNL     1      -7.022  11.048  23.699  0.00  0.00    +0.000 HD
ENDBRANCH  24  25
ENDBRANCH  22  24
ENDBRANCH  16  22
TORSDOF 4
ENDMDL
MODEL 6
REMARK VINA RESULT:      -5.9      9.189     10.914
REMARK  Name = 
REMARK  6 active torsions:
REMARK  status: ('A' for Active; 'I' for Inactive)
REMARK    1  A    between atoms: C_1  and  C_2
REMARK    2  A    between atoms: C_5  and  O_6
REMARK    3  A    between atoms: C_15  and  C_16
REMARK    4  A    between atoms: C_17  and  C_18
REMARK    5  A    between atoms: C_18  and  C_20
REMARK    6  A    between atoms: C_20  and  O_21
REMARK                            x       y       z     vdW  Elec       q    Type
REMARK                         _______ _______ _______ _____ _____    ______ ____
ROOT
ATOM      1  C   UNL     1      -4.841  12.696  21.245  0.00  0.00    +0.000 C 
ATOM      2  C   UNL     1      -3.573  13.477  21.678  0.00  0.00    +0.000 C 
ATOM      3  C   UNL     1      -3.881  14.994  21.415  0.00  0.00    +0.000 C 
ATOM      4  C   UNL     1      -4.808  15.648  22.453  0.00  0.00    +0.000 C 
ATOM      5  C   UNL     1      -4.360  15.395  23.890  0.00  0.00    +0.000 C 
ATOM      6  C   UNL     1      -4.230  13.895  24.148  0.00  0.00    +0.000 C 
ATOM      7  C   UNL     1      -3.212  13.307  23.175  0.00  0.00    +0.000 C 
ATOM      8  C   UNL     1      -2.812  11.880  23.514  0.00  0.00    +0.000 C 
ATOM      9  C   UNL     1      -1.423  11.675  22.946  0.00  0.00    +0.000 C 
ATOM     10  C   UNL     1      -1.284  12.020  21.451  0.00  0.00    +0.000 C 
ATOM     11  C   UNL     1      -2.308  13.053  20.836  0.00  0.00    +0.000 C 
ATOM     12  C   UNL     1      -2.611  12.747  19.357  0.00  0.00    +0.000 C 
ATOM     13  C   UNL     1      -1.301  12.442  18.643  0.00  0.00    +0.000 C 
ATOM     14  C   UNL     1      -0.730  11.088  19.098  0.00  0.00    +0.000 C 
ATOM     15  C   UNL     1      -1.409  10.006  18.203  0.00  0.00    +0.000 C 
ATOM     16  C   UNL     1       0.822  10.962  19.009  0.00  0.00    +0.000 C 
ATOM     17  C   UNL     1       1.085   9.719  19.876  0.00  0.00    +0.000 C 
ATOM     18  C   UNL     1       0.160   9.908  21.075  0.00  0.00    +0.000 C 
ATOM     19  C   UNL     1      -1.049  10.753  20.587  0.00  0.00    +0.000 C 
ENDROOT
BRANCH   5  20
ATOM     20  O   UNL     1      -3.129  16.073  24.159  0.00  0.00    +0.000 OA
ATOM     21  H   UNL     1      -3.252  16.690  24.907  0.00  0.00    +0.000 HD
ENDBRANCH   5  20
BRANCH  16  22
ATOM     22  C   UNL     1       1.678  12.137  19.560  0.00  0.00    +0.000 C 
ATOM     23  O   UNL     1       1.827  12.353  20.765  0.00  0.00    +0.000 OA
BRANCH  22  24
ATOM     24  C   UNL     1       2.378  13.044  18.560  0.00  0.00    +0.000 C 
BRANCH  24  25
ATOM     25  O   UNL     1       2.583  12.367  17.324  0.00  0.00    +0.000 OA
ATOM     26  H   UNL     1       1.892  12.702  16.717  0.00  0.00    +0.000 HD
ENDBRANCH  24  25
ENDBRANCH  22  24
ENDBRANCH  16  22
TORSDOF 4
ENDMDL
MODEL 7
REMARK VINA RESULT:      -5.9      9.888     11.703
REMARK  Name = 
REMARK  6 active torsions:
REMARK  status: ('A' for Active; 'I' for Inactive)
REMARK    1  A    between atoms: C_1  and  C_2
REMARK    2  A    between atoms: C_5  and  O_6
REMARK    3  A    between atoms: C_15  and  C_16
REMARK    4  A    between atoms: C_17  and  C_18
REMARK    5  A    between atoms: C_18  and  C_20
REMARK    6  A    between atoms: C_20  and  O_21
REMARK                            x       y       z     vdW  Elec       q    Type
REMARK                         _______ _______ _______ _____ _____    ______ ____
ROOT
ATOM      1  C   UNL     1       8.840  12.085  24.155  0.00  0.00    +0.000 C 
ATOM      2  C   UNL     1       7.951  13.055  23.335  0.00  0.00    +0.000 C 
ATOM      3  C   UNL     1       6.530  12.391  23.257  0.00  0.00    +0.000 C 
ATOM      4  C   UNL     1       5.701  12.500  24.547  0.00  0.00    +0.000 C 
ATOM      5  C   UNL     1       5.639  13.924  25.092  0.00  0.00    +0.000 C 
ATOM      6  C   UNL     1       7.048  14.473  25.306  0.00  0.00    +0.000 C 
ATOM      7  C   UNL     1       7.797  14.457  23.976  0.00  0.00    +0.000 C 
ATOM      8  C   UNL     1       9.111  15.221  24.018  0.00  0.00    +0.000 C 
ATOM      9  C   UNL     1       9.391  15.676  22.601  0.00  0.00    +0.000 C 
ATOM     10  C   UNL     1       9.360  14.551  21.548  0.00  0.00    +0.000 C 
ATOM     11  C   UNL     1       8.506  13.263  21.873  0.00  0.00    +0.000 C 
ATOM     12  C   UNL     1       9.120  11.996  21.247  0.00  0.00    +0.000 C 
ATOM     13  C   UNL     1       9.529  12.308  19.814  0.00  0.00    +0.000 C 
ATOM     14  C   UNL     1      10.744  13.253  19.784  0.00  0.00    +0.000 C 
ATOM     15  C   UNL     1      12.006  12.343  19.892  0.00  0.00    +0.000 C 
ATOM     16  C   UNL     1      10.843  14.161  18.520  0.00  0.00    +0.000 C 
ATOM     17  C   UNL     1      11.871  15.212  18.970  0.00  0.00    +0.000 C 
ATOM     18  C   UNL     1      11.463  15.530  20.406  0.00  0.00    +0.000 C 
ATOM     19  C   UNL     1      10.771  14.260  20.974  0.00  0.00    +0.000 C 
ENDROOT
BRANCH   5  20
ATOM     20  O   UNL     1       4.886  14.766  24.213  0.00  0.00    +0.000 OA
ATOM     21  H   UNL     1       4.044  15.016  24.642  0.00  0.00    +0.000 HD
ENDBRANCH   5  20
BRANCH  16  22
ATOM     22  C   UNL     1       9.556  14.899  18.054  0.00  0.00    +0.000 C 
ATOM     23  O   UNL     1       8.422  14.436  18.205  0.00  0.00    +0.000 OA
BRANCH  22  24
ATOM     24  C   UNL     1       9.710  16.264  17.402  0.00  0.00    +0.000 C 
BRANCH  24  25
ATOM     25  O   UNL     1      10.363  16.149  16.142  0.00  0.00    +0.000 OA
ATOM     26  H   UNL     1      11.021  16.874  16.114  0.00  0.00    +0.000 HD
ENDBRANCH  24  25
ENDBRANCH  22  24
ENDBRANCH  16  22
TORSDOF 4
ENDMDL
MODEL 8
REMARK VINA RESULT:      -5.9      9.924     11.913
REMARK  Name = 
REMARK  6 active torsions:
REMARK  status: ('A' for Active; 'I' for Inactive)
REMARK    1  A    between atoms: C_1  and  C_2
REMARK    2  A    between atoms: C_5  and  O_6
REMARK    3  A    between atoms: C_15  and  C_16
REMARK    4  A    between atoms: C_17  and  C_18
REMARK    5  A    between atoms: C_18  and  C_20
REMARK    6  A    between atoms: C_20  and  O_21
REMARK                            x       y       z     vdW  Elec       q    Type
REMARK                         _______ _______ _______ _____ _____    ______ ____
ROOT
ATOM      1  C   UNL     1      -5.088  15.013  22.893  0.00  0.00    +0.000 C 
ATOM      2  C   UNL     1      -5.065  13.469  22.749  0.00  0.00    +0.000 C 
ATOM      3  C   UNL     1      -5.661  12.894  24.083  0.00  0.00    +0.000 C 
ATOM      4  C   UNL     1      -7.190  12.999  24.199  0.00  0.00    +0.000 C 
ATOM      5  C   UNL     1      -7.916  12.461  22.968  0.00  0.00    +0.000 C 
ATOM      6  C   UNL     1      -7.418  13.167  21.708  0.00  0.00    +0.000 C 
ATOM      7  C   UNL     1      -5.916  12.937  21.568  0.00  0.00    +0.000 C 
ATOM      8  C   UNL     1      -5.366  13.371  20.218  0.00  0.00    +0.000 C 
ATOM      9  C   UNL     1      -4.127  12.535  19.969  0.00  0.00    +0.000 C 
ATOM     10  C   UNL     1      -3.087  12.575  21.104  0.00  0.00    +0.000 C 
ATOM     11  C   UNL     1      -3.598  12.922  22.558  0.00  0.00    +0.000 C 
ATOM     12  C   UNL     1      -2.533  13.679  23.374  0.00  0.00    +0.000 C 
ATOM     13  C   UNL     1      -1.187  12.997  23.172  0.00  0.00    +0.000 C 
ATOM     14  C   UNL     1      -0.662  13.228  21.744  0.00  0.00    +0.000 C 
ATOM     15  C   UNL     1       0.092  14.593  21.772  0.00  0.00    +0.000 C 
ATOM     16  C   UNL     1       0.274  12.108  21.195  0.00  0.00    +0.000 C 
ATOM     17  C   UNL     1       0.284  12.419  19.689  0.00  0.00    +0.000 C 
ATOM     18  C   UNL     1      -1.172  12.755  19.376  0.00  0.00    +0.000 C 
ATOM     19  C   UNL     1      -1.798  13.325  20.679  0.00  0.00    +0.000 C 
ENDROOT
BRANCH   5  20
ATOM     20  O   UNL     1      -7.747  11.044  22.865  0.00  0.00    +0.000 OA
ATOM     21  H   UNL     1      -8.481  10.665  22.342  0.00  0.00    +0.000 HD
ENDBRANCH   5  20
BRANCH  16  22
ATOM     22  C   UNL     1      -0.171  10.631  21.389  0.00  0.00    +0.000 C 
ATOM     23  O   UNL     1      -0.788  10.238  22.382  0.00  0.00    +0.000 OA
BRANCH  22  24
ATOM     24  C   UNL     1       0.157   9.634  20.289  0.00  0.00    +0.000 C 
BRANCH  24  25
ATOM     25  O   UNL     1       1.082   8.656  20.755  0.00  0.00    +0.000 OA
ATOM     26  H   UNL     1       0.778   7.802  20.383  0.00  0.00    +0.000 HD
ENDBRANCH  24  25
ENDBRANCH  22  24
ENDBRANCH  16  22
TORSDOF 4
ENDMDL
MODEL 9
REMARK VINA RESULT:      -5.8      9.760     11.325
REMARK  Name = 
REMARK  6 active torsions:
REMARK  status: ('A' for Active; 'I' for Inactive)
REMARK    1  A    between atoms: C_1  and  C_2
REMARK    2  A    between atoms: C_5  and  O_6
REMARK    3  A    between atoms: C_15  and  C_16
REMARK    4  A    between atoms: C_17  and  C_18
REMARK    5  A    between atoms: C_18  and  C_20
REMARK    6  A    between atoms: C_20  and  O_21
REMARK                            x       y       z     vdW  Elec       q    Type
REMARK                         _______ _______ _______ _____ _____    ______ ____
ROOT
ATOM      1  C   UNL     1       6.233  14.195  21.988  0.00  0.00    +0.000 C 
ATOM      2  C   UNL     1       7.707  14.646  22.154  0.00  0.00    +0.000 C 
ATOM      3  C   UNL     1       7.661  16.163  22.557  0.00  0.00    +0.000 C 
ATOM      4  C   UNL     1       7.270  16.425  24.021  0.00  0.00    +0.000 C 
ATOM      5  C   UNL     1       8.085  15.594  25.009  0.00  0.00    +0.000 C 
ATOM      6  C   UNL     1       7.969  14.108  24.675  0.00  0.00    +0.000 C 
ATOM      7  C   UNL     1       8.478  13.875  23.256  0.00  0.00    +0.000 C 
ATOM      8  C   UNL     1       8.654  12.403  22.915  0.00  0.00    +0.000 C 
ATOM      9  C   UNL     1       9.715  12.333  21.837  0.00  0.00    +0.000 C 
ATOM     10  C   UNL     1       9.444  13.226  20.611  0.00  0.00    +0.000 C 
ATOM     11  C   UNL     1       8.521  14.492  20.812  0.00  0.00    +0.000 C 
ATOM     12  C   UNL     1       7.709  14.815  19.543  0.00  0.00    +0.000 C 
ATOM     13  C   UNL     1       8.630  14.717  18.335  0.00  0.00    +0.000 C 
ATOM     14  C   UNL     1       9.015  13.254  18.055  0.00  0.00    +0.000 C 
ATOM     15  C   UNL     1       7.875  12.664  17.169  0.00  0.00    +0.000 C 
ATOM     16  C   UNL     1      10.395  13.056  17.357  0.00  0.00    +0.000 C 
ATOM     17  C   UNL     1      10.650  11.556  17.586  0.00  0.00    +0.000 C 
ATOM     18  C   UNL     1      10.213  11.329  19.031  0.00  0.00    +0.000 C 
ATOM     19  C   UNL     1       9.120  12.386  19.348  0.00  0.00    +0.000 C 
ENDROOT
BRANCH   5  20
ATOM     20  O   UNL     1       9.452  16.017  25.012  0.00  0.00    +0.000 OA
ATOM     21  H   UNL     1      10.034  15.240  24.895  0.00  0.00    +0.000 HD
ENDBRANCH   5  20
BRANCH  16  22
ATOM     22  C   UNL     1      11.610  13.851  17.913  0.00  0.00    +0.000 C 
ATOM     23  O   UNL     1      12.332  13.431  18.821  0.00  0.00    +0.000 OA
BRANCH  22  24
ATOM     24  C   UNL     1      11.929  15.201  17.288  0.00  0.00    +0.000 C 
BRANCH  24  25
ATOM     25  O   UNL     1      11.854  16.237  18.262  0.00  0.00    +0.000 OA
ATOM     26  H   UNL     1      12.125  17.058  17.801  0.00  0.00    +0.000 HD
ENDBRANCH  24  25
ENDBRANCH  22  24
ENDBRANCH  16  22
TORSDOF 4
ENDMDL
