MODEL 1
REMARK VINA RESULT:      -7.8      0.000      0.000
REMARK  Name = 
REMARK  4 active torsions:
REMARK  status: ('A' for Active; 'I' for Inactive)
REMARK    1  A    between atoms: C_1  and  O_2
REMARK    2  A    between atoms: O_2  and  C_3
REMARK    3  A    between atoms: C_8  and  C_9
REMARK    4  A    between atoms: C_11  and  O_12
REMARK                            x       y       z     vdW  Elec       q    Type
REMARK                         _______ _______ _______ _____ _____    ______ ____
ROOT
ATOM      1  C   UNL     1       5.526   5.433  18.435  0.00  0.00    +0.000 A 
ATOM      2  C   UNL     1       5.873   6.417  17.531  0.00  0.00    +0.000 A 
ATOM      3  C   UNL     1       7.112   6.978  17.699  0.00  0.00    +0.000 A 
ATOM      4  N   UNL     1       7.977   6.616  18.647  0.00  0.00    +0.000 NA
ATOM      5  C   UNL     1       7.581   5.635  19.453  0.00  0.00    +0.000 A 
ATOM      6  N   UNL     1       8.460   5.239  20.441  0.00  0.00    +0.000 N 
ATOM      7  N   UNL     1       6.386   5.036  19.402  0.00  0.00    +0.000 NA
ATOM      8  H   UNL     1       9.111   5.991  20.625  0.00  0.00    +0.000 HD
ATOM      9  H   UNL     1       7.949   4.862  21.225  0.00  0.00    +0.000 HD
ENDROOT
BRANCH   1  15
ATOM     10  C   UNL     1       2.151   4.006  19.502  0.00  0.00    +0.000 A 
ATOM     11  C   UNL     1       1.763   3.322  18.352  0.00  0.00    +0.000 A 
ATOM     12  C   UNL     1       2.574   3.353  17.221  0.00  0.00    +0.000 A 
ATOM     13  C   UNL     1       3.777   4.055  17.247  0.00  0.00    +0.000 A 
ATOM     14  F   UNL     1       4.508   4.060  16.120  0.00  0.00    +0.000 F 
ATOM     15  C   UNL     1       4.222   4.736  18.391  0.00  0.00    +0.000 A 
ATOM     16  C   UNL     1       3.367   4.709  19.513  0.00  0.00    +0.000 A 
BRANCH  10  18
ATOM     17  C   UNL     1       1.657   2.996  21.598  0.00  0.00    +0.000 C 
ATOM     18  O   UNL     1       1.442   4.056  20.672  0.00  0.00    +0.000 OA
ENDBRANCH  10  18
ENDBRANCH   1  15
BRANCH   3  19
ATOM     19  O   UNL     1       7.547   7.974  16.874  0.00  0.00    +0.000 OA
ATOM     20  H   UNL     1       8.072   8.600  17.394  0.00  0.00    +0.000 HD
ENDBRANCH   3  19
TORSDOF 3
ENDMDL
MODEL 2
REMARK VINA RESULT:      -7.2      3.968      4.737
REMARK  Name = 
REMARK  4 active torsions:
REMARK  status: ('A' for Active; 'I' for Inactive)
REMARK    1  A    between atoms: C_1  and  O_2
REMARK    2  A    between atoms: O_2  and  C_3
REMARK    3  A    between atoms: C_8  and  C_9
REMARK    4  A    between atoms: C_11  and  O_12
REMARK                            x       y       z     vdW  Elec       q    Type
REMARK                         _______ _______ _______ _____ _____    ______ ____
ROOT
ATOM      1  C   UNL     1       6.155   4.784  14.890  0.00  0.00    +0.000 A 
ATOM      2  C   UNL     1       5.660   3.785  14.075  0.00  0.00    +0.000 A 
ATOM      3  C   UNL     1       6.302   3.613  12.877  0.00  0.00    +0.000 A 
ATOM      4  N   UNL     1       7.359   4.324  12.483  0.00  0.00    +0.000 NA
ATOM      5  C   UNL     1       7.797   5.240  13.343  0.00  0.00    +0.000 A 
ATOM      6  N   UNL     1       8.893   5.988  12.960  0.00  0.00    +0.000 N 
ATOM      7  N   UNL     1       7.233   5.515  14.524  0.00  0.00    +0.000 NA
ATOM      8  H   UNL     1       8.967   5.972  11.952  0.00  0.00    +0.000 HD
ATOM      9  H   UNL     1       8.869   6.889  13.413  0.00  0.00    +0.000 HD
ENDROOT
BRANCH   1  15
ATOM     10  C   UNL     1       5.100   4.469  18.543  0.00  0.00    +0.000 A 
ATOM     11  C   UNL     1       4.361   5.639  18.721  0.00  0.00    +0.000 A 
ATOM     12  C   UNL     1       4.238   6.544  17.671  0.00  0.00    +0.000 A 
ATOM     13  C   UNL     1       4.838   6.273  16.444  0.00  0.00    +0.000 A 
ATOM     14  F   UNL     1       4.694   7.193  15.475  0.00  0.00    +0.000 F 
ATOM     15  C   UNL     1       5.567   5.097  16.211  0.00  0.00    +0.000 A 
ATOM     16  C   UNL     1       5.699   4.211  17.300  0.00  0.00    +0.000 A 
BRANCH  10  18
ATOM     17  C   UNL     1       4.242   2.574  19.696  0.00  0.00    +0.000 C 
ATOM     18  O   UNL     1       5.299   3.505  19.495  0.00  0.00    +0.000 OA
ENDBRANCH  10  18
ENDBRANCH   1  15
BRANCH   3  19
ATOM     19  O   UNL     1       5.881   2.668  11.986  0.00  0.00    +0.000 OA
ATOM     20  H   UNL     1       4.963   2.856  11.746  0.00  0.00    +0.000 HD
ENDBRANCH   3  19
TORSDOF 3
ENDMDL
MODEL 3
REMARK VINA RESULT:      -7.2      2.055      2.370
REMARK  Name = 
REMARK  4 active torsions:
REMARK  status: ('A' for Active; 'I' for Inactive)
REMARK    1  A    between atoms: C_1  and  O_2
REMARK    2  A    between atoms: O_2  and  C_3
REMARK    3  A    between atoms: C_8  and  C_9
REMARK    4  A    between atoms: C_11  and  O_12
REMARK                            x       y       z     vdW  Elec       q    Type
REMARK                         _______ _______ _______ _____ _____    ______ ____
ROOT
ATOM      1  C   UNL     1       4.983   4.014  17.851  0.00  0.00    +0.000 A 
ATOM      2  C   UNL     1       5.169   3.922  16.486  0.00  0.00    +0.000 A 
ATOM      3  C   UNL     1       6.416   4.258  16.025  0.00  0.00    +0.000 A 
ATOM      4  N   UNL     1       7.427   4.635  16.807  0.00  0.00    +0.000 NA
ATOM      5  C   UNL     1       7.175   4.661  18.113  0.00  0.00    +0.000 A 
ATOM      6  N   UNL     1       8.208   5.046  18.945  0.00  0.00    +0.000 N 
ATOM      7  N   UNL     1       5.992   4.383  18.672  0.00  0.00    +0.000 NA
ATOM      8  H   UNL     1       8.875   5.589  18.414  0.00  0.00    +0.000 HD
ATOM      9  H   UNL     1       7.836   5.458  19.788  0.00  0.00    +0.000 HD
ENDROOT
BRANCH   1  15
ATOM     10  C   UNL     1       1.801   4.343  19.932  0.00  0.00    +0.000 A 
ATOM     11  C   UNL     1       1.269   3.058  19.832  0.00  0.00    +0.000 A 
ATOM     12  C   UNL     1       1.920   2.098  19.062  0.00  0.00    +0.000 A 
ATOM     13  C   UNL     1       3.106   2.420  18.407  0.00  0.00    +0.000 A 
ATOM     14  F   UNL     1       3.679   1.455  17.668  0.00  0.00    +0.000 F 
ATOM     15  C   UNL     1       3.693   3.692  18.500  0.00  0.00    +0.000 A 
ATOM     16  C   UNL     1       2.997   4.651  19.265  0.00  0.00    +0.000 A 
BRANCH  10  18
ATOM     17  C   UNL     1       1.822   6.663  20.456  0.00  0.00    +0.000 C 
ATOM     18  O   UNL     1       1.256   5.372  20.652  0.00  0.00    +0.000 OA
ENDBRANCH  10  18
ENDBRANCH   1  15
BRANCH   3  19
ATOM     19  O   UNL     1       6.702   4.223  14.692  0.00  0.00    +0.000 OA
ATOM     20  H   UNL     1       7.452   4.810  14.521  0.00  0.00    +0.000 HD
ENDBRANCH   3  19
TORSDOF 3
ENDMDL
MODEL 4
REMARK VINA RESULT:      -7.2      1.636      1.856
REMARK  Name = 
REMARK  4 active torsions:
REMARK  status: ('A' for Active; 'I' for Inactive)
REMARK    1  A    between atoms: C_1  and  O_2
REMARK    2  A    between atoms: O_2  and  C_3
REMARK    3  A    between atoms: C_8  and  C_9
REMARK    4  A    between atoms: C_11  and  O_12
REMARK                            x       y       z     vdW  Elec       q    Type
REMARK                         _______ _______ _______ _____ _____    ______ ____
ROOT
ATOM      1  C   UNL     1       5.553   5.668  18.420  0.00  0.00    +0.000 A 
ATOM      2  C   UNL     1       6.024   6.593  17.509  0.00  0.00    +0.000 A 
ATOM      3  C   UNL     1       7.305   7.038  17.711  0.00  0.00    +0.000 A 
ATOM      4  N   UNL     1       8.096   6.620  18.699  0.00  0.00    +0.000 NA
ATOM      5  C   UNL     1       7.580   5.701  19.510  0.00  0.00    +0.000 A 
ATOM      6  N   UNL     1       8.381   5.248  20.539  0.00  0.00    +0.000 N 
ATOM      7  N   UNL     1       6.336   5.216  19.427  0.00  0.00    +0.000 NA
ATOM      8  H   UNL     1       9.094   5.940  20.731  0.00  0.00    +0.000 HD
ATOM      9  H   UNL     1       7.809   4.941  21.312  0.00  0.00    +0.000 HD
ENDROOT
BRANCH   1  15
ATOM     10  C   UNL     1       2.681   3.156  18.409  0.00  0.00    +0.000 A 
ATOM     11  C   UNL     1       1.597   3.974  18.095  0.00  0.00    +0.000 A 
ATOM     12  C   UNL     1       1.790   5.342  17.925  0.00  0.00    +0.000 A 
ATOM     13  C   UNL     1       3.066   5.886  18.053  0.00  0.00    +0.000 A 
ATOM     14  F   UNL     1       3.184   7.215  17.891  0.00  0.00    +0.000 F 
ATOM     15  C   UNL     1       4.190   5.097  18.341  0.00  0.00    +0.000 A 
ATOM     16  C   UNL     1       3.960   3.719  18.535  0.00  0.00    +0.000 A 
BRANCH  10  18
ATOM     17  C   UNL     1       3.848   1.086  18.519  0.00  0.00    +0.000 C 
ATOM     18  O   UNL     1       2.621   1.802  18.605  0.00  0.00    +0.000 OA
ENDBRANCH  10  18
ENDBRANCH   1  15
BRANCH   3  19
ATOM     19  O   UNL     1       7.862   7.968  16.882  0.00  0.00    +0.000 OA
ATOM     20  H   UNL     1       7.159   8.538  16.540  0.00  0.00    +0.000 HD
ENDBRANCH   3  19
TORSDOF 3
ENDMDL
MODEL 5
REMARK VINA RESULT:      -7.1      3.904      4.896
REMARK  Name = 
REMARK  4 active torsions:
REMARK  status: ('A' for Active; 'I' for Inactive)
REMARK    1  A    between atoms: C_1  and  O_2
REMARK    2  A    between atoms: O_2  and  C_3
REMARK    3  A    between atoms: C_8  and  C_9
REMARK    4  A    between atoms: C_11  and  O_12
REMARK                            x       y       z     vdW  Elec       q    Type
REMARK                         _______ _______ _______ _____ _____    ______ ____
ROOT
ATOM      1  C   UNL     1       2.573   7.067  18.690  0.00  0.00    +0.000 A 
ATOM      2  C   UNL     1       2.516   8.106  17.783  0.00  0.00    +0.000 A 
ATOM      3  C   UNL     1       1.886   9.246  18.212  0.00  0.00    +0.000 A 
ATOM      4  N   UNL     1       1.364   9.400  19.429  0.00  0.00    +0.000 NA
ATOM      5  C   UNL     1       1.494   8.365  20.255  0.00  0.00    +0.000 A 
ATOM      6  N   UNL     1       0.964   8.501  21.522  0.00  0.00    +0.000 N 
ATOM      7  N   UNL     1       2.062   7.197  19.936  0.00  0.00    +0.000 NA
ATOM      8  H   UNL     1       0.251   9.219  21.507  0.00  0.00    +0.000 HD
ATOM      9  H   UNL     1       0.708   7.596  21.888  0.00  0.00    +0.000 HD
ENDROOT
BRANCH   1  15
ATOM     10  C   UNL     1       5.203   4.324  18.339  0.00  0.00    +0.000 A 
ATOM     11  C   UNL     1       4.479   3.327  17.687  0.00  0.00    +0.000 A 
ATOM     12  C   UNL     1       3.133   3.528  17.396  0.00  0.00    +0.000 A 
ATOM     13  C   UNL     1       2.518   4.729  17.742  0.00  0.00    +0.000 A 
ATOM     14  F   UNL     1       1.213   4.856  17.447  0.00  0.00    +0.000 F 
ATOM     15  C   UNL     1       3.213   5.771  18.375  0.00  0.00    +0.000 A 
ATOM     16  C   UNL     1       4.568   5.529  18.682  0.00  0.00    +0.000 A 
BRANCH  10  18
ATOM     17  C   UNL     1       7.467   4.728  17.731  0.00  0.00    +0.000 C 
ATOM     18  O   UNL     1       6.526   4.247  18.684  0.00  0.00    +0.000 OA
ENDBRANCH  10  18
ENDBRANCH   1  15
BRANCH   3  19
ATOM     19  O   UNL     1       1.755  10.326  17.389  0.00  0.00    +0.000 OA
ATOM     20  H   UNL     1       2.597  10.473  16.935  0.00  0.00    +0.000 HD
ENDBRANCH   3  19
TORSDOF 3
ENDMDL
MODEL 6
REMARK VINA RESULT:      -7.1      1.693      2.033
REMARK  Name = 
REMARK  4 active torsions:
REMARK  status: ('A' for Active; 'I' for Inactive)
REMARK    1  A    between atoms: C_1  and  O_2
REMARK    2  A    between atoms: O_2  and  C_3
REMARK    3  A    between atoms: C_8  and  C_9
REMARK    4  A    between atoms: C_11  and  O_12
REMARK                            x       y       z     vdW  Elec       q    Type
REMARK                         _______ _______ _______ _____ _____    ______ ____
ROOT
ATOM      1  C   UNL     1       5.236   5.016  18.625  0.00  0.00    +0.000 A 
ATOM      2  C   UNL     1       5.521   5.147  17.281  0.00  0.00    +0.000 A 
ATOM      3  C   UNL     1       6.826   5.425  16.967  0.00  0.00    +0.000 A 
ATOM      4  N   UNL     1       7.803   5.549  17.866  0.00  0.00    +0.000 NA
ATOM      5  C   UNL     1       7.451   5.371  19.136  0.00  0.00    +0.000 A 
ATOM      6  N   UNL     1       8.446   5.491  20.087  0.00  0.00    +0.000 N 
ATOM      7  N   UNL     1       6.207   5.126  19.560  0.00  0.00    +0.000 NA
ATOM      8  H   UNL     1       9.201   6.045  19.706  0.00  0.00    +0.000 HD
ATOM      9  H   UNL     1       8.048   5.785  20.966  0.00  0.00    +0.000 HD
ENDROOT
BRANCH   1  15
ATOM     10  C   UNL     1       1.835   5.428  20.307  0.00  0.00    +0.000 A 
ATOM     11  C   UNL     1       1.301   4.147  20.172  0.00  0.00    +0.000 A 
ATOM     12  C   UNL     1       2.026   3.163  19.505  0.00  0.00    +0.000 A 
ATOM     13  C   UNL     1       3.285   3.456  18.989  0.00  0.00    +0.000 A 
ATOM     14  F   UNL     1       3.927   2.468  18.343  0.00  0.00    +0.000 F 
ATOM     15  C   UNL     1       3.874   4.723  19.124  0.00  0.00    +0.000 A 
ATOM     16  C   UNL     1       3.106   5.707  19.781  0.00  0.00    +0.000 A 
BRANCH  10  18
ATOM     17  C   UNL     1       1.684   7.783  20.601  0.00  0.00    +0.000 C 
ATOM     18  O   UNL     1       1.223   6.479  20.936  0.00  0.00    +0.000 OA
ENDBRANCH  10  18
ENDBRANCH   1  15
BRANCH   3  19
ATOM     19  O   UNL     1       7.214   5.595  15.670  0.00  0.00    +0.000 OA
ATOM     20  H   UNL     1       6.722   4.972  15.115  0.00  0.00    +0.000 HD
ENDBRANCH   3  19
TORSDOF 3
ENDMDL
MODEL 7
REMARK VINA RESULT:      -7.1      3.871      4.773
REMARK  Name = 
REMARK  4 active torsions:
REMARK  status: ('A' for Active; 'I' for Inactive)
REMARK    1  A    between atoms: C_1  and  O_2
REMARK    2  A    between atoms: O_2  and  C_3
REMARK    3  A    between atoms: C_8  and  C_9
REMARK    4  A    between atoms: C_11  and  O_12
REMARK                            x       y       z     vdW  Elec       q    Type
REMARK                         _______ _______ _______ _____ _____    ______ ____
ROOT
ATOM      1  C   UNL     1       6.353   4.633  15.078  0.00  0.00    +0.000 A 
ATOM      2  C   UNL     1       5.806   3.678  14.244  0.00  0.00    +0.000 A 
ATOM      3  C   UNL     1       6.330   3.613  12.979  0.00  0.00    +0.000 A 
ATOM      4  N   UNL     1       7.322   4.386  12.538  0.00  0.00    +0.000 NA
ATOM      5  C   UNL     1       7.818   5.254  13.416  0.00  0.00    +0.000 A 
ATOM      6  N   UNL     1       8.849   6.065  12.985  0.00  0.00    +0.000 N 
ATOM      7  N   UNL     1       7.368   5.425  14.664  0.00  0.00    +0.000 NA
ATOM      8  H   UNL     1       8.823   6.124  11.975  0.00  0.00    +0.000 HD
ATOM      9  H   UNL     1       8.846   6.931  13.503  0.00  0.00    +0.000 HD
ENDROOT
BRANCH   1  15
ATOM     10  C   UNL     1       4.115   5.417  18.068  0.00  0.00    +0.000 A 
ATOM     11  C   UNL     1       5.017   5.310  19.126  0.00  0.00    +0.000 A 
ATOM     12  C   UNL     1       6.337   4.948  18.874  0.00  0.00    +0.000 A 
ATOM     13  C   UNL     1       6.757   4.709  17.568  0.00  0.00    +0.000 A 
ATOM     14  F   UNL     1       8.039   4.349  17.393  0.00  0.00    +0.000 F 
ATOM     15  C   UNL     1       5.891   4.831  16.470  0.00  0.00    +0.000 A 
ATOM     16  C   UNL     1       4.553   5.173  16.757  0.00  0.00    +0.000 A 
BRANCH  10  18
ATOM     17  C   UNL     1       1.841   4.733  17.937  0.00  0.00    +0.000 C 
ATOM     18  O   UNL     1       2.795   5.760  18.184  0.00  0.00    +0.000 OA
ENDBRANCH  10  18
ENDBRANCH   1  15
BRANCH   3  19
ATOM     19  O   UNL     1       5.849   2.720  12.067  0.00  0.00    +0.000 OA
ATOM     20  H   UNL     1       5.575   3.204  11.274  0.00  0.00    +0.000 HD
ENDBRANCH   3  19
TORSDOF 3
ENDMDL
MODEL 8
REMARK VINA RESULT:      -7.1      1.180      1.186
REMARK  Name = 
REMARK  4 active torsions:
REMARK  status: ('A' for Active; 'I' for Inactive)
REMARK    1  A    between atoms: C_1  and  O_2
REMARK    2  A    between atoms: O_2  and  C_3
REMARK    3  A    between atoms: C_8  and  C_9
REMARK    4  A    between atoms: C_11  and  O_12
REMARK                            x       y       z     vdW  Elec       q    Type
REMARK                         _______ _______ _______ _____ _____    ______ ____
ROOT
ATOM      1  C   UNL     1       5.495   5.571  18.663  0.00  0.00    +0.000 A 
ATOM      2  C   UNL     1       5.921   6.393  17.639  0.00  0.00    +0.000 A 
ATOM      3  C   UNL     1       7.227   6.805  17.703  0.00  0.00    +0.000 A 
ATOM      4  N   UNL     1       8.081   6.444  18.661  0.00  0.00    +0.000 NA
ATOM      5  C   UNL     1       7.601   5.620  19.588  0.00  0.00    +0.000 A 
ATOM      6  N   UNL     1       8.467   5.228  20.590  0.00  0.00    +0.000 N 
ATOM      7  N   UNL     1       6.340   5.178  19.643  0.00  0.00    +0.000 NA
ATOM      8  H   UNL     1       9.214   5.906  20.664  0.00  0.00    +0.000 HD
ATOM      9  H   UNL     1       7.948   5.011  21.428  0.00  0.00    +0.000 HD
ENDROOT
BRANCH   1  15
ATOM     10  C   UNL     1       2.493   3.410  19.605  0.00  0.00    +0.000 A 
ATOM     11  C   UNL     1       1.488   3.974  18.821  0.00  0.00    +0.000 A 
ATOM     12  C   UNL     1       1.773   5.075  18.017  0.00  0.00    +0.000 A 
ATOM     13  C   UNL     1       3.063   5.599  17.988  0.00  0.00    +0.000 A 
ATOM     14  F   UNL     1       3.271   6.670  17.204  0.00  0.00    +0.000 F 
ATOM     15  C   UNL     1       4.112   5.048  18.739  0.00  0.00    +0.000 A 
ATOM     16  C   UNL     1       3.788   3.951  19.564  0.00  0.00    +0.000 A 
BRANCH  10  18
ATOM     17  C   UNL     1       1.552   2.532  21.605  0.00  0.00    +0.000 C 
ATOM     18  O   UNL     1       2.340   2.333  20.436  0.00  0.00    +0.000 OA
ENDBRANCH  10  18
ENDBRANCH   1  15
BRANCH   3  19
ATOM     19  O   UNL     1       7.746   7.636  16.754  0.00  0.00    +0.000 OA
ATOM     20  H   UNL     1       7.731   7.180  15.900  0.00  0.00    +0.000 HD
ENDBRANCH   3  19
TORSDOF 3
ENDMDL
MODEL 9
REMARK VINA RESULT:      -7.0      1.401      1.939
REMARK  Name = 
REMARK  4 active torsions:
REMARK  status: ('A' for Active; 'I' for Inactive)
REMARK    1  A    between atoms: C_1  and  O_2
REMARK    2  A    between atoms: O_2  and  C_3
REMARK    3  A    between atoms: C_8  and  C_9
REMARK    4  A    between atoms: C_11  and  O_12
REMARK                            x       y       z     vdW  Elec       q    Type
REMARK                         _______ _______ _______ _____ _____    ______ ____
ROOT
ATOM      1  C   UNL     1       5.540   5.348  18.526  0.00  0.00    +0.000 A 
ATOM      2  C   UNL     1       6.439   4.939  19.491  0.00  0.00    +0.000 A 
ATOM      3  C   UNL     1       7.647   5.588  19.501  0.00  0.00    +0.000 A 
ATOM      4  N   UNL     1       7.974   6.575  18.667  0.00  0.00    +0.000 NA
ATOM      5  C   UNL     1       7.038   6.934  17.792  0.00  0.00    +0.000 A 
ATOM      6  N   UNL     1       7.351   7.956  16.919  0.00  0.00    +0.000 N 
ATOM      7  N   UNL     1       5.839   6.353  17.672  0.00  0.00    +0.000 NA
ATOM      8  H   UNL     1       8.358   8.027  16.841  0.00  0.00    +0.000 HD
ATOM      9  H   UNL     1       6.823   7.855  16.066  0.00  0.00    +0.000 HD
ENDROOT
BRANCH   1  15
ATOM     10  C   UNL     1       2.033   4.090  19.352  0.00  0.00    +0.000 A 
ATOM     11  C   UNL     1       1.661   3.494  18.148  0.00  0.00    +0.000 A 
ATOM     12  C   UNL     1       2.529   3.532  17.060  0.00  0.00    +0.000 A 
ATOM     13  C   UNL     1       3.770   4.151  17.182  0.00  0.00    +0.000 A 
ATOM     14  F   UNL     1       4.556   4.167  16.092  0.00  0.00    +0.000 F 
ATOM     15  C   UNL     1       4.198   4.741  18.382  0.00  0.00    +0.000 A 
ATOM     16  C   UNL     1       3.288   4.711  19.458  0.00  0.00    +0.000 A 
BRANCH  10  18
ATOM     17  C   UNL     1       1.531   3.124  21.466  0.00  0.00    +0.000 C 
ATOM     18  O   UNL     1       1.270   4.124  20.488  0.00  0.00    +0.000 OA
ENDBRANCH  10  18
ENDBRANCH   1  15
BRANCH   3  19
ATOM     19  O   UNL     1       8.616   5.249  20.399  0.00  0.00    +0.000 OA
ATOM     20  H   UNL     1       8.233   4.651  21.057  0.00  0.00    +0.000 HD
ENDBRANCH   3  19
TORSDOF 3
ENDMDL
