MODEL 1
REMARK VINA RESULT:      -6.3      0.000      0.000
REMARK  Name = 
REMARK  8 active torsions:
REMARK  status: ('A' for Active; 'I' for Inactive)
REMARK    1  A    between atoms: C_1  and  C_2
REMARK    2  A    between atoms: C_2  and  C_3
REMARK    3  A    between atoms: C_2  and  C_4
REMARK    4  A    between atoms: C_2  and  N_5
REMARK    5  A    between atoms: C_6  and  C_8
REMARK    6  A    between atoms: C_8  and  C_9
REMARK    7  A    between atoms: C_8  and  N_15
REMARK    8  A    between atoms: C_18  and  C_19
REMARK                            x       y       z     vdW  Elec       q    Type
REMARK                         _______ _______ _______ _____ _____    ______ ____
ROOT
ATOM      1  N   UNL     1      -3.798  12.639  22.980  0.00  0.00    +0.000 N 
ATOM      2  C   UNL     1      -4.630  12.700  24.081  0.00  0.00    +0.000 A 
ATOM      3  O   UNL     1      -4.846  11.804  24.878  0.00  0.00    +0.000 OA
ATOM      4  C   UNL     1      -5.589  13.857  23.832  0.00  0.00    +0.000 A 
ATOM      5  N   UNL     1      -6.638  13.306  23.306  0.00  0.00    +0.000 NA
ATOM      6  C   UNL     1      -6.196  12.698  22.086  0.00  0.00    +0.000 A 
ATOM      7  C   UNL     1      -7.258  12.620  21.183  0.00  0.00    +0.000 A 
ATOM      8  C   UNL     1      -6.984  12.905  19.871  0.00  0.00    +0.000 A 
ATOM      9  C   UNL     1      -5.673  13.202  19.504  0.00  0.00    +0.000 A 
ATOM     10  C   UNL     1      -4.530  13.073  20.397  0.00  0.00    +0.000 A 
ATOM     11  C   UNL     1      -4.740  12.736  21.745  0.00  0.00    +0.000 A 
ENDROOT
BRANCH   4  12
ATOM     12  C   UNL     1      -5.196  15.272  23.287  0.00  0.00    +0.000 A 
ATOM     13  C   UNL     1      -4.617  16.105  24.244  0.00  0.00    +0.000 A 
ATOM     14  C   UNL     1      -4.610  17.500  24.109  0.00  0.00    +0.000 A 
ATOM     15  C   UNL     1      -5.176  18.112  22.996  0.00  0.00    +0.000 A 
ATOM     16  C   UNL     1      -5.722  17.321  22.000  0.00  0.00    +0.000 A 
ATOM     17  C   UNL     1      -5.718  15.919  22.136  0.00  0.00    +0.000 A 
ENDBRANCH   4  12
BRANCH   1  18
ATOM     18  C   UNL     1      -2.367  12.868  23.453  0.00  0.00    +0.000 C 
BRANCH  18  19
ATOM     19  C   UNL     1      -1.805  14.294  23.175  0.00  0.00    +0.000 A 
ATOM     20  C   UNL     1      -1.200  15.049  24.193  0.00  0.00    +0.000 A 
ATOM     21  C   UNL     1      -0.781  16.365  24.015  0.00  0.00    +0.000 A 
ATOM     22  C   UNL     1      -0.996  17.002  22.804  0.00  0.00    +0.000 A 
ATOM     23  C   UNL     1      -1.620  16.292  21.779  0.00  0.00    +0.000 A 
ATOM     24  C   UNL     1      -2.020  14.948  21.946  0.00  0.00    +0.000 A 
ENDBRANCH  18  19
BRANCH  18  26
ATOM     25  N   UNL     1      -1.272  11.686  21.213  0.00  0.00    +0.000 N 
ATOM     26  C   UNL     1      -1.245  11.829  22.592  0.00  0.00    +0.000 C 
ATOM     27  O   UNL     1      -0.405  11.152  23.192  0.00  0.00    +0.000 OA
ATOM     28  H   UNL     1      -2.066  12.089  20.728  0.00  0.00    +0.000 HD
BRANCH  25  30
ATOM     29  C   UNL     1      -1.064  10.348  19.037  0.00  0.00    +0.000 C 
ATOM     30  C   UNL     1      -0.478  10.635  20.440  0.00  0.00    +0.000 C 
ATOM     31  C   UNL     1      -0.325   9.266  21.152  0.00  0.00    +0.000 C 
ATOM     32  C   UNL     1       0.951  11.174  20.226  0.00  0.00    +0.000 C 
ENDBRANCH  25  30
ENDBRANCH  18  26
ENDBRANCH   1  18
TORSDOF 5
ENDMDL
MODEL 2
REMARK VINA RESULT:      -6.2      2.371      4.266
REMARK  Name = 
REMARK  8 active torsions:
REMARK  status: ('A' for Active; 'I' for Inactive)
REMARK    1  A    between atoms: C_1  and  C_2
REMARK    2  A    between atoms: C_2  and  C_3
REMARK    3  A    between atoms: C_2  and  C_4
REMARK    4  A    between atoms: C_2  and  N_5
REMARK    5  A    between atoms: C_6  and  C_8
REMARK    6  A    between atoms: C_8  and  C_9
REMARK    7  A    between atoms: C_8  and  N_15
REMARK    8  A    between atoms: C_18  and  C_19
REMARK                            x       y       z     vdW  Elec       q    Type
REMARK                         _______ _______ _______ _____ _____    ______ ____
ROOT
ATOM      1  N   UNL     1      -1.678  12.394  21.309  0.00  0.00    +0.000 N 
ATOM      2  C   UNL     1      -1.069  12.253  22.541  0.00  0.00    +0.000 A 
ATOM      3  O   UNL     1      -0.852  11.208  23.129  0.00  0.00    +0.000 OA
ATOM      4  C   UNL     1      -1.190  13.603  23.237  0.00  0.00    +0.000 A 
ATOM      5  N   UNL     1      -2.259  13.501  23.964  0.00  0.00    +0.000 NA
ATOM      6  C   UNL     1      -3.338  13.265  23.052  0.00  0.00    +0.000 A 
ATOM      7  C   UNL     1      -4.534  13.728  23.602  0.00  0.00    +0.000 A 
ATOM      8  C   UNL     1      -5.399  14.376  22.760  0.00  0.00    +0.000 A 
ATOM      9  C   UNL     1      -5.069  14.492  21.412  0.00  0.00    +0.000 A 
ATOM     10  C   UNL     1      -3.931  13.826  20.794  0.00  0.00    +0.000 A 
ATOM     11  C   UNL     1      -3.032  13.104  21.597  0.00  0.00    +0.000 A 
ENDROOT
BRANCH   4  12
ATOM     12  C   UNL     1      -0.922  14.999  22.581  0.00  0.00    +0.000 A 
ATOM     13  C   UNL     1       0.429  15.341  22.513  0.00  0.00    +0.000 A 
ATOM     14  C   UNL     1       0.854  16.671  22.393  0.00  0.00    +0.000 A 
ATOM     15  C   UNL     1      -0.066  17.712  22.326  0.00  0.00    +0.000 A 
ATOM     16  C   UNL     1      -1.418  17.414  22.345  0.00  0.00    +0.000 A 
ATOM     17  C   UNL     1      -1.840  16.075  22.455  0.00  0.00    +0.000 A 
ENDBRANCH   4  12
BRANCH   1  18
ATOM     18  C   UNL     1      -0.632  12.135  20.230  0.00  0.00    +0.000 C 
BRANCH  18  19
ATOM     19  C   UNL     1       0.017  13.417  19.627  0.00  0.00    +0.000 A 
ATOM     20  C   UNL     1       1.411  13.582  19.598  0.00  0.00    +0.000 A 
ATOM     21  C   UNL     1       2.028  14.754  19.167  0.00  0.00    +0.000 A 
ATOM     22  C   UNL     1       1.258  15.839  18.782  0.00  0.00    +0.000 A 
ATOM     23  C   UNL     1      -0.130  15.721  18.825  0.00  0.00    +0.000 A 
ATOM     24  C   UNL     1      -0.759  14.525  19.234  0.00  0.00    +0.000 A 
ENDBRANCH  18  19
BRANCH  18  26
ATOM     25  N   UNL     1      -2.562  11.768  18.293  0.00  0.00    +0.000 N 
ATOM     26  C   UNL     1      -1.349  11.361  18.829  0.00  0.00    +0.000 C 
ATOM     27  O   UNL     1      -0.813  10.391  18.285  0.00  0.00    +0.000 OA
ATOM     28  H   UNL     1      -3.098  12.437  18.835  0.00  0.00    +0.000 HD
BRANCH  25  30
ATOM     29  C   UNL     1      -3.573   9.515  17.608  0.00  0.00    +0.000 C 
ATOM     30  C   UNL     1      -3.335  10.996  17.226  0.00  0.00    +0.000 C 
ATOM     31  C   UNL     1      -2.694  10.999  15.814  0.00  0.00    +0.000 C 
ATOM     32  C   UNL     1      -4.725  11.647  17.073  0.00  0.00    +0.000 C 
ENDBRANCH  25  30
ENDBRANCH  18  26
ENDBRANCH   1  18
TORSDOF 5
ENDMDL
MODEL 3
REMARK VINA RESULT:      -6.1      2.163      6.343
REMARK  Name = 
REMARK  8 active torsions:
REMARK  status: ('A' for Active; 'I' for Inactive)
REMARK    1  A    between atoms: C_1  and  C_2
REMARK    2  A    between atoms: C_2  and  C_3
REMARK    3  A    between atoms: C_2  and  C_4
REMARK    4  A    between atoms: C_2  and  N_5
REMARK    5  A    between atoms: C_6  and  C_8
REMARK    6  A    between atoms: C_8  and  C_9
REMARK    7  A    between atoms: C_8  and  N_15
REMARK    8  A    between atoms: C_18  and  C_19
REMARK                            x       y       z     vdW  Elec       q    Type
REMARK                         _______ _______ _______ _____ _____    ______ ____
ROOT
ATOM      1  N   UNL     1      -2.132  12.162  20.398  0.00  0.00    +0.000 N 
ATOM      2  C   UNL     1      -1.792  12.161  19.060  0.00  0.00    +0.000 A 
ATOM      3  O   UNL     1      -2.479  11.761  18.136  0.00  0.00    +0.000 OA
ATOM      4  C   UNL     1      -0.273  12.256  19.002  0.00  0.00    +0.000 A 
ATOM      5  N   UNL     1       0.128  11.026  18.910  0.00  0.00    +0.000 NA
ATOM      6  C   UNL     1      -0.328  10.371  20.100  0.00  0.00    +0.000 A 
ATOM      7  C   UNL     1       0.508   9.294  20.399  0.00  0.00    +0.000 A 
ATOM      8  C   UNL     1       0.830   9.100  21.717  0.00  0.00    +0.000 A 
ATOM      9  C   UNL     1       0.273   9.942  22.678  0.00  0.00    +0.000 A 
ATOM     10  C   UNL     1      -0.764  10.924  22.396  0.00  0.00    +0.000 A 
ATOM     11  C   UNL     1      -1.172  11.137  21.068  0.00  0.00    +0.000 A 
ENDROOT
BRANCH   4  12
ATOM     12  C   UNL     1       0.619  13.219  19.857  0.00  0.00    +0.000 A 
ATOM     13  C   UNL     1       0.512  14.561  19.490  0.00  0.00    +0.000 A 
ATOM     14  C   UNL     1       1.512  15.495  19.793  0.00  0.00    +0.000 A 
ATOM     15  C   UNL     1       2.655  15.118  20.489  0.00  0.00    +0.000 A 
ATOM     16  C   UNL     1       2.781  13.805  20.911  0.00  0.00    +0.000 A 
ATOM     17  C   UNL     1       1.770  12.872  20.613  0.00  0.00    +0.000 A 
ENDBRANCH   4  12
BRANCH   1  18
ATOM     18  C   UNL     1      -3.005  13.383  20.667  0.00  0.00    +0.000 C 
BRANCH  18  19
ATOM     19  C   UNL     1      -2.310  14.520  21.476  0.00  0.00    +0.000 A 
ATOM     20  C   UNL     1      -2.397  15.860  21.068  0.00  0.00    +0.000 A 
ATOM     21  C   UNL     1      -1.706  16.892  21.699  0.00  0.00    +0.000 A 
ATOM     22  C   UNL     1      -0.852  16.609  22.753  0.00  0.00    +0.000 A 
ATOM     23  C   UNL     1      -0.720  15.284  23.166  0.00  0.00    +0.000 A 
ATOM     24  C   UNL     1      -1.441  14.240  22.548  0.00  0.00    +0.000 A 
ENDBRANCH  18  19
BRANCH  18  26
ATOM     25  N   UNL     1      -5.658  13.443  21.421  0.00  0.00    +0.000 N 
ATOM     26  C   UNL     1      -4.379  12.968  21.674  0.00  0.00    +0.000 C 
ATOM     27  O   UNL     1      -4.251  12.260  22.677  0.00  0.00    +0.000 OA
ATOM     28  H   UNL     1      -5.744  14.166  20.715  0.00  0.00    +0.000 HD
BRANCH  25  30
ATOM     29  C   UNL     1      -7.863  14.450  22.251  0.00  0.00    +0.000 C 
ATOM     30  C   UNL     1      -6.836  13.300  22.382  0.00  0.00    +0.000 C 
ATOM     31  C   UNL     1      -6.457  13.206  23.883  0.00  0.00    +0.000 C 
ATOM     32  C   UNL     1      -7.581  11.994  22.040  0.00  0.00    +0.000 C 
ENDBRANCH  25  30
ENDBRANCH  18  26
ENDBRANCH   1  18
TORSDOF 5
ENDMDL
MODEL 4
REMARK VINA RESULT:      -5.9      2.500      7.441
REMARK  Name = 
REMARK  8 active torsions:
REMARK  status: ('A' for Active; 'I' for Inactive)
REMARK    1  A    between atoms: C_1  and  C_2
REMARK    2  A    between atoms: C_2  and  C_3
REMARK    3  A    between atoms: C_2  and  C_4
REMARK    4  A    between atoms: C_2  and  N_5
REMARK    5  A    between atoms: C_6  and  C_8
REMARK    6  A    between atoms: C_8  and  C_9
REMARK    7  A    between atoms: C_8  and  N_15
REMARK    8  A    between atoms: C_18  and  C_19
REMARK                            x       y       z     vdW  Elec       q    Type
REMARK                         _______ _______ _______ _____ _____    ______ ____
ROOT
ATOM      1  N   UNL     1      -1.664  13.092  20.788  0.00  0.00    +0.000 N 
ATOM      2  C   UNL     1      -0.967  12.506  21.827  0.00  0.00    +0.000 A 
ATOM      3  O   UNL     1      -1.220  12.600  23.015  0.00  0.00    +0.000 OA
ATOM      4  C   UNL     1       0.416  12.171  21.283  0.00  0.00    +0.000 A 
ATOM      5  N   UNL     1       1.151  13.186  21.612  0.00  0.00    +0.000 NA
ATOM      6  C   UNL     1       0.574  14.323  20.958  0.00  0.00    +0.000 A 
ATOM      7  C   UNL     1       1.554  15.292  20.736  0.00  0.00    +0.000 A 
ATOM      8  C   UNL     1       1.524  15.947  19.533  0.00  0.00    +0.000 A 
ATOM      9  C   UNL     1       0.503  15.653  18.631  0.00  0.00    +0.000 A 
ATOM     10  C   UNL     1      -0.640  14.807  18.943  0.00  0.00    +0.000 A 
ATOM     11  C   UNL     1      -0.691  14.144  20.181  0.00  0.00    +0.000 A 
ENDROOT
BRANCH   4  12
ATOM     12  C   UNL     1       0.719  11.509  19.896  0.00  0.00    +0.000 A 
ATOM     13  C   UNL     1       0.435  10.144  19.848  0.00  0.00    +0.000 A 
ATOM     14  C   UNL     1       1.029   9.295  18.904  0.00  0.00    +0.000 A 
ATOM     15  C   UNL     1       1.926   9.788  17.963  0.00  0.00    +0.000 A 
ATOM     16  C   UNL     1       2.202  11.145  17.946  0.00  0.00    +0.000 A 
ATOM     17  C   UNL     1       1.595  11.996  18.889  0.00  0.00    +0.000 A 
ENDBRANCH   4  12
BRANCH   1  18
ATOM     18  C   UNL     1      -2.880  12.225  20.483  0.00  0.00    +0.000 C 
BRANCH  18  19
ATOM     19  C   UNL     1      -3.106  11.920  18.972  0.00  0.00    +0.000 A 
ATOM     20  C   UNL     1      -4.398  11.757  18.447  0.00  0.00    +0.000 A 
ATOM     21  C   UNL     1      -4.639  11.380  17.128  0.00  0.00    +0.000 A 
ATOM     22  C   UNL     1      -3.577  11.105  16.282  0.00  0.00    +0.000 A 
ATOM     23  C   UNL     1      -2.280  11.229  16.778  0.00  0.00    +0.000 A 
ATOM     24  C   UNL     1      -2.031  11.639  18.105  0.00  0.00    +0.000 A 
ENDBRANCH  18  19
BRANCH  18  26
ATOM     25  N   UNL     1      -5.428  12.365  21.533  0.00  0.00    +0.000 N 
ATOM     26  C   UNL     1      -4.365  13.036  20.946  0.00  0.00    +0.000 C 
ATOM     27  O   UNL     1      -4.536  14.239  20.729  0.00  0.00    +0.000 OA
ATOM     28  H   UNL     1      -5.375  11.353  21.550  0.00  0.00    +0.000 HD
BRANCH  25  30
ATOM     29  C   UNL     1      -7.475  13.444  20.431  0.00  0.00    +0.000 C 
ATOM     30  C   UNL     1      -6.815  12.968  21.748  0.00  0.00    +0.000 C 
ATOM     31  C   UNL     1      -6.871  14.161  22.736  0.00  0.00    +0.000 C 
ATOM     32  C   UNL     1      -7.729  11.874  22.336  0.00  0.00    +0.000 C 
ENDBRANCH  25  30
ENDBRANCH  18  26
ENDBRANCH   1  18
TORSDOF 5
ENDMDL
MODEL 5
REMARK VINA RESULT:      -5.8      2.444      6.230
REMARK  Name = 
REMARK  8 active torsions:
REMARK  status: ('A' for Active; 'I' for Inactive)
REMARK    1  A    between atoms: C_1  and  C_2
REMARK    2  A    between atoms: C_2  and  C_3
REMARK    3  A    between atoms: C_2  and  C_4
REMARK    4  A    between atoms: C_2  and  N_5
REMARK    5  A    between atoms: C_6  and  C_8
REMARK    6  A    between atoms: C_8  and  C_9
REMARK    7  A    between atoms: C_8  and  N_15
REMARK    8  A    between atoms: C_18  and  C_19
REMARK                            x       y       z     vdW  Elec       q    Type
REMARK                         _______ _______ _______ _____ _____    ______ ____
ROOT
ATOM      1  N   UNL     1      -2.230  12.247  20.425  0.00  0.00    +0.000 N 
ATOM      2  C   UNL     1      -1.837  12.230  19.101  0.00  0.00    +0.000 A 
ATOM      3  O   UNL     1      -2.497  11.842  18.152  0.00  0.00    +0.000 OA
ATOM      4  C   UNL     1      -0.315  12.286  19.103  0.00  0.00    +0.000 A 
ATOM      5  N   UNL     1       0.058  11.046  19.033  0.00  0.00    +0.000 NA
ATOM      6  C   UNL     1      -0.462  10.409  20.207  0.00  0.00    +0.000 A 
ATOM      7  C   UNL     1       0.334   9.314  20.544  0.00  0.00    +0.000 A 
ATOM      8  C   UNL     1       0.598   9.119  21.874  0.00  0.00    +0.000 A 
ATOM      9  C   UNL     1       0.026   9.980  22.809  0.00  0.00    +0.000 A 
ATOM     10  C   UNL     1      -0.974  10.987  22.481  0.00  0.00    +0.000 A 
ATOM     11  C   UNL     1      -1.324  11.202  21.137  0.00  0.00    +0.000 A 
ENDROOT
BRANCH   4  12
ATOM     12  C   UNL     1       0.566  13.231  19.987  0.00  0.00    +0.000 A 
ATOM     13  C   UNL     1       0.298  14.588  19.805  0.00  0.00    +0.000 A 
ATOM     14  C   UNL     1       1.232  15.580  20.131  0.00  0.00    +0.000 A 
ATOM     15  C   UNL     1       2.471  15.247  20.666  0.00  0.00    +0.000 A 
ATOM     16  C   UNL     1       2.762  13.915  20.905  0.00  0.00    +0.000 A 
ATOM     17  C   UNL     1       1.817  12.922  20.585  0.00  0.00    +0.000 A 
ENDBRANCH   4  12
BRANCH   1  18
ATOM     18  C   UNL     1      -3.081  13.492  20.652  0.00  0.00    +0.000 C 
BRANCH  18  19
ATOM     19  C   UNL     1      -3.104  14.010  22.122  0.00  0.00    +0.000 A 
ATOM     20  C   UNL     1      -2.386  15.155  22.501  0.00  0.00    +0.000 A 
ATOM     21  C   UNL     1      -2.293  15.590  23.821  0.00  0.00    +0.000 A 
ATOM     22  C   UNL     1      -2.890  14.858  24.834  0.00  0.00    +0.000 A 
ATOM     23  C   UNL     1      -3.588  13.700  24.497  0.00  0.00    +0.000 A 
ATOM     24  C   UNL     1      -3.709  13.271  23.158  0.00  0.00    +0.000 A 
ENDBRANCH  18  19
BRANCH  18  26
ATOM     25  N   UNL     1      -5.242  11.898  20.019  0.00  0.00    +0.000 N 
ATOM     26  C   UNL     1      -4.773  13.168  20.323  0.00  0.00    +0.000 C 
ATOM     27  O   UNL     1      -5.611  14.074  20.313  0.00  0.00    +0.000 OA
ATOM     28  H   UNL     1      -4.544  11.184  19.844  0.00  0.00    +0.000 HD
BRANCH  25  30
ATOM     29  C   UNL     1      -7.038  12.455  18.278  0.00  0.00    +0.000 C 
ATOM     30  C   UNL     1      -6.650  11.600  19.507  0.00  0.00    +0.000 C 
ATOM     31  C   UNL     1      -7.783  11.774  20.552  0.00  0.00    +0.000 C 
ATOM     32  C   UNL     1      -6.696  10.125  19.059  0.00  0.00    +0.000 C 
ENDBRANCH  25  30
ENDBRANCH  18  26
ENDBRANCH   1  18
TORSDOF 5
ENDMDL
MODEL 6
REMARK VINA RESULT:      -5.8      0.632      1.300
REMARK  Name = 
REMARK  8 active torsions:
REMARK  status: ('A' for Active; 'I' for Inactive)
REMARK    1  A    between atoms: C_1  and  C_2
REMARK    2  A    between atoms: C_2  and  C_3
REMARK    3  A    between atoms: C_2  and  C_4
REMARK    4  A    between atoms: C_2  and  N_5
REMARK    5  A    between atoms: C_6  and  C_8
REMARK    6  A    between atoms: C_8  and  C_9
REMARK    7  A    between atoms: C_8  and  N_15
REMARK    8  A    between atoms: C_18  and  C_19
REMARK                            x       y       z     vdW  Elec       q    Type
REMARK                         _______ _______ _______ _____ _____    ______ ____
ROOT
ATOM      1  N   UNL     1      -4.061  12.820  22.810  0.00  0.00    +0.000 N 
ATOM      2  C   UNL     1      -4.873  12.753  23.926  0.00  0.00    +0.000 A 
ATOM      3  O   UNL     1      -4.931  11.837  24.728  0.00  0.00    +0.000 OA
ATOM      4  C   UNL     1      -6.006  13.743  23.693  0.00  0.00    +0.000 A 
ATOM      5  N   UNL     1      -6.964  13.031  23.187  0.00  0.00    +0.000 NA
ATOM      6  C   UNL     1      -6.453  12.496  21.960  0.00  0.00    +0.000 A 
ATOM      7  C   UNL     1      -7.505  12.248  21.076  0.00  0.00    +0.000 A 
ATOM      8  C   UNL     1      -7.303  12.567  19.759  0.00  0.00    +0.000 A 
ATOM      9  C   UNL     1      -6.062  13.065  19.368  0.00  0.00    +0.000 A 
ATOM     10  C   UNL     1      -4.897  13.122  20.241  0.00  0.00    +0.000 A 
ATOM     11  C   UNL     1      -5.028  12.762  21.593  0.00  0.00    +0.000 A 
ENDROOT
BRANCH   4  12
ATOM     12  C   UNL     1      -5.851  15.200  23.139  0.00  0.00    +0.000 A 
ATOM     13  C   UNL     1      -5.264  16.087  24.042  0.00  0.00    +0.000 A 
ATOM     14  C   UNL     1      -5.437  17.474  23.939  0.00  0.00    +0.000 A 
ATOM     15  C   UNL     1      -6.201  18.025  22.915  0.00  0.00    +0.000 A 
ATOM     16  C   UNL     1      -6.765  17.183  21.971  0.00  0.00    +0.000 A 
ATOM     17  C   UNL     1      -6.579  15.791  22.073  0.00  0.00    +0.000 A 
ENDBRANCH   4  12
BRANCH   1  18
ATOM     18  C   UNL     1      -2.675  13.272  23.257  0.00  0.00    +0.000 C 
BRANCH  18  19
ATOM     19  C   UNL     1      -2.339  14.761  22.943  0.00  0.00    +0.000 A 
ATOM     20  C   UNL     1      -2.572  15.306  21.670  0.00  0.00    +0.000 A 
ATOM     21  C   UNL     1      -2.189  16.597  21.315  0.00  0.00    +0.000 A 
ATOM     22  C   UNL     1      -1.508  17.390  22.224  0.00  0.00    +0.000 A 
ATOM     23  C   UNL     1      -1.235  16.871  23.489  0.00  0.00    +0.000 A 
ATOM     24  C   UNL     1      -1.647  15.574  23.861  0.00  0.00    +0.000 A 
ENDBRANCH  18  19
BRANCH  18  26
ATOM     25  N   UNL     1      -1.570  11.969  21.091  0.00  0.00    +0.000 N 
ATOM     26  C   UNL     1      -1.419  12.397  22.402  0.00  0.00    +0.000 C 
ATOM     27  O   UNL     1      -0.357  12.092  22.953  0.00  0.00    +0.000 OA
ATOM     28  H   UNL     1      -2.498  12.050  20.689  0.00  0.00    +0.000 HD
BRANCH  25  30
ATOM     29  C   UNL     1       0.777  11.647  20.115  0.00  0.00    +0.000 C 
ATOM     30  C   UNL     1      -0.612  11.018  20.379  0.00  0.00    +0.000 C 
ATOM     31  C   UNL     1      -1.118  10.462  19.022  0.00  0.00    +0.000 C 
ATOM     32  C   UNL     1      -0.382   9.794  21.289  0.00  0.00    +0.000 C 
ENDBRANCH  25  30
ENDBRANCH  18  26
ENDBRANCH   1  18
TORSDOF 5
ENDMDL
MODEL 7
REMARK VINA RESULT:      -5.7      1.562      2.227
REMARK  Name = 
REMARK  8 active torsions:
REMARK  status: ('A' for Active; 'I' for Inactive)
REMARK    1  A    between atoms: C_1  and  C_2
REMARK    2  A    between atoms: C_2  and  C_3
REMARK    3  A    between atoms: C_2  and  C_4
REMARK    4  A    between atoms: C_2  and  N_5
REMARK    5  A    between atoms: C_6  and  C_8
REMARK    6  A    between atoms: C_8  and  C_9
REMARK    7  A    between atoms: C_8  and  N_15
REMARK    8  A    between atoms: C_18  and  C_19
REMARK                            x       y       z     vdW  Elec       q    Type
REMARK                         _______ _______ _______ _____ _____    ______ ____
ROOT
ATOM      1  N   UNL     1      -4.739  12.870  22.398  0.00  0.00    +0.000 N 
ATOM      2  C   UNL     1      -5.787  12.848  23.297  0.00  0.00    +0.000 A 
ATOM      3  O   UNL     1      -5.914  12.095  24.247  0.00  0.00    +0.000 OA
ATOM      4  C   UNL     1      -6.954  13.548  22.613  0.00  0.00    +0.000 A 
ATOM      5  N   UNL     1      -7.642  12.588  22.077  0.00  0.00    +0.000 NA
ATOM      6  C   UNL     1      -6.769  11.951  21.138  0.00  0.00    +0.000 A 
ATOM      7  C   UNL     1      -7.517  11.354  20.122  0.00  0.00    +0.000 A 
ATOM      8  C   UNL     1      -7.038  11.467  18.844  0.00  0.00    +0.000 A 
ATOM      9  C   UNL     1      -5.822  12.115  18.634  0.00  0.00    +0.000 A 
ATOM     10  C   UNL     1      -4.936  12.547  19.705  0.00  0.00    +0.000 A 
ATOM     11  C   UNL     1      -5.350  12.414  21.042  0.00  0.00    +0.000 A 
ENDROOT
BRANCH   4  12
ATOM     12  C   UNL     1      -6.874  14.886  21.803  0.00  0.00    +0.000 A 
ATOM     13  C   UNL     1      -6.677  16.015  22.597  0.00  0.00    +0.000 A 
ATOM     14  C   UNL     1      -7.017  17.302  22.156  0.00  0.00    +0.000 A 
ATOM     15  C   UNL     1      -7.560  17.504  20.892  0.00  0.00    +0.000 A 
ATOM     16  C   UNL     1      -7.731  16.415  20.053  0.00  0.00    +0.000 A 
ATOM     17  C   UNL     1      -7.378  15.126  20.497  0.00  0.00    +0.000 A 
ENDBRANCH   4  12
BRANCH   1  18
ATOM     18  C   UNL     1      -3.589  13.650  23.026  0.00  0.00    +0.000 C 
BRANCH  18  19
ATOM     19  C   UNL     1      -3.423  15.108  22.502  0.00  0.00    +0.000 A 
ATOM     20  C   UNL     1      -3.412  15.390  21.126  0.00  0.00    +0.000 A 
ATOM     21  C   UNL     1      -3.160  16.660  20.614  0.00  0.00    +0.000 A 
ATOM     22  C   UNL     1      -2.862  17.705  21.473  0.00  0.00    +0.000 A 
ATOM     23  C   UNL     1      -2.837  17.455  22.844  0.00  0.00    +0.000 A 
ATOM     24  C   UNL     1      -3.120  16.176  23.369  0.00  0.00    +0.000 A 
ENDBRANCH  18  19
BRANCH  18  26
ATOM     25  N   UNL     1      -1.818  12.234  21.454  0.00  0.00    +0.000 N 
ATOM     26  C   UNL     1      -2.043  12.916  22.641  0.00  0.00    +0.000 C 
ATOM     27  O   UNL     1      -1.100  12.947  23.437  0.00  0.00    +0.000 OA
ATOM     28  H   UNL     1      -2.630  12.044  20.876  0.00  0.00    +0.000 HD
BRANCH  25  30
ATOM     29  C   UNL     1      -0.304  10.330  22.260  0.00  0.00    +0.000 C 
ATOM     30  C   UNL     1      -0.578  11.390  21.166  0.00  0.00    +0.000 C 
ATOM     31  C   UNL     1       0.736  12.191  20.977  0.00  0.00    +0.000 C 
ATOM     32  C   UNL     1      -0.812  10.624  19.849  0.00  0.00    +0.000 C 
ENDBRANCH  25  30
ENDBRANCH  18  26
ENDBRANCH   1  18
TORSDOF 5
ENDMDL
MODEL 8
REMARK VINA RESULT:      -5.7      0.949      1.134
REMARK  Name = 
REMARK  8 active torsions:
REMARK  status: ('A' for Active; 'I' for Inactive)
REMARK    1  A    between atoms: C_1  and  C_2
REMARK    2  A    between atoms: C_2  and  C_3
REMARK    3  A    between atoms: C_2  and  C_4
REMARK    4  A    between atoms: C_2  and  N_5
REMARK    5  A    between atoms: C_6  and  C_8
REMARK    6  A    between atoms: C_8  and  C_9
REMARK    7  A    between atoms: C_8  and  N_15
REMARK    8  A    between atoms: C_18  and  C_19
REMARK                            x       y       z     vdW  Elec       q    Type
REMARK                         _______ _______ _______ _____ _____    ______ ____
ROOT
ATOM      1  N   UNL     1      -4.186  12.790  22.873  0.00  0.00    +0.000 N 
ATOM      2  C   UNL     1      -4.979  12.826  24.003  0.00  0.00    +0.000 A 
ATOM      3  O   UNL     1      -5.279  11.880  24.710  0.00  0.00    +0.000 OA
ATOM      4  C   UNL     1      -5.802  14.104  23.911  0.00  0.00    +0.000 A 
ATOM      5  N   UNL     1      -6.920  13.735  23.368  0.00  0.00    +0.000 NA
ATOM      6  C   UNL     1      -6.581  13.216  22.077  0.00  0.00    +0.000 A 
ATOM      7  C   UNL     1      -7.666  13.356  21.209  0.00  0.00    +0.000 A 
ATOM      8  C   UNL     1      -7.392  13.747  19.925  0.00  0.00    +0.000 A 
ATOM      9  C   UNL     1      -6.064  13.931  19.544  0.00  0.00    +0.000 A 
ATOM     10  C   UNL     1      -4.923  13.578  20.377  0.00  0.00    +0.000 A 
ATOM     11  C   UNL     1      -5.139  13.125  21.690  0.00  0.00    +0.000 A 
ENDROOT
BRANCH   4  12
ATOM     12  C   UNL     1      -5.259  15.515  23.502  0.00  0.00    +0.000 A 
ATOM     13  C   UNL     1      -4.551  16.163  24.514  0.00  0.00    +0.000 A 
ATOM     14  C   UNL     1      -4.380  17.554  24.527  0.00  0.00    +0.000 A 
ATOM     15  C   UNL     1      -4.905  18.349  23.515  0.00  0.00    +0.000 A 
ATOM     16  C   UNL     1      -5.578  17.742  22.467  0.00  0.00    +0.000 A 
ATOM     17  C   UNL     1      -5.738  16.344  22.452  0.00  0.00    +0.000 A 
ENDBRANCH   4  12
BRANCH   1  18
ATOM     18  C   UNL     1      -2.727  12.802  23.315  0.00  0.00    +0.000 C 
BRANCH  18  19
ATOM     19  C   UNL     1      -2.011  14.178  23.173  0.00  0.00    +0.000 A 
ATOM     20  C   UNL     1      -1.331  14.760  24.255  0.00  0.00    +0.000 A 
ATOM     21  C   UNL     1      -0.769  16.034  24.202  0.00  0.00    +0.000 A 
ATOM     22  C   UNL     1      -0.908  16.804  23.059  0.00  0.00    +0.000 A 
ATOM     23  C   UNL     1      -1.603  16.269  21.975  0.00  0.00    +0.000 A 
ATOM     24  C   UNL     1      -2.148  14.967  22.014  0.00  0.00    +0.000 A 
ENDBRANCH  18  19
BRANCH  18  26
ATOM     25  N   UNL     1      -0.890  10.799  22.839  0.00  0.00    +0.000 N 
ATOM     26  C   UNL     1      -1.753  11.746  22.308  0.00  0.00    +0.000 C 
ATOM     27  O   UNL     1      -1.772  11.835  21.077  0.00  0.00    +0.000 OA
ATOM     28  H   UNL     1      -0.729  10.839  23.839  0.00  0.00    +0.000 HD
BRANCH  25  30
ATOM     29  C   UNL     1       0.933  10.909  21.042  0.00  0.00    +0.000 C 
ATOM     30  C   UNL     1       0.138  10.017  22.024  0.00  0.00    +0.000 C 
ATOM     31  C   UNL     1      -0.434   8.837  21.196  0.00  0.00    +0.000 C 
ATOM     32  C   UNL     1       1.162   9.405  23.001  0.00  0.00    +0.000 C 
ENDBRANCH  25  30
ENDBRANCH  18  26
ENDBRANCH   1  18
TORSDOF 5
ENDMDL
MODEL 9
REMARK VINA RESULT:      -5.6      2.523      6.495
REMARK  Name = 
REMARK  8 active torsions:
REMARK  status: ('A' for Active; 'I' for Inactive)
REMARK    1  A    between atoms: C_1  and  C_2
REMARK    2  A    between atoms: C_2  and  C_3
REMARK    3  A    between atoms: C_2  and  C_4
REMARK    4  A    between atoms: C_2  and  N_5
REMARK    5  A    between atoms: C_6  and  C_8
REMARK    6  A    between atoms: C_8  and  C_9
REMARK    7  A    between atoms: C_8  and  N_15
REMARK    8  A    between atoms: C_18  and  C_19
REMARK                            x       y       z     vdW  Elec       q    Type
REMARK                         _______ _______ _______ _____ _____    ______ ____
ROOT
ATOM      1  N   UNL     1      -1.902  11.895  20.193  0.00  0.00    +0.000 N 
ATOM      2  C   UNL     1      -1.450  12.023  18.894  0.00  0.00    +0.000 A 
ATOM      3  O   UNL     1      -2.023  11.650  17.885  0.00  0.00    +0.000 OA
ATOM      4  C   UNL     1       0.056  12.229  18.981  0.00  0.00    +0.000 A 
ATOM      5  N   UNL     1       0.557  11.041  18.838  0.00  0.00    +0.000 NA
ATOM      6  C   UNL     1       0.053  10.264  19.931  0.00  0.00    +0.000 A 
ATOM      7  C   UNL     1       0.941   9.229  20.227  0.00  0.00    +0.000 A 
ATOM      8  C   UNL     1       1.163   8.955  21.551  0.00  0.00    +0.000 A 
ATOM      9  C   UNL     1       0.463   9.678  22.515  0.00  0.00    +0.000 A 
ATOM     10  C   UNL     1      -0.618  10.604  22.212  0.00  0.00    +0.000 A 
ATOM     11  C   UNL     1      -0.927  10.890  20.871  0.00  0.00    +0.000 A 
ENDROOT
BRANCH   4  12
ATOM     12  C   UNL     1       0.795  13.182  19.980  0.00  0.00    +0.000 A 
ATOM     13  C   UNL     1       0.346  14.502  19.937  0.00  0.00    +0.000 A 
ATOM     14  C   UNL     1       1.134  15.570  20.387  0.00  0.00    +0.000 A 
ATOM     15  C   UNL     1       2.404  15.350  20.911  0.00  0.00    +0.000 A 
ATOM     16  C   UNL     1       2.871  14.050  21.014  0.00  0.00    +0.000 A 
ATOM     17  C   UNL     1       2.071  12.980  20.569  0.00  0.00    +0.000 A 
ENDBRANCH   4  12
BRANCH   1  18
ATOM     18  C   UNL     1      -2.886  13.027  20.467  0.00  0.00    +0.000 C 
BRANCH  18  19
ATOM     19  C   UNL     1      -3.033  13.417  21.969  0.00  0.00    +0.000 A 
ATOM     20  C   UNL     1      -3.360  12.458  22.941  0.00  0.00    +0.000 A 
ATOM     21  C   UNL     1      -3.605  12.782  24.274  0.00  0.00    +0.000 A 
ATOM     22  C   UNL     1      -3.574  14.105  24.681  0.00  0.00    +0.000 A 
ATOM     23  C   UNL     1      -3.281  15.087  23.736  0.00  0.00    +0.000 A 
ATOM     24  C   UNL     1      -3.003  14.761  22.391  0.00  0.00    +0.000 A 
ENDBRANCH  18  19
BRANCH  18  26
ATOM     25  N   UNL     1      -5.044  12.820  18.761  0.00  0.00    +0.000 N 
ATOM     26  C   UNL     1      -4.519  12.567  20.020  0.00  0.00    +0.000 C 
ATOM     27  O   UNL     1      -5.281  12.030  20.829  0.00  0.00    +0.000 OA
ATOM     28  H   UNL     1      -4.499  13.418  18.151  0.00  0.00    +0.000 HD
BRANCH  25  30
ATOM     29  C   UNL     1      -6.991  11.178  18.476  0.00  0.00    +0.000 C 
ATOM     30  C   UNL     1      -6.516  12.648  18.391  0.00  0.00    +0.000 C 
ATOM     31  C   UNL     1      -6.909  13.167  16.984  0.00  0.00    +0.000 C 
ATOM     32  C   UNL     1      -7.363  13.450  19.401  0.00  0.00    +0.000 C 
ENDBRANCH  25  30
ENDBRANCH  18  26
ENDBRANCH   1  18
TORSDOF 5
ENDMDL
