MODEL 1
REMARK VINA RESULT:      -7.4      0.000      0.000
REMARK  Name = 
REMARK  10 active torsions:
REMARK  status: ('A' for Active; 'I' for Inactive)
REMARK    1  A    between atoms: C_1  and  S_2
REMARK    2  A    between atoms: S_2  and  N_5
REMARK    3  A    between atoms: N_5  and  C_6
REMARK    4  A    between atoms: C_6  and  C_7
REMARK    5  A    between atoms: C_7  and  S_8
REMARK    6  A    between atoms: S_8  and  C_11
REMARK    7  A    between atoms: C_14  and  S_15
REMARK    8  A    between atoms: S_15  and  C_18
REMARK    9  A    between atoms: C_21  and  C_22
REMARK   10  A    between atoms: C_22  and  N_23
REMARK                            x       y       z     vdW  Elec       q    Type
REMARK                         _______ _______ _______ _____ _____    ______ ____
ROOT
ATOM      1  C   UNL     1       2.670   6.368  18.933  0.00  0.00    +0.000 A 
ATOM      2  C   UNL     1       2.212   6.822  20.178  0.00  0.00    +0.000 A 
ATOM      3  C   UNL     1       1.661   8.100  20.294  0.00  0.00    +0.000 A 
ATOM      4  C   UNL     1       1.583   8.932  19.170  0.00  0.00    +0.000 A 
ATOM      5  C   UNL     1       2.078   8.491  17.936  0.00  0.00    +0.000 A 
ATOM      6  C   UNL     1       2.617   7.209  17.817  0.00  0.00    +0.000 A 
ENDROOT
BRANCH   1   7
ATOM      7  S   UNL     1       3.200   4.663  18.727  0.00  0.00    +0.000 S 
ATOM      8  O   UNL     1       3.029   4.266  17.254  0.00  0.00    +0.000 OA
ATOM      9  O   UNL     1       2.115   3.768  19.347  0.00  0.00    +0.000 OA
BRANCH   7  10
ATOM     10  C   UNL     1       4.825   4.062  19.326  0.00  0.00    +0.000 C 
BRANCH  10  11
ATOM     11  C   UNL     1       6.005   4.873  18.761  0.00  0.00    +0.000 C 
BRANCH  11  12
ATOM     12  N   UNL     1       5.704   5.390  17.423  0.00  0.00    +0.000 NA
ATOM     13  H   UNL     1       4.826   4.966  17.078  0.00  0.00    +0.000 HD
BRANCH  12  15
ATOM     14  C   UNL     1       6.381   3.893  14.816  0.00  0.00    +0.000 C 
ATOM     15  S   UNL     1       6.921   4.862  16.253  0.00  0.00    +0.000 S 
ATOM     16  O   UNL     1       8.042   4.216  17.079  0.00  0.00    +0.000 OA
ATOM     17  O   UNL     1       7.587   6.176  15.813  0.00  0.00    +0.000 OA
ENDBRANCH  12  15
ENDBRANCH  11  12
ENDBRANCH  10  11
ENDBRANCH   7  10
ENDBRANCH   1   7
BRANCH   4  18
ATOM     18  S   UNL     1       0.747  10.509  19.264  0.00  0.00    +0.000 S 
ATOM     19  O   UNL     1       0.805  11.043  20.703  0.00  0.00    +0.000 OA
ATOM     20  O   UNL     1       1.593  11.571  18.546  0.00  0.00    +0.000 OA
BRANCH  18  21
ATOM     21  C   UNL     1      -0.934  10.606  18.667  0.00  0.00    +0.000 A 
ATOM     22  C   UNL     1      -1.460   9.887  17.604  0.00  0.00    +0.000 A 
ATOM     23  C   UNL     1      -2.777  10.247  17.301  0.00  0.00    +0.000 A 
ATOM     24  C   UNL     1      -3.269  11.255  18.125  0.00  0.00    +0.000 A 
ATOM     25  S   UNL     1      -2.083  11.694  19.235  0.00  0.00    +0.000 S 
BRANCH  24  26
ATOM     26  C   UNL     1      -4.628  11.877  18.031  0.00  0.00    +0.000 C 
BRANCH  26  27
ATOM     27  N   UNL     1      -5.208  11.606  16.718  0.00  0.00    +0.000 NA
ATOM     28  H   UNL     1      -4.544  11.927  15.978  0.00  0.00    +0.000 HD
ATOM     29  H   UNL     1      -6.086  12.166  16.623  0.00  0.00    +0.000 HD
ENDBRANCH  26  27
ENDBRANCH  24  26
ENDBRANCH  18  21
ENDBRANCH   4  18
TORSDOF 9
ENDMDL
MODEL 2
REMARK VINA RESULT:      -7.2      1.234      1.377
REMARK  Name = 
REMARK  10 active torsions:
REMARK  status: ('A' for Active; 'I' for Inactive)
REMARK    1  A    between atoms: C_1  and  S_2
REMARK    2  A    between atoms: S_2  and  N_5
REMARK    3  A    between atoms: N_5  and  C_6
REMARK    4  A    between atoms: C_6  and  C_7
REMARK    5  A    between atoms: C_7  and  S_8
REMARK    6  A    between atoms: S_8  and  C_11
REMARK    7  A    between atoms: C_14  and  S_15
REMARK    8  A    between atoms: S_15  and  C_18
REMARK    9  A    between atoms: C_21  and  C_22
REMARK   10  A    between atoms: C_22  and  N_23
REMARK                            x       y       z     vdW  Elec       q    Type
REMARK                         _______ _______ _______ _____ _____    ______ ____
ROOT
ATOM      1  C   UNL     1       2.445   7.097  19.201  0.00  0.00    +0.000 A 
ATOM      2  C   UNL     1       1.846   7.529  20.393  0.00  0.00    +0.000 A 
ATOM      3  C   UNL     1       1.129   8.727  20.420  0.00  0.00    +0.000 A 
ATOM      4  C   UNL     1       1.024   9.504  19.259  0.00  0.00    +0.000 A 
ATOM      5  C   UNL     1       1.656   9.090  18.080  0.00  0.00    +0.000 A 
ATOM      6  C   UNL     1       2.363   7.886  18.050  0.00  0.00    +0.000 A 
ENDROOT
BRANCH   1   7
ATOM      7  S   UNL     1       3.202   5.470  19.102  0.00  0.00    +0.000 S 
ATOM      8  O   UNL     1       2.428   4.508  20.015  0.00  0.00    +0.000 OA
ATOM      9  O   UNL     1       4.525   5.532  19.881  0.00  0.00    +0.000 OA
BRANCH   7  10
ATOM     10  C   UNL     1       3.536   4.640  17.502  0.00  0.00    +0.000 C 
BRANCH  10  11
ATOM     11  C   UNL     1       4.477   3.430  17.643  0.00  0.00    +0.000 C 
BRANCH  11  12
ATOM     12  N   UNL     1       5.802   3.839  18.118  0.00  0.00    +0.000 NA
ATOM     13  H   UNL     1       5.705   4.626  18.781  0.00  0.00    +0.000 HD
BRANCH  12  15
ATOM     14  C   UNL     1       6.298   4.114  15.088  0.00  0.00    +0.000 C 
ATOM     15  S   UNL     1       6.768   4.511  16.796  0.00  0.00    +0.000 S 
ATOM     16  O   UNL     1       8.230   4.203  17.149  0.00  0.00    +0.000 OA
ATOM     17  O   UNL     1       6.708   6.027  17.046  0.00  0.00    +0.000 OA
ENDBRANCH  12  15
ENDBRANCH  11  12
ENDBRANCH  10  11
ENDBRANCH   7  10
ENDBRANCH   1   7
BRANCH   4  18
ATOM     18  S   UNL     1      -0.012  10.960  19.232  0.00  0.00    +0.000 S 
ATOM     19  O   UNL     1      -0.238  11.462  20.665  0.00  0.00    +0.000 OA
ATOM     20  O   UNL     1       0.789  12.137  18.656  0.00  0.00    +0.000 OA
BRANCH  18  21
ATOM     21  C   UNL     1      -1.582  10.859  18.387  0.00  0.00    +0.000 A 
ATOM     22  C   UNL     1      -1.881  10.014  17.329  0.00  0.00    +0.000 A 
ATOM     23  C   UNL     1      -3.160  10.230  16.804  0.00  0.00    +0.000 A 
ATOM     24  C   UNL     1      -3.849  11.251  17.450  0.00  0.00    +0.000 A 
ATOM     25  S   UNL     1      -2.885  11.880  18.678  0.00  0.00    +0.000 S 
BRANCH  24  26
ATOM     26  C   UNL     1      -5.221  11.739  17.101  0.00  0.00    +0.000 C 
BRANCH  26  27
ATOM     27  N   UNL     1      -5.936  12.120  18.315  0.00  0.00    +0.000 NA
ATOM     28  H   UNL     1      -6.076  13.156  18.319  0.00  0.00    +0.000 HD
ATOM     29  H   UNL     1      -5.342  11.876  19.140  0.00  0.00    +0.000 HD
ENDBRANCH  26  27
ENDBRANCH  24  26
ENDBRANCH  18  21
ENDBRANCH   4  18
TORSDOF 9
ENDMDL
MODEL 3
REMARK VINA RESULT:      -7.2      0.808      1.395
REMARK  Name = 
REMARK  10 active torsions:
REMARK  status: ('A' for Active; 'I' for Inactive)
REMARK    1  A    between atoms: C_1  and  S_2
REMARK    2  A    between atoms: S_2  and  N_5
REMARK    3  A    between atoms: N_5  and  C_6
REMARK    4  A    between atoms: C_6  and  C_7
REMARK    5  A    between atoms: C_7  and  S_8
REMARK    6  A    between atoms: S_8  and  C_11
REMARK    7  A    between atoms: C_14  and  S_15
REMARK    8  A    between atoms: S_15  and  C_18
REMARK    9  A    between atoms: C_21  and  C_22
REMARK   10  A    between atoms: C_22  and  N_23
REMARK                            x       y       z     vdW  Elec       q    Type
REMARK                         _______ _______ _______ _____ _____    ______ ____
ROOT
ATOM      1  C   UNL     1       2.618   6.513  18.990  0.00  0.00    +0.000 A 
ATOM      2  C   UNL     1       2.607   7.435  17.934  0.00  0.00    +0.000 A 
ATOM      3  C   UNL     1       2.052   8.703  18.121  0.00  0.00    +0.000 A 
ATOM      4  C   UNL     1       1.490   9.044  19.358  0.00  0.00    +0.000 A 
ATOM      5  C   UNL     1       1.466   8.108  20.399  0.00  0.00    +0.000 A 
ATOM      6  C   UNL     1       2.033   6.844  20.216  0.00  0.00    +0.000 A 
ENDROOT
BRANCH   1   7
ATOM      7  S   UNL     1       3.500   4.955  18.827  0.00  0.00    +0.000 S 
ATOM      8  O   UNL     1       3.347   4.448  17.386  0.00  0.00    +0.000 OA
ATOM      9  O   UNL     1       2.671   3.882  19.550  0.00  0.00    +0.000 OA
BRANCH   7  10
ATOM     10  C   UNL     1       5.245   4.758  19.352  0.00  0.00    +0.000 C 
BRANCH  10  11
ATOM     11  C   UNL     1       6.187   5.772  18.679  0.00  0.00    +0.000 C 
BRANCH  11  12
ATOM     12  N   UNL     1       5.862   5.941  17.260  0.00  0.00    +0.000 NA
ATOM     13  H   UNL     1       4.901   5.602  17.082  0.00  0.00    +0.000 HD
BRANCH  12  15
ATOM     14  C   UNL     1       6.071   3.649  15.210  0.00  0.00    +0.000 C 
ATOM     15  S   UNL     1       6.876   4.901  16.250  0.00  0.00    +0.000 S 
ATOM     16  O   UNL     1       7.971   4.357  17.178  0.00  0.00    +0.000 OA
ATOM     17  O   UNL     1       7.671   5.900  15.394  0.00  0.00    +0.000 OA
ENDBRANCH  12  15
ENDBRANCH  11  12
ENDBRANCH  10  11
ENDBRANCH   7  10
ENDBRANCH   1   7
BRANCH   4  18
ATOM     18  S   UNL     1       0.911  10.707  19.663  0.00  0.00    +0.000 S 
ATOM     19  O   UNL     1       1.093  11.056  21.147  0.00  0.00    +0.000 OA
ATOM     20  O   UNL     1       1.890  11.705  19.028  0.00  0.00    +0.000 OA
BRANCH  18  21
ATOM     21  C   UNL     1      -0.751  11.125  19.158  0.00  0.00    +0.000 A 
ATOM     22  C   UNL     1      -1.612  11.978  19.832  0.00  0.00    +0.000 A 
ATOM     23  C   UNL     1      -2.886  12.033  19.254  0.00  0.00    +0.000 A 
ATOM     24  C   UNL     1      -3.013  11.214  18.136  0.00  0.00    +0.000 A 
ATOM     25  S   UNL     1      -1.551  10.430  17.854  0.00  0.00    +0.000 S 
BRANCH  24  26
ATOM     26  C   UNL     1      -4.256  11.031  17.322  0.00  0.00    +0.000 C 
BRANCH  26  27
ATOM     27  N   UNL     1      -4.885  12.326  17.079  0.00  0.00    +0.000 NA
ATOM     28  H   UNL     1      -4.523  13.018  17.775  0.00  0.00    +0.000 HD
ATOM     29  H   UNL     1      -5.914  12.228  17.234  0.00  0.00    +0.000 HD
ENDBRANCH  26  27
ENDBRANCH  24  26
ENDBRANCH  18  21
ENDBRANCH   4  18
TORSDOF 9
ENDMDL
MODEL 4
REMARK VINA RESULT:      -7.2      1.194      1.852
REMARK  Name = 
REMARK  10 active torsions:
REMARK  status: ('A' for Active; 'I' for Inactive)
REMARK    1  A    between atoms: C_1  and  S_2
REMARK    2  A    between atoms: S_2  and  N_5
REMARK    3  A    between atoms: N_5  and  C_6
REMARK    4  A    between atoms: C_6  and  C_7
REMARK    5  A    between atoms: C_7  and  S_8
REMARK    6  A    between atoms: S_8  and  C_11
REMARK    7  A    between atoms: C_14  and  S_15
REMARK    8  A    between atoms: S_15  and  C_18
REMARK    9  A    between atoms: C_21  and  C_22
REMARK   10  A    between atoms: C_22  and  N_23
REMARK                            x       y       z     vdW  Elec       q    Type
REMARK                         _______ _______ _______ _____ _____    ______ ____
ROOT
ATOM      1  C   UNL     1       2.853   6.249  19.028  0.00  0.00    +0.000 A 
ATOM      2  C   UNL     1       2.792   7.048  17.878  0.00  0.00    +0.000 A 
ATOM      3  C   UNL     1       2.148   8.287  17.922  0.00  0.00    +0.000 A 
ATOM      4  C   UNL     1       1.550   8.721  19.112  0.00  0.00    +0.000 A 
ATOM      5  C   UNL     1       1.578   7.904  20.249  0.00  0.00    +0.000 A 
ATOM      6  C   UNL     1       2.232   6.671  20.208  0.00  0.00    +0.000 A 
ENDROOT
BRANCH   1   7
ATOM      7  S   UNL     1       3.841   4.748  19.040  0.00  0.00    +0.000 S 
ATOM      8  O   UNL     1       3.461   3.916  20.274  0.00  0.00    +0.000 OA
ATOM      9  O   UNL     1       5.270   5.144  19.445  0.00  0.00    +0.000 OA
BRANCH   7  10
ATOM     10  C   UNL     1       3.961   3.642  17.583  0.00  0.00    +0.000 C 
BRANCH  10  11
ATOM     11  C   UNL     1       5.230   3.892  16.748  0.00  0.00    +0.000 C 
BRANCH  11  12
ATOM     12  N   UNL     1       5.417   5.321  16.479  0.00  0.00    +0.000 NA
ATOM     13  H   UNL     1       5.183   5.520  15.492  0.00  0.00    +0.000 HD
BRANCH  12  15
ATOM     14  C   UNL     1       7.552   7.296  17.498  0.00  0.00    +0.000 C 
ATOM     15  S   UNL     1       7.123   5.771  16.612  0.00  0.00    +0.000 S 
ATOM     16  O   UNL     1       7.693   5.673  15.190  0.00  0.00    +0.000 OA
ATOM     17  O   UNL     1       7.765   4.545  17.282  0.00  0.00    +0.000 OA
ENDBRANCH  12  15
ENDBRANCH  11  12
ENDBRANCH  10  11
ENDBRANCH   7  10
ENDBRANCH   1   7
BRANCH   4  18
ATOM     18  S   UNL     1       0.855  10.363  19.231  0.00  0.00    +0.000 S 
ATOM     19  O   UNL     1       1.030  10.899  20.659  0.00  0.00    +0.000 OA
ATOM     20  O   UNL     1       1.750  11.346  18.461  0.00  0.00    +0.000 OA
BRANCH  18  21
ATOM     21  C   UNL     1      -0.840  10.598  18.717  0.00  0.00    +0.000 A 
ATOM     22  C   UNL     1      -1.449   9.989  17.630  0.00  0.00    +0.000 A 
ATOM     23  C   UNL     1      -2.754  10.444  17.412  0.00  0.00    +0.000 A 
ATOM     24  C   UNL     1      -3.153  11.414  18.326  0.00  0.00    +0.000 A 
ATOM     25  S   UNL     1      -1.899  11.703  19.411  0.00  0.00    +0.000 S 
BRANCH  24  26
ATOM     26  C   UNL     1      -4.476  12.116  18.337  0.00  0.00    +0.000 C 
BRANCH  26  27
ATOM     27  N   UNL     1      -4.934  12.331  16.968  0.00  0.00    +0.000 NA
ATOM     28  H   UNL     1      -4.475  13.189  16.584  0.00  0.00    +0.000 HD
ATOM     29  H   UNL     1      -5.965  12.504  16.987  0.00  0.00    +0.000 HD
ENDBRANCH  26  27
ENDBRANCH  24  26
ENDBRANCH  18  21
ENDBRANCH   4  18
TORSDOF 9
ENDMDL
MODEL 5
REMARK VINA RESULT:      -7.0      2.486      9.080
REMARK  Name = 
REMARK  10 active torsions:
REMARK  status: ('A' for Active; 'I' for Inactive)
REMARK    1  A    between atoms: C_1  and  S_2
REMARK    2  A    between atoms: S_2  and  N_5
REMARK    3  A    between atoms: N_5  and  C_6
REMARK    4  A    between atoms: C_6  and  C_7
REMARK    5  A    between atoms: C_7  and  S_8
REMARK    6  A    between atoms: S_8  and  C_11
REMARK    7  A    between atoms: C_14  and  S_15
REMARK    8  A    between atoms: S_15  and  C_18
REMARK    9  A    between atoms: C_21  and  C_22
REMARK   10  A    between atoms: C_22  and  N_23
REMARK                            x       y       z     vdW  Elec       q    Type
REMARK                         _______ _______ _______ _____ _____    ______ ____
ROOT
ATOM      1  C   UNL     1       1.158   9.574  19.882  0.00  0.00    +0.000 A 
ATOM      2  C   UNL     1       1.736   9.178  18.668  0.00  0.00    +0.000 A 
ATOM      3  C   UNL     1       2.254   7.888  18.529  0.00  0.00    +0.000 A 
ATOM      4  C   UNL     1       2.211   6.998  19.610  0.00  0.00    +0.000 A 
ATOM      5  C   UNL     1       1.668   7.409  20.834  0.00  0.00    +0.000 A 
ATOM      6  C   UNL     1       1.139   8.694  20.969  0.00  0.00    +0.000 A 
ENDROOT
BRANCH   1   7
ATOM      7  S   UNL     1       0.315  11.155  20.014  0.00  0.00    +0.000 S 
ATOM      8  O   UNL     1       1.056  12.185  19.149  0.00  0.00    +0.000 OA
ATOM      9  O   UNL     1       0.635  11.730  21.403  0.00  0.00    +0.000 OA
BRANCH   7  10
ATOM     10  C   UNL     1      -1.490  11.330  19.742  0.00  0.00    +0.000 C 
BRANCH  10  11
ATOM     11  C   UNL     1      -1.827  12.250  18.555  0.00  0.00    +0.000 C 
BRANCH  11  12
ATOM     12  N   UNL     1      -1.521  11.604  17.276  0.00  0.00    +0.000 NA
ATOM     13  H   UNL     1      -1.244  12.320  16.584  0.00  0.00    +0.000 HD
BRANCH  12  15
ATOM     14  C   UNL     1      -4.572  11.682  16.847  0.00  0.00    +0.000 C 
ATOM     15  S   UNL     1      -2.971  10.872  16.574  0.00  0.00    +0.000 S 
ATOM     16  O   UNL     1      -2.925   9.390  16.974  0.00  0.00    +0.000 OA
ATOM     17  O   UNL     1      -2.641  10.792  15.075  0.00  0.00    +0.000 OA
ENDBRANCH  12  15
ENDBRANCH  11  12
ENDBRANCH  10  11
ENDBRANCH   7  10
ENDBRANCH   1   7
BRANCH   4  18
ATOM     18  S   UNL     1       2.730   5.300  19.408  0.00  0.00    +0.000 S 
ATOM     19  O   UNL     1       2.738   4.594  20.772  0.00  0.00    +0.000 OA
ATOM     20  O   UNL     1       1.616   4.514  18.702  0.00  0.00    +0.000 OA
BRANCH  18  21
ATOM     21  C   UNL     1       4.278   4.988  18.573  0.00  0.00    +0.000 A 
ATOM     22  C   UNL     1       5.542   5.211  19.098  0.00  0.00    +0.000 A 
ATOM     23  C   UNL     1       6.566   4.970  18.174  0.00  0.00    +0.000 A 
ATOM     24  C   UNL     1       6.092   4.568  16.929  0.00  0.00    +0.000 A 
ATOM     25  S   UNL     1       4.411   4.500  16.970  0.00  0.00    +0.000 S 
BRANCH  24  26
ATOM     26  C   UNL     1       6.934   4.268  15.728  0.00  0.00    +0.000 C 
BRANCH  26  27
ATOM     27  N   UNL     1       7.549   5.496  15.233  0.00  0.00    +0.000 NA
ATOM     28  H   UNL     1       6.823   6.070  14.746  0.00  0.00    +0.000 HD
ATOM     29  H   UNL     1       8.279   5.241  14.529  0.00  0.00    +0.000 HD
ENDBRANCH  26  27
ENDBRANCH  24  26
ENDBRANCH  18  21
ENDBRANCH   4  18
TORSDOF 9
ENDMDL
MODEL 6
REMARK VINA RESULT:      -7.0      1.146      1.211
REMARK  Name = 
REMARK  10 active torsions:
REMARK  status: ('A' for Active; 'I' for Inactive)
REMARK    1  A    between atoms: C_1  and  S_2
REMARK    2  A    between atoms: S_2  and  N_5
REMARK    3  A    between atoms: N_5  and  C_6
REMARK    4  A    between atoms: C_6  and  C_7
REMARK    5  A    between atoms: C_7  and  S_8
REMARK    6  A    between atoms: S_8  and  C_11
REMARK    7  A    between atoms: C_14  and  S_15
REMARK    8  A    between atoms: S_15  and  C_18
REMARK    9  A    between atoms: C_21  and  C_22
REMARK   10  A    between atoms: C_22  and  N_23
REMARK                            x       y       z     vdW  Elec       q    Type
REMARK                         _______ _______ _______ _____ _____    ______ ____
ROOT
ATOM      1  C   UNL     1       2.396   6.141  19.753  0.00  0.00    +0.000 A 
ATOM      2  C   UNL     1       1.780   6.802  20.825  0.00  0.00    +0.000 A 
ATOM      3  C   UNL     1       1.338   8.118  20.672  0.00  0.00    +0.000 A 
ATOM      4  C   UNL     1       1.527   8.781  19.453  0.00  0.00    +0.000 A 
ATOM      5  C   UNL     1       2.178   8.132  18.396  0.00  0.00    +0.000 A 
ATOM      6  C   UNL     1       2.608   6.812  18.545  0.00  0.00    +0.000 A 
ENDROOT
BRANCH   1   7
ATOM      7  S   UNL     1       2.792   4.391  19.871  0.00  0.00    +0.000 S 
ATOM      8  O   UNL     1       1.778   3.597  19.034  0.00  0.00    +0.000 OA
ATOM      9  O   UNL     1       2.372   3.920  21.272  0.00  0.00    +0.000 OA
BRANCH   7  10
ATOM     10  C   UNL     1       4.476   3.744  19.547  0.00  0.00    +0.000 C 
BRANCH  10  11
ATOM     11  C   UNL     1       4.925   3.954  18.089  0.00  0.00    +0.000 C 
BRANCH  11  12
ATOM     12  N   UNL     1       6.357   4.254  18.011  0.00  0.00    +0.000 NA
ATOM     13  H   UNL     1       6.650   4.770  18.858  0.00  0.00    +0.000 HD
BRANCH  12  15
ATOM     14  C   UNL     1       5.311   6.269  15.927  0.00  0.00    +0.000 C 
ATOM     15  S   UNL     1       6.697   5.378  16.688  0.00  0.00    +0.000 S 
ATOM     16  O   UNL     1       7.583   4.604  15.701  0.00  0.00    +0.000 OA
ATOM     17  O   UNL     1       7.711   6.357  17.303  0.00  0.00    +0.000 OA
ENDBRANCH  12  15
ENDBRANCH  11  12
ENDBRANCH  10  11
ENDBRANCH   7  10
ENDBRANCH   1   7
BRANCH   4  18
ATOM     18  S   UNL     1       0.837  10.408  19.188  0.00  0.00    +0.000 S 
ATOM     19  O   UNL     1       0.928  11.227  20.484  0.00  0.00    +0.000 OA
ATOM     20  O   UNL     1       1.784  11.216  18.289  0.00  0.00    +0.000 OA
BRANCH  18  21
ATOM     21  C   UNL     1      -0.821  10.522  18.533  0.00  0.00    +0.000 A 
ATOM     22  C   UNL     1      -1.310   9.824  17.439  0.00  0.00    +0.000 A 
ATOM     23  C   UNL     1      -2.615  10.194  17.096  0.00  0.00    +0.000 A 
ATOM     24  C   UNL     1      -3.134  11.187  17.921  0.00  0.00    +0.000 A 
ATOM     25  S   UNL     1      -1.987  11.601  19.081  0.00  0.00    +0.000 S 
BRANCH  24  26
ATOM     26  C   UNL     1      -4.488  11.815  17.790  0.00  0.00    +0.000 C 
BRANCH  26  27
ATOM     27  N   UNL     1      -4.721  12.727  18.906  0.00  0.00    +0.000 NA
ATOM     28  H   UNL     1      -3.801  13.049  19.283  0.00  0.00    +0.000 HD
ATOM     29  H   UNL     1      -5.209  12.201  19.667  0.00  0.00    +0.000 HD
ENDBRANCH  26  27
ENDBRANCH  24  26
ENDBRANCH  18  21
ENDBRANCH   4  18
TORSDOF 9
ENDMDL
MODEL 7
REMARK VINA RESULT:      -6.9      1.988      3.424
REMARK  Name = 
REMARK  10 active torsions:
REMARK  status: ('A' for Active; 'I' for Inactive)
REMARK    1  A    between atoms: C_1  and  S_2
REMARK    2  A    between atoms: S_2  and  N_5
REMARK    3  A    between atoms: N_5  and  C_6
REMARK    4  A    between atoms: C_6  and  C_7
REMARK    5  A    between atoms: C_7  and  S_8
REMARK    6  A    between atoms: S_8  and  C_11
REMARK    7  A    between atoms: C_14  and  S_15
REMARK    8  A    between atoms: S_15  and  C_18
REMARK    9  A    between atoms: C_21  and  C_22
REMARK   10  A    between atoms: C_22  and  N_23
REMARK                            x       y       z     vdW  Elec       q    Type
REMARK                         _______ _______ _______ _____ _____    ______ ____
ROOT
ATOM      1  C   UNL     1       2.845   7.094  18.503  0.00  0.00    +0.000 A 
ATOM      2  C   UNL     1       2.268   7.219  19.774  0.00  0.00    +0.000 A 
ATOM      3  C   UNL     1       1.459   8.319  20.068  0.00  0.00    +0.000 A 
ATOM      4  C   UNL     1       1.239   9.304  19.097  0.00  0.00    +0.000 A 
ATOM      5  C   UNL     1       1.848   9.197  17.841  0.00  0.00    +0.000 A 
ATOM      6  C   UNL     1       2.647   8.092  17.542  0.00  0.00    +0.000 A 
ENDROOT
BRANCH   1   7
ATOM      7  S   UNL     1       3.725   5.595  18.047  0.00  0.00    +0.000 S 
ATOM      8  O   UNL     1       4.580   5.881  16.805  0.00  0.00    +0.000 OA
ATOM      9  O   UNL     1       2.701   4.636  17.421  0.00  0.00    +0.000 OA
BRANCH   7  10
ATOM     10  C   UNL     1       4.719   4.637  19.254  0.00  0.00    +0.000 C 
BRANCH  10  11
ATOM     11  C   UNL     1       4.152   3.229  19.508  0.00  0.00    +0.000 C 
BRANCH  11  12
ATOM     12  N   UNL     1       3.497   3.146  20.817  0.00  0.00    +0.000 NA
ATOM     13  H   UNL     1       3.763   2.261  21.281  0.00  0.00    +0.000 HD
BRANCH  12  15
ATOM     14  C   UNL     1       1.072   2.139  19.205  0.00  0.00    +0.000 C 
ATOM     15  S   UNL     1       1.741   3.026  20.640  0.00  0.00    +0.000 S 
ATOM     16  O   UNL     1       1.205   4.453  20.821  0.00  0.00    +0.000 OA
ATOM     17  O   UNL     1       1.295   2.365  21.954  0.00  0.00    +0.000 OA
ENDBRANCH  12  15
ENDBRANCH  11  12
ENDBRANCH  10  11
ENDBRANCH   7  10
ENDBRANCH   1   7
BRANCH   4  18
ATOM     18  S   UNL     1       0.089  10.638  19.402  0.00  0.00    +0.000 S 
ATOM     19  O   UNL     1      -0.251  10.699  20.898  0.00  0.00    +0.000 OA
ATOM     20  O   UNL     1       0.818  11.979  19.234  0.00  0.00    +0.000 OA
BRANCH  18  21
ATOM     21  C   UNL     1      -1.423  10.678  18.451  0.00  0.00    +0.000 A 
ATOM     22  C   UNL     1      -1.689   9.924  17.318  0.00  0.00    +0.000 A 
ATOM     23  C   UNL     1      -2.917  10.243  16.727  0.00  0.00    +0.000 A 
ATOM     24  C   UNL     1      -3.598  11.253  17.399  0.00  0.00    +0.000 A 
ATOM     25  S   UNL     1      -2.692  11.745  18.728  0.00  0.00    +0.000 S 
BRANCH  24  26
ATOM     26  C   UNL     1      -4.917  11.836  16.996  0.00  0.00    +0.000 C 
BRANCH  26  27
ATOM     27  N   UNL     1      -5.417  12.710  18.054  0.00  0.00    +0.000 NA
ATOM     28  H   UNL     1      -6.431  12.904  17.886  0.00  0.00    +0.000 HD
ATOM     29  H   UNL     1      -4.905  13.620  18.001  0.00  0.00    +0.000 HD
ENDBRANCH  26  27
ENDBRANCH  24  26
ENDBRANCH  18  21
ENDBRANCH   4  18
TORSDOF 9
ENDMDL
MODEL 8
REMARK VINA RESULT:      -6.9      3.076      3.637
REMARK  Name = 
REMARK  10 active torsions:
REMARK  status: ('A' for Active; 'I' for Inactive)
REMARK    1  A    between atoms: C_1  and  S_2
REMARK    2  A    between atoms: S_2  and  N_5
REMARK    3  A    between atoms: N_5  and  C_6
REMARK    4  A    between atoms: C_6  and  C_7
REMARK    5  A    between atoms: C_7  and  S_8
REMARK    6  A    between atoms: S_8  and  C_11
REMARK    7  A    between atoms: C_14  and  S_15
REMARK    8  A    between atoms: S_15  and  C_18
REMARK    9  A    between atoms: C_21  and  C_22
REMARK   10  A    between atoms: C_22  and  N_23
REMARK                            x       y       z     vdW  Elec       q    Type
REMARK                         _______ _______ _______ _____ _____    ______ ____
ROOT
ATOM      1  C   UNL     1       2.568   6.902  19.165  0.00  0.00    +0.000 A 
ATOM      2  C   UNL     1       1.961   7.384  20.333  0.00  0.00    +0.000 A 
ATOM      3  C   UNL     1       1.265   8.594  20.309  0.00  0.00    +0.000 A 
ATOM      4  C   UNL     1       1.190   9.333  19.122  0.00  0.00    +0.000 A 
ATOM      5  C   UNL     1       1.831   8.870  17.966  0.00  0.00    +0.000 A 
ATOM      6  C   UNL     1       2.516   7.653  17.987  0.00  0.00    +0.000 A 
ENDROOT
BRANCH   1   7
ATOM      7  S   UNL     1       3.297   5.259  19.131  0.00  0.00    +0.000 S 
ATOM      8  O   UNL     1       2.767   4.458  20.329  0.00  0.00    +0.000 OA
ATOM      9  O   UNL     1       4.764   5.401  19.564  0.00  0.00    +0.000 OA
BRANCH   7  10
ATOM     10  C   UNL     1       3.257   4.200  17.635  0.00  0.00    +0.000 C 
BRANCH  10  11
ATOM     11  C   UNL     1       4.420   4.490  16.669  0.00  0.00    +0.000 C 
BRANCH  11  12
ATOM     12  N   UNL     1       5.653   3.829  17.107  0.00  0.00    +0.000 NA
ATOM     13  H   UNL     1       5.624   3.686  18.131  0.00  0.00    +0.000 HD
BRANCH  12  15
ATOM     14  C   UNL     1       6.921   6.630  17.330  0.00  0.00    +0.000 C 
ATOM     15  S   UNL     1       7.055   4.881  16.863  0.00  0.00    +0.000 S 
ATOM     16  O   UNL     1       7.515   4.635  15.419  0.00  0.00    +0.000 OA
ATOM     17  O   UNL     1       8.169   4.182  17.659  0.00  0.00    +0.000 OA
ENDBRANCH  12  15
ENDBRANCH  11  12
ENDBRANCH  10  11
ENDBRANCH   7  10
ENDBRANCH   1   7
BRANCH   4  18
ATOM     18  S   UNL     1       0.180  10.806  19.032  0.00  0.00    +0.000 S 
ATOM     19  O   UNL     1      -0.889  10.637  17.943  0.00  0.00    +0.000 OA
ATOM     20  O   UNL     1      -0.712  10.881  20.280  0.00  0.00    +0.000 OA
BRANCH  18  21
ATOM     21  C   UNL     1       1.002  12.376  18.812  0.00  0.00    +0.000 A 
ATOM     22  C   UNL     1       2.245  12.566  18.226  0.00  0.00    +0.000 A 
ATOM     23  C   UNL     1       2.677  13.896  18.285  0.00  0.00    +0.000 A 
ATOM     24  C   UNL     1       1.772  14.735  18.927  0.00  0.00    +0.000 A 
ATOM     25  S   UNL     1       0.432  13.839  19.412  0.00  0.00    +0.000 S 
BRANCH  24  26
ATOM     26  C   UNL     1       1.961  16.200  19.177  0.00  0.00    +0.000 C 
BRANCH  26  27
ATOM     27  N   UNL     1       1.654  16.953  17.964  0.00  0.00    +0.000 NA
ATOM     28  H   UNL     1       1.148  16.330  17.294  0.00  0.00    +0.000 HD
ATOM     29  H   UNL     1       2.554  17.239  17.516  0.00  0.00    +0.000 HD
ENDBRANCH  26  27
ENDBRANCH  24  26
ENDBRANCH  18  21
ENDBRANCH   4  18
TORSDOF 9
ENDMDL
MODEL 9
REMARK VINA RESULT:      -6.9      1.474      1.765
REMARK  Name = 
REMARK  10 active torsions:
REMARK  status: ('A' for Active; 'I' for Inactive)
REMARK    1  A    between atoms: C_1  and  S_2
REMARK    2  A    between atoms: S_2  and  N_5
REMARK    3  A    between atoms: N_5  and  C_6
REMARK    4  A    between atoms: C_6  and  C_7
REMARK    5  A    between atoms: C_7  and  S_8
REMARK    6  A    between atoms: S_8  and  C_11
REMARK    7  A    between atoms: C_14  and  S_15
REMARK    8  A    between atoms: S_15  and  C_18
REMARK    9  A    between atoms: C_21  and  C_22
REMARK   10  A    between atoms: C_22  and  N_23
REMARK                            x       y       z     vdW  Elec       q    Type
REMARK                         _______ _______ _______ _____ _____    ______ ____
ROOT
ATOM      1  C   UNL     1       2.400   6.826  18.830  0.00  0.00    +0.000 A 
ATOM      2  C   UNL     1       1.966   7.027  20.147  0.00  0.00    +0.000 A 
ATOM      3  C   UNL     1       1.469   8.273  20.535  0.00  0.00    +0.000 A 
ATOM      4  C   UNL     1       1.421   9.324  19.611  0.00  0.00    +0.000 A 
ATOM      5  C   UNL     1       1.892   9.133  18.307  0.00  0.00    +0.000 A 
ATOM      6  C   UNL     1       2.377   7.883  17.915  0.00  0.00    +0.000 A 
ENDROOT
BRANCH   1   7
ATOM      7  S   UNL     1       2.858   5.182  18.264  0.00  0.00    +0.000 S 
ATOM      8  O   UNL     1       3.658   5.312  16.960  0.00  0.00    +0.000 OA
ATOM      9  O   UNL     1       1.589   4.521  17.705  0.00  0.00    +0.000 OA
BRANCH   7  10
ATOM     10  C   UNL     1       3.684   3.964  19.358  0.00  0.00    +0.000 C 
BRANCH  10  11
ATOM     11  C   UNL     1       5.201   4.203  19.475  0.00  0.00    +0.000 C 
BRANCH  11  12
ATOM     12  N   UNL     1       5.892   3.858  18.230  0.00  0.00    +0.000 NA
ATOM     13  H   UNL     1       6.380   2.953  18.345  0.00  0.00    +0.000 HD
BRANCH  12  15
ATOM     14  C   UNL     1       7.943   5.905  19.280  0.00  0.00    +0.000 C 
ATOM     15  S   UNL     1       7.196   5.005  17.892  0.00  0.00    +0.000 S 
ATOM     16  O   UNL     1       6.683   5.895  16.751  0.00  0.00    +0.000 OA
ATOM     17  O   UNL     1       8.244   4.149  17.162  0.00  0.00    +0.000 OA
ENDBRANCH  12  15
ENDBRANCH  11  12
ENDBRANCH  10  11
ENDBRANCH   7  10
ENDBRANCH   1   7
BRANCH   4  18
ATOM     18  S   UNL     1       0.651  10.878  20.044  0.00  0.00    +0.000 S 
ATOM     19  O   UNL     1       0.570  11.009  21.572  0.00  0.00    +0.000 OA
ATOM     20  O   UNL     1       1.620  12.026  19.725  0.00  0.00    +0.000 OA
BRANCH  18  21
ATOM     21  C   UNL     1      -0.945  11.253  19.334  0.00  0.00    +0.000 A 
ATOM     22  C   UNL     1      -1.933  12.025  19.925  0.00  0.00    +0.000 A 
ATOM     23  C   UNL     1      -3.116  12.060  19.177  0.00  0.00    +0.000 A 
ATOM     24  C   UNL     1      -3.046  11.305  18.011  0.00  0.00    +0.000 A 
ATOM     25  S   UNL     1      -1.520  10.604  17.894  0.00  0.00    +0.000 S 
BRANCH  24  26
ATOM     26  C   UNL     1      -4.153  11.118  17.021  0.00  0.00    +0.000 C 
BRANCH  26  27
ATOM     27  N   UNL     1      -4.965  12.330  16.950  0.00  0.00    +0.000 NA
ATOM     28  H   UNL     1      -5.931  12.114  17.287  0.00  0.00    +0.000 HD
ATOM     29  H   UNL     1      -5.036  12.623  15.949  0.00  0.00    +0.000 HD
ENDBRANCH  26  27
ENDBRANCH  24  26
ENDBRANCH  18  21
ENDBRANCH   4  18
TORSDOF 9
ENDMDL
