MODEL 1
REMARK VINA RESULT:      -6.5      0.000      0.000
REMARK  Name = 
REMARK  6 active torsions:
REMARK  status: ('A' for Active; 'I' for Inactive)
REMARK    1  A    between atoms: C_1  and  C_2
REMARK    2  A    between atoms: N_4  and  C_5
REMARK    3  A    between atoms: N_6  and  S_7
REMARK    4  A    between atoms: S_7  and  N_10
REMARK    5  A    between atoms: C_18  and  C_19
REMARK    6  A    between atoms: C_25  and  C_26
REMARK                            x       y       z     vdW  Elec       q    Type
REMARK                         _______ _______ _______ _____ _____    ______ ____
ROOT
ATOM      1  C   UNL     1      -0.474  11.603  20.058  0.00  0.00    +0.000 C 
ATOM      2  N   UNL     1      -1.391  11.509  20.961  0.00  0.00    +0.000 NA
ATOM      3  N   UNL     1       0.591  12.508  20.031  0.00  0.00    +0.000 N 
ATOM      4  C   UNL     1       1.196  13.016  18.806  0.00  0.00    +0.000 C 
ATOM      5  C   UNL     1       2.005  14.250  19.262  0.00  0.00    +0.000 C 
ATOM      6  C   UNL     1       1.863  14.093  20.757  0.00  0.00    +0.000 C 
ATOM      7  N   UNL     1       1.117  13.107  21.136  0.00  0.00    +0.000 NA
ENDROOT
BRANCH   6   8
ATOM      8  C   UNL     1       2.477  15.012  21.741  0.00  0.00    +0.000 A 
ATOM      9  C   UNL     1       1.663  16.003  22.314  0.00  0.00    +0.000 A 
ATOM     10  C   UNL     1       2.199  16.929  23.210  0.00  0.00    +0.000 A 
ATOM     11  C   UNL     1       3.547  16.854  23.545  0.00  0.00    +0.000 A 
ATOM     12 CL   UNL     1       4.219  18.002  24.637  0.00  0.00    +0.000 Cl
ATOM     13  C   UNL     1       4.361  15.863  22.994  0.00  0.00    +0.000 A 
ATOM     14  C   UNL     1       3.827  14.939  22.087  0.00  0.00    +0.000 A 
ENDBRANCH   6   8
BRANCH   1  18
ATOM     15  C   UNL     1      -2.531  11.678  17.880  0.00  0.00    +0.000 C 
ATOM     16  C   UNL     1      -1.392  10.697  18.059  0.00  0.00    +0.000 C 
ATOM     17  N   UNL     1      -1.270   9.739  17.085  0.00  0.00    +0.000 N 
ATOM     18  N   UNL     1      -0.513  10.685  19.021  0.00  0.00    +0.000 NA
ATOM     19  H   UNL     1      -2.097   9.490  16.558  0.00  0.00    +0.000 HD
ATOM     20  H   UNL     1      -0.691   8.950  17.355  0.00  0.00    +0.000 HD
ENDBRANCH   1  18
BRANCH   5  21
ATOM     21  C   UNL     1       1.467  15.559  18.717  0.00  0.00    +0.000 A 
ATOM     22  C   UNL     1       0.102  15.877  18.779  0.00  0.00    +0.000 A 
ATOM     23  C   UNL     1      -0.387  17.053  18.205  0.00  0.00    +0.000 A 
ATOM     24  C   UNL     1       0.483  17.933  17.568  0.00  0.00    +0.000 A 
ATOM     25  C   UNL     1       1.844  17.645  17.519  0.00  0.00    +0.000 A 
ATOM     26  C   UNL     1       2.335  16.468  18.091  0.00  0.00    +0.000 A 
ENDBRANCH   5  21
BRANCH   2  27
ATOM     27  S   UNL     1      -1.590  12.676  22.059  0.00  0.00    +0.000 S 
ATOM     28  O   UNL     1      -0.735  12.471  23.210  0.00  0.00    +0.000 OA
ATOM     29  O   UNL     1      -1.647  13.964  21.387  0.00  0.00    +0.000 OA
BRANCH  27  30
ATOM     30  N   UNL     1      -3.185  12.474  22.672  0.00  0.00    +0.000 NA
ATOM     31  C   UNL     1      -3.314  12.803  24.114  0.00  0.00    +0.000 C 
ATOM     32  C   UNL     1      -4.695  12.381  24.608  0.00  0.00    +0.000 C 
ATOM     33  C   UNL     1      -5.801  13.035  23.782  0.00  0.00    +0.000 C 
ATOM     34  C   UNL     1      -5.601  12.741  22.299  0.00  0.00    +0.000 C 
ATOM     35  C   UNL     1      -4.210  13.167  21.841  0.00  0.00    +0.000 C 
ENDBRANCH  27  30
ENDBRANCH   2  27
TORSDOF 5
ENDMDL
MODEL 2
REMARK VINA RESULT:      -6.5      0.645      1.085
REMARK  Name = 
REMARK  6 active torsions:
REMARK  status: ('A' for Active; 'I' for Inactive)
REMARK    1  A    between atoms: C_1  and  C_2
REMARK    2  A    between atoms: N_4  and  C_5
REMARK    3  A    between atoms: N_6  and  S_7
REMARK    4  A    between atoms: S_7  and  N_10
REMARK    5  A    between atoms: C_18  and  C_19
REMARK    6  A    between atoms: C_25  and  C_26
REMARK                            x       y       z     vdW  Elec       q    Type
REMARK                         _______ _______ _______ _____ _____    ______ ____
ROOT
ATOM      1  C   UNL     1      -0.273  11.386  19.862  0.00  0.00    +0.000 C 
ATOM      2  N   UNL     1      -1.199  11.397  20.761  0.00  0.00    +0.000 NA
ATOM      3  N   UNL     1       0.889  12.163  19.838  0.00  0.00    +0.000 N 
ATOM      4  C   UNL     1       1.553  12.598  18.616  0.00  0.00    +0.000 C 
ATOM      5  C   UNL     1       2.495  13.732  19.076  0.00  0.00    +0.000 C 
ATOM      6  C   UNL     1       2.331  13.593  20.570  0.00  0.00    +0.000 C 
ATOM      7  N   UNL     1       1.475  12.699  20.946  0.00  0.00    +0.000 NA
ENDROOT
BRANCH   6   8
ATOM      8  C   UNL     1       3.041  14.436  21.556  0.00  0.00    +0.000 A 
ATOM      9  C   UNL     1       2.356  15.536  22.097  0.00  0.00    +0.000 A 
ATOM     10  C   UNL     1       2.993  16.396  22.993  0.00  0.00    +0.000 A 
ATOM     11  C   UNL     1       4.311  16.146  23.362  0.00  0.00    +0.000 A 
ATOM     12 CL   UNL     1       5.108  17.209  24.454  0.00  0.00    +0.000 Cl
ATOM     13  C   UNL     1       4.995  15.045  22.843  0.00  0.00    +0.000 A 
ATOM     14  C   UNL     1       4.361  14.187  21.935  0.00  0.00    +0.000 A 
ENDBRANCH   6   8
BRANCH   1  18
ATOM     15  C   UNL     1      -2.347  11.655  17.716  0.00  0.00    +0.000 C 
ATOM     16  C   UNL     1      -1.301  10.573  17.876  0.00  0.00    +0.000 C 
ATOM     17  N   UNL     1      -1.282   9.610  16.899  0.00  0.00    +0.000 N 
ATOM     18  N   UNL     1      -0.413  10.478  18.825  0.00  0.00    +0.000 NA
ATOM     19  H   UNL     1      -2.137   9.439  16.385  0.00  0.00    +0.000 HD
ATOM     20  H   UNL     1      -0.775   8.770  17.160  0.00  0.00    +0.000 HD
ENDBRANCH   1  18
BRANCH   5  21
ATOM     21  C   UNL     1       2.112  15.094  18.528  0.00  0.00    +0.000 A 
ATOM     22  C   UNL     1       3.019  15.873  17.795  0.00  0.00    +0.000 A 
ATOM     23  C   UNL     1       2.677  17.156  17.362  0.00  0.00    +0.000 A 
ATOM     24  C   UNL     1       1.418  17.676  17.649  0.00  0.00    +0.000 A 
ATOM     25  C   UNL     1       0.496  16.906  18.355  0.00  0.00    +0.000 A 
ATOM     26  C   UNL     1       0.839  15.623  18.790  0.00  0.00    +0.000 A 
ENDBRANCH   5  21
BRANCH   2  27
ATOM     27  S   UNL     1      -1.267  12.580  21.859  0.00  0.00    +0.000 S 
ATOM     28  O   UNL     1      -0.407  12.302  22.990  0.00  0.00    +0.000 OA
ATOM     29  O   UNL     1      -1.224  13.866  21.182  0.00  0.00    +0.000 OA
BRANCH  27  30
ATOM     30  N   UNL     1      -2.859  12.522  22.508  0.00  0.00    +0.000 NA
ATOM     31  C   UNL     1      -2.947  13.004  23.910  0.00  0.00    +0.000 C 
ATOM     32  C   UNL     1      -4.339  12.705  24.461  0.00  0.00    +0.000 C 
ATOM     33  C   UNL     1      -5.425  13.325  23.585  0.00  0.00    +0.000 C 
ATOM     34  C   UNL     1      -5.265  12.871  22.139  0.00  0.00    +0.000 C 
ATOM     35  C   UNL     1      -3.863  13.177  21.622  0.00  0.00    +0.000 C 
ENDBRANCH  27  30
ENDBRANCH   2  27
TORSDOF 5
ENDMDL
MODEL 3
REMARK VINA RESULT:      -6.3      0.825      1.730
REMARK  Name = 
REMARK  6 active torsions:
REMARK  status: ('A' for Active; 'I' for Inactive)
REMARK    1  A    between atoms: C_1  and  C_2
REMARK    2  A    between atoms: N_4  and  C_5
REMARK    3  A    between atoms: N_6  and  S_7
REMARK    4  A    between atoms: S_7  and  N_10
REMARK    5  A    between atoms: C_18  and  C_19
REMARK    6  A    between atoms: C_25  and  C_26
REMARK                            x       y       z     vdW  Elec       q    Type
REMARK                         _______ _______ _______ _____ _____    ______ ____
ROOT
ATOM      1  C   UNL     1      -0.333  11.644  20.228  0.00  0.00    +0.000 C 
ATOM      2  N   UNL     1      -1.257  11.835  21.109  0.00  0.00    +0.000 NA
ATOM      3  N   UNL     1       0.895  12.306  20.137  0.00  0.00    +0.000 N 
ATOM      4  C   UNL     1       1.599  12.547  18.885  0.00  0.00    +0.000 C 
ATOM      5  C   UNL     1       2.640  13.633  19.234  0.00  0.00    +0.000 C 
ATOM      6  C   UNL     1       2.459  13.668  20.732  0.00  0.00    +0.000 C 
ATOM      7  N   UNL     1       1.524  12.901  21.190  0.00  0.00    +0.000 NA
ENDROOT
BRANCH   6   8
ATOM      8  C   UNL     1       3.241  14.543  21.633  0.00  0.00    +0.000 A 
ATOM      9  C   UNL     1       4.565  14.177  21.922  0.00  0.00    +0.000 A 
ATOM     10  C   UNL     1       5.334  14.936  22.806  0.00  0.00    +0.000 A 
ATOM     11  C   UNL     1       4.783  16.073  23.388  0.00  0.00    +0.000 A 
ATOM     12 CL   UNL     1       5.718  17.005  24.490  0.00  0.00    +0.000 Cl
ATOM     13  C   UNL     1       3.473  16.455  23.094  0.00  0.00    +0.000 A 
ATOM     14  C   UNL     1       2.696  15.689  22.216  0.00  0.00    +0.000 A 
ENDBRANCH   6   8
BRANCH   1  18
ATOM     15  C   UNL     1      -2.226  11.948  17.924  0.00  0.00    +0.000 C 
ATOM     16  C   UNL     1      -1.364  10.755  18.277  0.00  0.00    +0.000 C 
ATOM     17  N   UNL     1      -1.439   9.688  17.417  0.00  0.00    +0.000 N 
ATOM     18  N   UNL     1      -0.552  10.648  19.291  0.00  0.00    +0.000 NA
ATOM     19  H   UNL     1      -2.281   9.582  16.866  0.00  0.00    +0.000 HD
ATOM     20  H   UNL     1      -1.078   8.823  17.803  0.00  0.00    +0.000 HD
ENDBRANCH   1  18
BRANCH   5  21
ATOM     21  C   UNL     1       2.386  14.958  18.541  0.00  0.00    +0.000 A 
ATOM     22  C   UNL     1       3.332  15.530  17.679  0.00  0.00    +0.000 A 
ATOM     23  C   UNL     1       3.114  16.787  17.108  0.00  0.00    +0.000 A 
ATOM     24  C   UNL     1       1.942  17.485  17.384  0.00  0.00    +0.000 A 
ATOM     25  C   UNL     1       0.981  16.921  18.219  0.00  0.00    +0.000 A 
ATOM     26  C   UNL     1       1.199  15.665  18.792  0.00  0.00    +0.000 A 
ENDBRANCH   5  21
BRANCH   2  27
ATOM     27  S   UNL     1      -1.219  13.129  22.075  0.00  0.00    +0.000 S 
ATOM     28  O   UNL     1      -0.424  12.882  23.259  0.00  0.00    +0.000 OA
ATOM     29  O   UNL     1      -1.018  14.323  21.271  0.00  0.00    +0.000 OA
BRANCH  27  30
ATOM     30  N   UNL     1      -2.824  13.313  22.669  0.00  0.00    +0.000 NA
ATOM     31  C   UNL     1      -3.844  13.436  21.598  0.00  0.00    +0.000 C 
ATOM     32  C   UNL     1      -5.186  13.817  22.218  0.00  0.00    +0.000 C 
ATOM     33  C   UNL     1      -5.608  12.809  23.284  0.00  0.00    +0.000 C 
ATOM     34  C   UNL     1      -4.511  12.650  24.330  0.00  0.00    +0.000 C 
ATOM     35  C   UNL     1      -3.184  12.276  23.676  0.00  0.00    +0.000 C 
ENDBRANCH  27  30
ENDBRANCH   2  27
TORSDOF 5
ENDMDL
MODEL 4
REMARK VINA RESULT:      -6.3      3.744      7.437
REMARK  Name = 
REMARK  6 active torsions:
REMARK  status: ('A' for Active; 'I' for Inactive)
REMARK    1  A    between atoms: C_1  and  C_2
REMARK    2  A    between atoms: N_4  and  C_5
REMARK    3  A    between atoms: N_6  and  S_7
REMARK    4  A    between atoms: S_7  and  N_10
REMARK    5  A    between atoms: C_18  and  C_19
REMARK    6  A    between atoms: C_25  and  C_26
REMARK                            x       y       z     vdW  Elec       q    Type
REMARK                         _______ _______ _______ _____ _____    ______ ____
ROOT
ATOM      1  C   UNL     1      -0.010  13.574  21.918  0.00  0.00    +0.000 C 
ATOM      2  N   UNL     1       1.048  14.291  21.742  0.00  0.00    +0.000 NA
ATOM      3  N   UNL     1      -0.243  12.283  21.434  0.00  0.00    +0.000 N 
ATOM      4  C   UNL     1      -1.563  11.766  21.096  0.00  0.00    +0.000 C 
ATOM      5  C   UNL     1      -1.275  10.511  20.243  0.00  0.00    +0.000 C 
ATOM      6  C   UNL     1       0.221  10.431  20.426  0.00  0.00    +0.000 C 
ATOM      7  N   UNL     1       0.741  11.395  21.115  0.00  0.00    +0.000 NA
ENDROOT
BRANCH   6   8
ATOM      8  C   UNL     1       1.066   9.373  19.831  0.00  0.00    +0.000 A 
ATOM      9  C   UNL     1       1.468   9.524  18.494  0.00  0.00    +0.000 A 
ATOM     10  C   UNL     1       2.223   8.533  17.866  0.00  0.00    +0.000 A 
ATOM     11  C   UNL     1       2.590   7.397  18.579  0.00  0.00    +0.000 A 
ATOM     12 CL   UNL     1       3.508   6.164  17.807  0.00  0.00    +0.000 Cl
ATOM     13  C   UNL     1       2.209   7.245  19.914  0.00  0.00    +0.000 A 
ATOM     14  C   UNL     1       1.443   8.233  20.544  0.00  0.00    +0.000 A 
ENDBRANCH   6   8
BRANCH   1  18
ATOM     15  C   UNL     1      -2.095  15.449  20.862  0.00  0.00    +0.000 C 
ATOM     16  C   UNL     1      -1.935  14.926  22.272  0.00  0.00    +0.000 C 
ATOM     17  N   UNL     1      -2.882  15.340  23.175  0.00  0.00    +0.000 N 
ATOM     18  N   UNL     1      -1.014  14.113  22.706  0.00  0.00    +0.000 NA
ATOM     19  H   UNL     1      -3.363  16.211  22.991  0.00  0.00    +0.000 HD
ATOM     20  H   UNL     1      -2.613  15.206  24.144  0.00  0.00    +0.000 HD
ENDBRANCH   1  18
BRANCH   5  21
ATOM     21  C   UNL     1      -1.723  10.647  18.800  0.00  0.00    +0.000 A 
ATOM     22  C   UNL     1      -1.433  11.793  18.045  0.00  0.00    +0.000 A 
ATOM     23  C   UNL     1      -1.917  11.935  16.742  0.00  0.00    +0.000 A 
ATOM     24  C   UNL     1      -2.691  10.928  16.172  0.00  0.00    +0.000 A 
ATOM     25  C   UNL     1      -2.967   9.772  16.899  0.00  0.00    +0.000 A 
ATOM     26  C   UNL     1      -2.485   9.631  18.203  0.00  0.00    +0.000 A 
ENDBRANCH   5  21
BRANCH   2  27
ATOM     27  S   UNL     1       2.154  13.873  20.642  0.00  0.00    +0.000 S 
ATOM     28  O   UNL     1       3.142  12.974  21.200  0.00  0.00    +0.000 OA
ATOM     29  O   UNL     1       1.490  13.572  19.384  0.00  0.00    +0.000 OA
BRANCH  27  30
ATOM     30  N   UNL     1       3.034  15.311  20.295  0.00  0.00    +0.000 NA
ATOM     31  C   UNL     1       4.035  15.660  21.334  0.00  0.00    +0.000 C 
ATOM     32  C   UNL     1       4.595  17.051  21.049  0.00  0.00    +0.000 C 
ATOM     33  C   UNL     1       5.190  17.131  19.645  0.00  0.00    +0.000 C 
ATOM     34  C   UNL     1       4.163  16.696  18.606  0.00  0.00    +0.000 C 
ATOM     35  C   UNL     1       3.619  15.307  18.925  0.00  0.00    +0.000 C 
ENDBRANCH  27  30
ENDBRANCH   2  27
TORSDOF 5
ENDMDL
MODEL 5
REMARK VINA RESULT:      -6.3      3.547      7.390
REMARK  Name = 
REMARK  6 active torsions:
REMARK  status: ('A' for Active; 'I' for Inactive)
REMARK    1  A    between atoms: C_1  and  C_2
REMARK    2  A    between atoms: N_4  and  C_5
REMARK    3  A    between atoms: N_6  and  S_7
REMARK    4  A    between atoms: S_7  and  N_10
REMARK    5  A    between atoms: C_18  and  C_19
REMARK    6  A    between atoms: C_25  and  C_26
REMARK                            x       y       z     vdW  Elec       q    Type
REMARK                         _______ _______ _______ _____ _____    ______ ____
ROOT
ATOM      1  C   UNL     1       0.316  11.805  21.110  0.00  0.00    +0.000 C 
ATOM      2  N   UNL     1       0.900  12.363  20.103  0.00  0.00    +0.000 NA
ATOM      3  N   UNL     1      -0.992  12.023  21.554  0.00  0.00    +0.000 N 
ATOM      4  C   UNL     1      -1.409  11.909  22.945  0.00  0.00    +0.000 C 
ATOM      5  C   UNL     1      -2.775  12.627  22.995  0.00  0.00    +0.000 C 
ATOM      6  C   UNL     1      -2.983  12.855  21.517  0.00  0.00    +0.000 C 
ATOM      7  N   UNL     1      -2.004  12.476  20.761  0.00  0.00    +0.000 NA
ENDROOT
BRANCH   6   8
ATOM      8  C   UNL     1      -4.181  13.509  20.948  0.00  0.00    +0.000 A 
ATOM      9  C   UNL     1      -5.245  12.690  20.535  0.00  0.00    +0.000 A 
ATOM     10  C   UNL     1      -6.380  13.247  19.944  0.00  0.00    +0.000 A 
ATOM     11  C   UNL     1      -6.458  14.626  19.780  0.00  0.00    +0.000 A 
ATOM     12 CL   UNL     1      -7.847  15.319  19.038  0.00  0.00    +0.000 Cl
ATOM     13  C   UNL     1      -5.413  15.450  20.202  0.00  0.00    +0.000 A 
ATOM     14  C   UNL     1      -4.269  14.892  20.786  0.00  0.00    +0.000 A 
ENDBRANCH   6   8
BRANCH   1  18
ATOM     15  C   UNL     1       0.242   8.883  20.450  0.00  0.00    +0.000 C 
ATOM     16  C   UNL     1       1.030   9.577  21.540  0.00  0.00    +0.000 C 
ATOM     17  N   UNL     1       1.834   8.769  22.304  0.00  0.00    +0.000 N 
ATOM     18  N   UNL     1       1.039  10.852  21.808  0.00  0.00    +0.000 NA
ATOM     19  H   UNL     1       1.589   7.790  22.378  0.00  0.00    +0.000 HD
ATOM     20  H   UNL     1       2.134   9.193  23.175  0.00  0.00    +0.000 HD
ENDBRANCH   1  18
BRANCH   5  21
ATOM     21  C   UNL     1      -2.760  13.894  23.828  0.00  0.00    +0.000 A 
ATOM     22  C   UNL     1      -3.947  14.519  24.239  0.00  0.00    +0.000 A 
ATOM     23  C   UNL     1      -3.917  15.726  24.941  0.00  0.00    +0.000 A 
ATOM     24  C   UNL     1      -2.698  16.322  25.251  0.00  0.00    +0.000 A 
ATOM     25  C   UNL     1      -1.509  15.704  24.873  0.00  0.00    +0.000 A 
ATOM     26  C   UNL     1      -1.539  14.497  24.168  0.00  0.00    +0.000 A 
ENDBRANCH   5  21
BRANCH   2  27
ATOM     27  S   UNL     1       0.250  13.657  19.388  0.00  0.00    +0.000 S 
ATOM     28  O   UNL     1      -0.625  13.277  18.299  0.00  0.00    +0.000 OA
ATOM     29  O   UNL     1      -0.184  14.601  20.405  0.00  0.00    +0.000 OA
BRANCH  27  30
ATOM     30  N   UNL     1       1.558  14.472  18.621  0.00  0.00    +0.000 NA
ATOM     31  C   UNL     1       1.470  15.952  18.708  0.00  0.00    +0.000 C 
ATOM     32  C   UNL     1       2.539  16.576  17.817  0.00  0.00    +0.000 C 
ATOM     33  C   UNL     1       3.932  16.073  18.189  0.00  0.00    +0.000 C 
ATOM     34  C   UNL     1       3.972  14.549  18.162  0.00  0.00    +0.000 C 
ATOM     35  C   UNL     1       2.887  13.959  19.057  0.00  0.00    +0.000 C 
ENDBRANCH  27  30
ENDBRANCH   2  27
TORSDOF 5
ENDMDL
MODEL 6
REMARK VINA RESULT:      -6.3      3.643      7.820
REMARK  Name = 
REMARK  6 active torsions:
REMARK  status: ('A' for Active; 'I' for Inactive)
REMARK    1  A    between atoms: C_1  and  C_2
REMARK    2  A    between atoms: N_4  and  C_5
REMARK    3  A    between atoms: N_6  and  S_7
REMARK    4  A    between atoms: S_7  and  N_10
REMARK    5  A    between atoms: C_18  and  C_19
REMARK    6  A    between atoms: C_25  and  C_26
REMARK                            x       y       z     vdW  Elec       q    Type
REMARK                         _______ _______ _______ _____ _____    ______ ____
ROOT
ATOM      1  C   UNL     1      -1.029  12.020  21.944  0.00  0.00    +0.000 C 
ATOM      2  N   UNL     1      -0.136  12.484  21.136  0.00  0.00    +0.000 NA
ATOM      3  N   UNL     1      -2.411  12.218  21.877  0.00  0.00    +0.000 N 
ATOM      4  C   UNL     1      -3.287  12.249  23.041  0.00  0.00    +0.000 C 
ATOM      5  C   UNL     1      -4.591  12.893  22.522  0.00  0.00    +0.000 C 
ATOM      6  C   UNL     1      -4.272  12.931  21.048  0.00  0.00    +0.000 C 
ATOM      7  N   UNL     1      -3.088  12.517  20.732  0.00  0.00    +0.000 NA
ENDROOT
BRANCH   6   8
ATOM      8  C   UNL     1      -5.203  13.445  20.019  0.00  0.00    +0.000 A 
ATOM      9  C   UNL     1      -5.668  12.549  19.044  0.00  0.00    +0.000 A 
ATOM     10  C   UNL     1      -6.508  12.989  18.020  0.00  0.00    +0.000 A 
ATOM     11  C   UNL     1      -6.895  14.325  17.980  0.00  0.00    +0.000 A 
ATOM     12 CL   UNL     1      -7.917  14.879  16.712  0.00  0.00    +0.000 Cl
ATOM     13  C   UNL     1      -6.450  15.221  18.954  0.00  0.00    +0.000 A 
ATOM     14  C   UNL     1      -5.600  14.783  19.977  0.00  0.00    +0.000 A 
ENDBRANCH   6   8
BRANCH   1  18
ATOM     15  C   UNL     1      -0.455   9.102  21.572  0.00  0.00    +0.000 C 
ATOM     16  C   UNL     1      -0.324   9.929  22.833  0.00  0.00    +0.000 C 
ATOM     17  N   UNL     1       0.144   9.263  23.937  0.00  0.00    +0.000 N 
ATOM     18  N   UNL     1      -0.586  11.198  22.968  0.00  0.00    +0.000 NA
ATOM     19  H   UNL     1       0.009   8.261  23.980  0.00  0.00    +0.000 HD
ATOM     20  H   UNL     1      -0.029   9.747  24.812  0.00  0.00    +0.000 HD
ENDBRANCH   1  18
BRANCH   5  21
ATOM     21  C   UNL     1      -4.879  14.250  23.136  0.00  0.00    +0.000 A 
ATOM     22  C   UNL     1      -6.182  14.638  23.483  0.00  0.00    +0.000 A 
ATOM     23  C   UNL     1      -6.441  15.919  23.977  0.00  0.00    +0.000 A 
ATOM     24  C   UNL     1      -5.399  16.828  24.139  0.00  0.00    +0.000 A 
ATOM     25  C   UNL     1      -4.096  16.450  23.823  0.00  0.00    +0.000 A 
ATOM     26  C   UNL     1      -3.837  15.170  23.327  0.00  0.00    +0.000 A 
ENDBRANCH   5  21
BRANCH   2  27
ATOM     27  S   UNL     1      -0.507  13.647  20.078  0.00  0.00    +0.000 S 
ATOM     28  O   UNL     1      -1.101  13.099  18.877  0.00  0.00    +0.000 OA
ATOM     29  O   UNL     1      -1.127  14.758  20.782  0.00  0.00    +0.000 OA
BRANCH  27  30
ATOM     30  N   UNL     1       0.997  14.297  19.553  0.00  0.00    +0.000 NA
ATOM     31  C   UNL     1       1.602  13.555  18.418  0.00  0.00    +0.000 C 
ATOM     32  C   UNL     1       3.020  14.065  18.178  0.00  0.00    +0.000 C 
ATOM     33  C   UNL     1       3.031  15.572  17.934  0.00  0.00    +0.000 C 
ATOM     34  C   UNL     1       2.340  16.302  19.079  0.00  0.00    +0.000 C 
ATOM     35  C   UNL     1       0.929  15.763  19.297  0.00  0.00    +0.000 C 
ENDBRANCH  27  30
ENDBRANCH   2  27
TORSDOF 5
ENDMDL
MODEL 7
REMARK VINA RESULT:      -6.3      3.738      7.271
REMARK  Name = 
REMARK  6 active torsions:
REMARK  status: ('A' for Active; 'I' for Inactive)
REMARK    1  A    between atoms: C_1  and  C_2
REMARK    2  A    between atoms: N_4  and  C_5
REMARK    3  A    between atoms: N_6  and  S_7
REMARK    4  A    between atoms: S_7  and  N_10
REMARK    5  A    between atoms: C_18  and  C_19
REMARK    6  A    between atoms: C_25  and  C_26
REMARK                            x       y       z     vdW  Elec       q    Type
REMARK                         _______ _______ _______ _____ _____    ______ ____
ROOT
ATOM      1  C   UNL     1       1.833  14.428  19.134  0.00  0.00    +0.000 C 
ATOM      2  N   UNL     1       1.432  15.545  19.641  0.00  0.00    +0.000 NA
ATOM      3  N   UNL     1       1.057  13.296  18.866  0.00  0.00    +0.000 N 
ATOM      4  C   UNL     1       1.567  11.932  18.906  0.00  0.00    +0.000 C 
ATOM      5  C   UNL     1       0.299  11.052  18.960  0.00  0.00    +0.000 C 
ATOM      6  C   UNL     1      -0.746  12.117  18.732  0.00  0.00    +0.000 C 
ATOM      7  N   UNL     1      -0.288  13.324  18.647  0.00  0.00    +0.000 NA
ENDROOT
BRANCH   6   8
ATOM      8  C   UNL     1      -2.197  11.842  18.660  0.00  0.00    +0.000 A 
ATOM      9  C   UNL     1      -2.650  10.948  17.677  0.00  0.00    +0.000 A 
ATOM     10  C   UNL     1      -4.013  10.689  17.528  0.00  0.00    +0.000 A 
ATOM     11  C   UNL     1      -4.924  11.314  18.374  0.00  0.00    +0.000 A 
ATOM     12 CL   UNL     1      -6.607  11.012  18.188  0.00  0.00    +0.000 Cl
ATOM     13  C   UNL     1      -4.483  12.192  19.365  0.00  0.00    +0.000 A 
ATOM     14  C   UNL     1      -3.116  12.461  19.510  0.00  0.00    +0.000 A 
ENDBRANCH   6   8
BRANCH   1  18
ATOM     15  C   UNL     1       3.054  16.114  16.978  0.00  0.00    +0.000 C 
ATOM     16  C   UNL     1       3.726  15.068  17.842  0.00  0.00    +0.000 C 
ATOM     17  N   UNL     1       5.069  14.891  17.629  0.00  0.00    +0.000 N 
ATOM     18  N   UNL     1       3.168  14.344  18.771  0.00  0.00    +0.000 NA
ATOM     19  H   UNL     1       5.443  15.139  16.723  0.00  0.00    +0.000 HD
ATOM     20  H   UNL     1       5.434  14.024  18.010  0.00  0.00    +0.000 HD
ENDBRANCH   1  18
BRANCH   5  21
ATOM     21  C   UNL     1       0.145  10.294  20.265  0.00  0.00    +0.000 A 
ATOM     22  C   UNL     1      -0.528  10.849  21.363  0.00  0.00    +0.000 A 
ATOM     23  C   UNL     1      -0.595  10.169  22.582  0.00  0.00    +0.000 A 
ATOM     24  C   UNL     1       0.003   8.919  22.717  0.00  0.00    +0.000 A 
ATOM     25  C   UNL     1       0.655   8.343  21.630  0.00  0.00    +0.000 A 
ATOM     26  C   UNL     1       0.724   9.024  20.411  0.00  0.00    +0.000 A 
ENDBRANCH   5  21
BRANCH   2  27
ATOM     27  S   UNL     1      -0.024  15.660  20.331  0.00  0.00    +0.000 S 
ATOM     28  O   UNL     1      -1.031  16.072  19.376  0.00  0.00    +0.000 OA
ATOM     29  O   UNL     1      -0.237  14.513  21.199  0.00  0.00    +0.000 OA
BRANCH  27  30
ATOM     30  N   UNL     1       0.085  16.979  21.431  0.00  0.00    +0.000 NA
ATOM     31  C   UNL     1      -1.203  17.307  22.094  0.00  0.00    +0.000 C 
ATOM     32  C   UNL     1      -1.054  18.614  22.868  0.00  0.00    +0.000 C 
ATOM     33  C   UNL     1       0.091  18.534  23.875  0.00  0.00    +0.000 C 
ATOM     34  C   UNL     1       1.383  18.123  23.178  0.00  0.00    +0.000 C 
ATOM     35  C   UNL     1       1.198  16.819  22.409  0.00  0.00    +0.000 C 
ENDBRANCH  27  30
ENDBRANCH   2  27
TORSDOF 5
ENDMDL
MODEL 8
REMARK VINA RESULT:      -6.3      3.797      7.432
REMARK  Name = 
REMARK  6 active torsions:
REMARK  status: ('A' for Active; 'I' for Inactive)
REMARK    1  A    between atoms: C_1  and  C_2
REMARK    2  A    between atoms: N_4  and  C_5
REMARK    3  A    between atoms: N_6  and  S_7
REMARK    4  A    between atoms: S_7  and  N_10
REMARK    5  A    between atoms: C_18  and  C_19
REMARK    6  A    between atoms: C_25  and  C_26
REMARK                            x       y       z     vdW  Elec       q    Type
REMARK                         _______ _______ _______ _____ _____    ______ ____
ROOT
ATOM      1  C   UNL     1      -0.023  13.767  21.628  0.00  0.00    +0.000 C 
ATOM      2  N   UNL     1       0.996  14.512  21.357  0.00  0.00    +0.000 NA
ATOM      3  N   UNL     1      -0.249  12.458  21.192  0.00  0.00    +0.000 N 
ATOM      4  C   UNL     1      -1.573  11.893  20.967  0.00  0.00    +0.000 C 
ATOM      5  C   UNL     1      -1.309  10.626  20.123  0.00  0.00    +0.000 C 
ATOM      6  C   UNL     1       0.198  10.597  20.196  0.00  0.00    +0.000 C 
ATOM      7  N   UNL     1       0.736  11.593  20.822  0.00  0.00    +0.000 NA
ENDROOT
BRANCH   6   8
ATOM      8  C   UNL     1       1.030   9.550  19.564  0.00  0.00    +0.000 A 
ATOM      9  C   UNL     1       1.357   8.417  20.328  0.00  0.00    +0.000 A 
ATOM     10  C   UNL     1       2.181   7.422  19.802  0.00  0.00    +0.000 A 
ATOM     11  C   UNL     1       2.666   7.550  18.504  0.00  0.00    +0.000 A 
ATOM     12 CL   UNL     1       3.695   6.334  17.854  0.00  0.00    +0.000 Cl
ATOM     13  C   UNL     1       2.334   8.664  17.731  0.00  0.00    +0.000 A 
ATOM     14  C   UNL     1       1.516   9.669  18.261  0.00  0.00    +0.000 A 
ENDBRANCH   6   8
BRANCH   1  18
ATOM     15  C   UNL     1      -2.156  15.663  20.713  0.00  0.00    +0.000 C 
ATOM     16  C   UNL     1      -1.924  15.116  22.105  0.00  0.00    +0.000 C 
ATOM     17  N   UNL     1      -2.821  15.518  23.062  0.00  0.00    +0.000 N 
ATOM     18  N   UNL     1      -0.982  14.295  22.476  0.00  0.00    +0.000 NA
ATOM     19  H   UNL     1      -3.308  16.393  22.918  0.00  0.00    +0.000 HD
ATOM     20  H   UNL     1      -2.501  15.368  24.013  0.00  0.00    +0.000 HD
ENDBRANCH   1  18
BRANCH   5  21
ATOM     21  C   UNL     1      -1.867  10.711  18.715  0.00  0.00    +0.000 A 
ATOM     22  C   UNL     1      -2.605   9.661  18.152  0.00  0.00    +0.000 A 
ATOM     23  C   UNL     1      -3.047   9.724  16.828  0.00  0.00    +0.000 A 
ATOM     24  C   UNL     1      -2.765  10.844  16.051  0.00  0.00    +0.000 A 
ATOM     25  C   UNL     1      -2.054  11.907  16.602  0.00  0.00    +0.000 A 
ATOM     26  C   UNL     1      -1.609  11.843  17.926  0.00  0.00    +0.000 A 
ENDBRANCH   5  21
BRANCH   2  27
ATOM     27  S   UNL     1       2.030  14.100  20.187  0.00  0.00    +0.000 S 
ATOM     28  O   UNL     1       2.976  13.105  20.644  0.00  0.00    +0.000 OA
ATOM     29  O   UNL     1       1.301  13.926  18.941  0.00  0.00    +0.000 OA
BRANCH  27  30
ATOM     30  N   UNL     1       2.988  15.500  19.897  0.00  0.00    +0.000 NA
ATOM     31  C   UNL     1       3.355  16.235  21.134  0.00  0.00    +0.000 C 
ATOM     32  C   UNL     1       4.004  17.565  20.758  0.00  0.00    +0.000 C 
ATOM     33  C   UNL     1       5.213  17.353  19.851  0.00  0.00    +0.000 C 
ATOM     34  C   UNL     1       4.823  16.532  18.627  0.00  0.00    +0.000 C 
ATOM     35  C   UNL     1       4.172  15.215  19.038  0.00  0.00    +0.000 C 
ENDBRANCH  27  30
ENDBRANCH   2  27
TORSDOF 5
ENDMDL
MODEL 9
REMARK VINA RESULT:      -6.2      3.696      7.493
REMARK  Name = 
REMARK  6 active torsions:
REMARK  status: ('A' for Active; 'I' for Inactive)
REMARK    1  A    between atoms: C_1  and  C_2
REMARK    2  A    between atoms: N_4  and  C_5
REMARK    3  A    between atoms: N_6  and  S_7
REMARK    4  A    between atoms: S_7  and  N_10
REMARK    5  A    between atoms: C_18  and  C_19
REMARK    6  A    between atoms: C_25  and  C_26
REMARK                            x       y       z     vdW  Elec       q    Type
REMARK                         _______ _______ _______ _____ _____    ______ ____
ROOT
ATOM      1  C   UNL     1      -0.609  14.324  20.918  0.00  0.00    +0.000 C 
ATOM      2  N   UNL     1       0.488  14.965  20.689  0.00  0.00    +0.000 NA
ATOM      3  N   UNL     1      -0.848  12.962  20.716  0.00  0.00    +0.000 N 
ATOM      4  C   UNL     1      -2.151  12.405  20.378  0.00  0.00    +0.000 C 
ATOM      5  C   UNL     1      -1.837  10.984  19.860  0.00  0.00    +0.000 C 
ATOM      6  C   UNL     1      -0.368  10.922  20.201  0.00  0.00    +0.000 C 
ATOM      7  N   UNL     1       0.125  12.008  20.703  0.00  0.00    +0.000 NA
ENDROOT
BRANCH   6   8
ATOM      8  C   UNL     1       0.485   9.741  19.944  0.00  0.00    +0.000 A 
ATOM      9  C   UNL     1       0.652   8.810  20.982  0.00  0.00    +0.000 A 
ATOM     10  C   UNL     1       1.486   7.704  20.814  0.00  0.00    +0.000 A 
ATOM     11  C   UNL     1       2.141   7.519  19.601  0.00  0.00    +0.000 A 
ATOM     12 CL   UNL     1       3.183   6.166  19.392  0.00  0.00    +0.000 Cl
ATOM     13  C   UNL     1       1.968   8.429  18.557  0.00  0.00    +0.000 A 
ATOM     14  C   UNL     1       1.140   9.546  18.727  0.00  0.00    +0.000 A 
ENDBRANCH   6   8
BRANCH   1  18
ATOM     15  C   UNL     1      -1.214  14.372  23.853  0.00  0.00    +0.000 C 
ATOM     16  C   UNL     1      -1.940  15.090  22.736  0.00  0.00    +0.000 C 
ATOM     17  N   UNL     1      -2.990  15.885  23.119  0.00  0.00    +0.000 N 
ATOM     18  N   UNL     1      -1.658  15.047  21.464  0.00  0.00    +0.000 NA
ATOM     19  H   UNL     1      -3.455  15.668  23.991  0.00  0.00    +0.000 HD
ATOM     20  H   UNL     1      -3.617  16.132  22.361  0.00  0.00    +0.000 HD
ENDBRANCH   1  18
BRANCH   5  21
ATOM     21  C   UNL     1      -2.147  10.796  18.388  0.00  0.00    +0.000 A 
ATOM     22  C   UNL     1      -1.940  11.823  17.455  0.00  0.00    +0.000 A 
ATOM     23  C   UNL     1      -2.301  11.659  16.116  0.00  0.00    +0.000 A 
ATOM     24  C   UNL     1      -2.867  10.462  15.687  0.00  0.00    +0.000 A 
ATOM     25  C   UNL     1      -3.057   9.422  16.595  0.00  0.00    +0.000 A 
ATOM     26  C   UNL     1      -2.698   9.586  17.935  0.00  0.00    +0.000 A 
ENDBRANCH   5  21
BRANCH   2  27
ATOM     27  S   UNL     1       1.671  14.287  19.823  0.00  0.00    +0.000 S 
ATOM     28  O   UNL     1       2.392  13.298  20.595  0.00  0.00    +0.000 OA
ATOM     29  O   UNL     1       1.178  13.985  18.489  0.00  0.00    +0.000 OA
BRANCH  27  30
ATOM     30  N   UNL     1       2.822  15.537  19.549  0.00  0.00    +0.000 NA
ATOM     31  C   UNL     1       3.082  16.378  20.745  0.00  0.00    +0.000 C 
ATOM     32  C   UNL     1       3.935  17.578  20.343  0.00  0.00    +0.000 C 
ATOM     33  C   UNL     1       5.234  17.136  19.675  0.00  0.00    +0.000 C 
ATOM     34  C   UNL     1       4.939  16.215  18.496  0.00  0.00    +0.000 C 
ATOM     35  C   UNL     1       4.080  15.031  18.930  0.00  0.00    +0.000 C 
ENDBRANCH  27  30
ENDBRANCH   2  27
TORSDOF 5
ENDMDL
