MODEL 1
REMARK VINA RESULT:      -7.0      0.000      0.000
REMARK  Name = 
REMARK  5 active torsions:
REMARK  status: ('A' for Active; 'I' for Inactive)
REMARK    1  A    between atoms: C_2  and  O_3
REMARK    2  A    between atoms: C_2  and  C_11
REMARK    3  A    between atoms: O_3  and  C_4
REMARK    4  A    between atoms: C_4  and  C_5
REMARK    5  A    between atoms: C_14  and  C_15
REMARK                            x       y       z     vdW  Elec       q    Type
REMARK                         _______ _______ _______ _____ _____    ______ ____
ROOT
ATOM      1  C   UNL     1       5.450   5.479  16.876  0.00  0.00    +0.000 C 
ATOM      2  C   UNL     1       5.718   5.256  18.349  0.00  0.00    +0.000 C 
ATOM      3  O   UNL     1       4.605   5.851  19.009  0.00  0.00    +0.000 OA
ATOM      4  C   UNL     1       4.003   6.604  18.059  0.00  0.00    +0.000 C 
ATOM      5  N   UNL     1       4.405   6.526  16.831  0.00  0.00    +0.000 NA
ENDROOT
BRANCH   4   6
ATOM      6  C   UNL     1       2.940   7.479  18.558  0.00  0.00    +0.000 A 
ATOM      7  C   UNL     1       2.347   7.315  19.810  0.00  0.00    +0.000 A 
ATOM      8  C   UNL     1       1.346   8.201  20.213  0.00  0.00    +0.000 A 
ATOM      9  C   UNL     1       0.980   9.225  19.349  0.00  0.00    +0.000 A 
ATOM     10 BR   UNL     1      -0.353  10.456  19.898  0.00  0.00    +0.000 Br
ATOM     11  N   UNL     1       1.532   9.404  18.129  0.00  0.00    +0.000 NA
ATOM     12  C   UNL     1       2.497   8.525  17.759  0.00  0.00    +0.000 A 
ENDBRANCH   4   6
BRANCH   1  14
ATOM     13  O   UNL     1       5.119   4.013  14.996  0.00  0.00    +0.000 OA
ATOM     14  C   UNL     1       5.020   4.178  16.208  0.00  0.00    +0.000 C 
BRANCH  14  15
ATOM     15  O   UNL     1       4.493   3.270  17.072  0.00  0.00    +0.000 OA
BRANCH  15  16
ATOM     16  C   UNL     1       3.058   3.206  17.136  0.00  0.00    +0.000 C 
BRANCH  16  17
ATOM     17  C   UNL     1       2.548   3.204  18.560  0.00  0.00    +0.000 A 
ATOM     18  C   UNL     1       3.292   2.652  19.611  0.00  0.00    +0.000 A 
ATOM     19  C   UNL     1       2.822   2.719  20.926  0.00  0.00    +0.000 A 
ATOM     20  C   UNL     1       1.610   3.348  21.207  0.00  0.00    +0.000 A 
ATOM     21  C   UNL     1       0.869   3.915  20.174  0.00  0.00    +0.000 A 
ATOM     22  C   UNL     1       1.336   3.848  18.860  0.00  0.00    +0.000 A 
ENDBRANCH  16  17
ENDBRANCH  15  16
ENDBRANCH  14  15
ENDBRANCH   1  14
TORSDOF 5
ENDMDL
MODEL 2
REMARK VINA RESULT:      -7.0      0.489      1.134
REMARK  Name = 
REMARK  5 active torsions:
REMARK  status: ('A' for Active; 'I' for Inactive)
REMARK    1  A    between atoms: C_2  and  O_3
REMARK    2  A    between atoms: C_2  and  C_11
REMARK    3  A    between atoms: O_3  and  C_4
REMARK    4  A    between atoms: C_4  and  C_5
REMARK    5  A    between atoms: C_14  and  C_15
REMARK                            x       y       z     vdW  Elec       q    Type
REMARK                         _______ _______ _______ _____ _____    ______ ____
ROOT
ATOM      1  C   UNL     1       5.268   5.327  17.186  0.00  0.00    +0.000 C 
ATOM      2  C   UNL     1       5.519   5.131  18.665  0.00  0.00    +0.000 C 
ATOM      3  O   UNL     1       4.416   5.769  19.302  0.00  0.00    +0.000 OA
ATOM      4  C   UNL     1       3.841   6.515  18.331  0.00  0.00    +0.000 C 
ATOM      5  N   UNL     1       4.250   6.399  17.108  0.00  0.00    +0.000 NA
ENDROOT
BRANCH   4   6
ATOM      6  C   UNL     1       2.796   7.428  18.800  0.00  0.00    +0.000 A 
ATOM      7  C   UNL     1       2.207   7.322  20.060  0.00  0.00    +0.000 A 
ATOM      8  C   UNL     1       1.224   8.241  20.433  0.00  0.00    +0.000 A 
ATOM      9  C   UNL     1       0.873   9.238  19.532  0.00  0.00    +0.000 A 
ATOM     10 BR   UNL     1      -0.435  10.513  20.040  0.00  0.00    +0.000 Br
ATOM     11  N   UNL     1       1.422   9.361  18.304  0.00  0.00    +0.000 NA
ATOM     12  C   UNL     1       2.369   8.451  17.964  0.00  0.00    +0.000 A 
ENDBRANCH   4   6
BRANCH   1  14
ATOM     13  O   UNL     1       5.586   3.305  15.921  0.00  0.00    +0.000 OA
ATOM     14  C   UNL     1       4.810   4.023  16.543  0.00  0.00    +0.000 C 
BRANCH  14  15
ATOM     15  O   UNL     1       3.483   3.776  16.699  0.00  0.00    +0.000 OA
BRANCH  15  16
ATOM     16  C   UNL     1       3.135   2.603  17.454  0.00  0.00    +0.000 C 
BRANCH  16  17
ATOM     17  C   UNL     1       2.557   2.945  18.809  0.00  0.00    +0.000 A 
ATOM     18  C   UNL     1       1.376   3.687  18.944  0.00  0.00    +0.000 A 
ATOM     19  C   UNL     1       0.834   3.935  20.209  0.00  0.00    +0.000 A 
ATOM     20  C   UNL     1       1.458   3.435  21.351  0.00  0.00    +0.000 A 
ATOM     21  C   UNL     1       2.623   2.683  21.230  0.00  0.00    +0.000 A 
ATOM     22  C   UNL     1       3.167   2.434  19.968  0.00  0.00    +0.000 A 
ENDBRANCH  16  17
ENDBRANCH  15  16
ENDBRANCH  14  15
ENDBRANCH   1  14
TORSDOF 5
ENDMDL
MODEL 3
REMARK VINA RESULT:      -7.0      0.612      1.458
REMARK  Name = 
REMARK  5 active torsions:
REMARK  status: ('A' for Active; 'I' for Inactive)
REMARK    1  A    between atoms: C_2  and  O_3
REMARK    2  A    between atoms: C_2  and  C_11
REMARK    3  A    between atoms: O_3  and  C_4
REMARK    4  A    between atoms: C_4  and  C_5
REMARK    5  A    between atoms: C_14  and  C_15
REMARK                            x       y       z     vdW  Elec       q    Type
REMARK                         _______ _______ _______ _____ _____    ______ ____
ROOT
ATOM      1  C   UNL     1       5.431   5.374  16.990  0.00  0.00    +0.000 C 
ATOM      2  C   UNL     1       5.625   5.208  18.482  0.00  0.00    +0.000 C 
ATOM      3  O   UNL     1       4.505   5.869  19.064  0.00  0.00    +0.000 OA
ATOM      4  C   UNL     1       3.974   6.599  18.056  0.00  0.00    +0.000 C 
ATOM      5  N   UNL     1       4.427   6.452  16.852  0.00  0.00    +0.000 NA
ENDROOT
BRANCH   4   6
ATOM      6  C   UNL     1       2.921   7.531  18.467  0.00  0.00    +0.000 A 
ATOM      7  C   UNL     1       2.432   8.537  17.635  0.00  0.00    +0.000 A 
ATOM      8  C   UNL     1       1.419   9.376  18.102  0.00  0.00    +0.000 A 
ATOM      9  C   UNL     1       0.928   9.173  19.385  0.00  0.00    +0.000 A 
ATOM     10 BR   UNL     1      -0.472  10.284  20.018  0.00  0.00    +0.000 Br
ATOM     11  N   UNL     1       1.387   8.211  20.215  0.00  0.00    +0.000 NA
ATOM     12  C   UNL     1       2.376   7.414  19.739  0.00  0.00    +0.000 A 
ENDBRANCH   4   6
BRANCH   1  14
ATOM     13  O   UNL     1       5.018   3.884  15.146  0.00  0.00    +0.000 OA
ATOM     14  C   UNL     1       4.984   4.060  16.360  0.00  0.00    +0.000 C 
BRANCH  14  15
ATOM     15  O   UNL     1       4.522   3.153  17.260  0.00  0.00    +0.000 OA
BRANCH  15  16
ATOM     16  C   UNL     1       3.095   2.990  17.328  0.00  0.00    +0.000 C 
BRANCH  16  17
ATOM     17  C   UNL     1       2.562   3.189  18.729  0.00  0.00    +0.000 A 
ATOM     18  C   UNL     1       1.399   3.930  18.980  0.00  0.00    +0.000 A 
ATOM     19  C   UNL     1       0.897   4.046  20.279  0.00  0.00    +0.000 A 
ATOM     20  C   UNL     1       1.543   3.414  21.341  0.00  0.00    +0.000 A 
ATOM     21  C   UNL     1       2.690   2.661  21.104  0.00  0.00    +0.000 A 
ATOM     22  C   UNL     1       3.194   2.545  19.807  0.00  0.00    +0.000 A 
ENDBRANCH  16  17
ENDBRANCH  15  16
ENDBRANCH  14  15
ENDBRANCH   1  14
TORSDOF 5
ENDMDL
MODEL 4
REMARK VINA RESULT:      -6.9      0.817      1.178
REMARK  Name = 
REMARK  5 active torsions:
REMARK  status: ('A' for Active; 'I' for Inactive)
REMARK    1  A    between atoms: C_2  and  O_3
REMARK    2  A    between atoms: C_2  and  C_11
REMARK    3  A    between atoms: O_3  and  C_4
REMARK    4  A    between atoms: C_4  and  C_5
REMARK    5  A    between atoms: C_14  and  C_15
REMARK                            x       y       z     vdW  Elec       q    Type
REMARK                         _______ _______ _______ _____ _____    ______ ____
ROOT
ATOM      1  C   UNL     1       5.203   5.516  17.471  0.00  0.00    +0.000 C 
ATOM      2  C   UNL     1       5.134   5.251  18.960  0.00  0.00    +0.000 C 
ATOM      3  O   UNL     1       3.977   5.958  19.395  0.00  0.00    +0.000 OA
ATOM      4  C   UNL     1       3.668   6.781  18.367  0.00  0.00    +0.000 C 
ATOM      5  N   UNL     1       4.306   6.672  17.246  0.00  0.00    +0.000 NA
ENDROOT
BRANCH   4   6
ATOM      6  C   UNL     1       2.622   7.762  18.665  0.00  0.00    +0.000 A 
ATOM      7  C   UNL     1       2.112   8.640  17.708  0.00  0.00    +0.000 A 
ATOM      8  C   UNL     1       1.107   9.538  18.073  0.00  0.00    +0.000 A 
ATOM      9  C   UNL     1       0.644   9.519  19.382  0.00  0.00    +0.000 A 
ATOM     10 BR   UNL     1      -0.744  10.709  19.881  0.00  0.00    +0.000 Br
ATOM     11  N   UNL     1       1.124   8.685  20.330  0.00  0.00    +0.000 NA
ATOM     12  C   UNL     1       2.105   7.827  19.951  0.00  0.00    +0.000 A 
ENDBRANCH   4   6
BRANCH   1  14
ATOM     13  O   UNL     1       5.585   3.659  15.989  0.00  0.00    +0.000 OA
ATOM     14  C   UNL     1       4.787   4.277  16.687  0.00  0.00    +0.000 C 
BRANCH  14  15
ATOM     15  O   UNL     1       3.469   3.970  16.812  0.00  0.00    +0.000 OA
BRANCH  15  16
ATOM     16  C   UNL     1       3.162   2.714  17.440  0.00  0.00    +0.000 C 
BRANCH  16  17
ATOM     17  C   UNL     1       2.561   2.894  18.817  0.00  0.00    +0.000 A 
ATOM     18  C   UNL     1       3.195   2.413  19.969  0.00  0.00    +0.000 A 
ATOM     19  C   UNL     1       2.645   2.647  21.234  0.00  0.00    +0.000 A 
ATOM     20  C   UNL     1       1.463   3.375  21.361  0.00  0.00    +0.000 A 
ATOM     21  C   UNL     1       0.831   3.872  20.225  0.00  0.00    +0.000 A 
ATOM     22  C   UNL     1       1.378   3.639  18.962  0.00  0.00    +0.000 A 
ENDBRANCH  16  17
ENDBRANCH  15  16
ENDBRANCH  14  15
ENDBRANCH   1  14
TORSDOF 5
ENDMDL
MODEL 5
REMARK VINA RESULT:      -6.9      2.403      4.950
REMARK  Name = 
REMARK  5 active torsions:
REMARK  status: ('A' for Active; 'I' for Inactive)
REMARK    1  A    between atoms: C_2  and  O_3
REMARK    2  A    between atoms: C_2  and  C_11
REMARK    3  A    between atoms: O_3  and  C_4
REMARK    4  A    between atoms: C_4  and  C_5
REMARK    5  A    between atoms: C_14  and  C_15
REMARK                            x       y       z     vdW  Elec       q    Type
REMARK                         _______ _______ _______ _____ _____    ______ ____
ROOT
ATOM      1  C   UNL     1       4.624   4.374  18.883  0.00  0.00    +0.000 C 
ATOM      2  C   UNL     1       3.513   4.012  17.921  0.00  0.00    +0.000 C 
ATOM      3  O   UNL     1       2.793   5.227  17.733  0.00  0.00    +0.000 OA
ATOM      4  C   UNL     1       3.225   6.041  18.724  0.00  0.00    +0.000 C 
ATOM      5  N   UNL     1       4.214   5.669  19.472  0.00  0.00    +0.000 NA
ENDROOT
BRANCH   4   6
ATOM      6  C   UNL     1       2.471   7.290  18.859  0.00  0.00    +0.000 A 
ATOM      7  C   UNL     1       2.255   8.163  17.794  0.00  0.00    +0.000 A 
ATOM      8  C   UNL     1       1.516   9.329  18.007  0.00  0.00    +0.000 A 
ATOM      9  C   UNL     1       1.014   9.573  19.279  0.00  0.00    +0.000 A 
ATOM     10 BR   UNL     1      -0.020  11.134  19.573  0.00  0.00    +0.000 Br
ATOM     11  N   UNL     1       1.214   8.748  20.330  0.00  0.00    +0.000 NA
ATOM     12  C   UNL     1       1.941   7.626  20.097  0.00  0.00    +0.000 A 
ENDBRANCH   4   6
BRANCH   1  14
ATOM     13  O   UNL     1       7.025   4.492  18.762  0.00  0.00    +0.000 OA
ATOM     14  C   UNL     1       5.960   4.448  18.154  0.00  0.00    +0.000 C 
BRANCH  14  15
ATOM     15  O   UNL     1       5.840   4.499  16.801  0.00  0.00    +0.000 OA
BRANCH  15  16
ATOM     16  C   UNL     1       6.945   5.074  16.083  0.00  0.00    +0.000 C 
BRANCH  16  17
ATOM     17  C   UNL     1       6.886   4.770  14.602  0.00  0.00    +0.000 A 
ATOM     18  C   UNL     1       7.758   5.375  13.688  0.00  0.00    +0.000 A 
ATOM     19  C   UNL     1       7.721   5.029  12.334  0.00  0.00    +0.000 A 
ATOM     20  C   UNL     1       6.821   4.065  11.880  0.00  0.00    +0.000 A 
ATOM     21  C   UNL     1       5.960   3.444  12.781  0.00  0.00    +0.000 A 
ATOM     22  C   UNL     1       5.995   3.790  14.133  0.00  0.00    +0.000 A 
ENDBRANCH  16  17
ENDBRANCH  15  16
ENDBRANCH  14  15
ENDBRANCH   1  14
TORSDOF 5
ENDMDL
MODEL 6
REMARK VINA RESULT:      -6.9      5.125      7.590
REMARK  Name = 
REMARK  5 active torsions:
REMARK  status: ('A' for Active; 'I' for Inactive)
REMARK    1  A    between atoms: C_2  and  O_3
REMARK    2  A    between atoms: C_2  and  C_11
REMARK    3  A    between atoms: O_3  and  C_4
REMARK    4  A    between atoms: C_4  and  C_5
REMARK    5  A    between atoms: C_14  and  C_15
REMARK                            x       y       z     vdW  Elec       q    Type
REMARK                         _______ _______ _______ _____ _____    ______ ____
ROOT
ATOM      1  C   UNL     1       7.739   6.004  18.776  0.00  0.00    +0.000 C 
ATOM      2  C   UNL     1       7.962   4.826  17.852  0.00  0.00    +0.000 C 
ATOM      3  O   UNL     1       6.662   4.277  17.653  0.00  0.00    +0.000 OA
ATOM      4  C   UNL     1       5.897   4.846  18.612  0.00  0.00    +0.000 C 
ATOM      5  N   UNL     1       6.387   5.795  19.343  0.00  0.00    +0.000 NA
ENDROOT
BRANCH   4   6
ATOM      6  C   UNL     1       4.552   4.279  18.736  0.00  0.00    +0.000 A 
ATOM      7  C   UNL     1       3.397   5.060  18.740  0.00  0.00    +0.000 A 
ATOM      8  C   UNL     1       2.152   4.437  18.851  0.00  0.00    +0.000 A 
ATOM      9  C   UNL     1       2.110   3.052  18.948  0.00  0.00    +0.000 A 
ATOM     10 BR   UNL     1       0.425   2.192  19.065  0.00  0.00    +0.000 Br
ATOM     11  N   UNL     1       3.212   2.272  18.953  0.00  0.00    +0.000 NA
ATOM     12  C   UNL     1       4.409   2.903  18.850  0.00  0.00    +0.000 A 
ENDBRANCH   4   6
BRANCH   1  14
ATOM     13  O   UNL     1       7.386   7.460  16.893  0.00  0.00    +0.000 OA
ATOM     14  C   UNL     1       7.868   7.316  18.012  0.00  0.00    +0.000 C 
BRANCH  14  15
ATOM     15  O   UNL     1       8.590   8.261  18.671  0.00  0.00    +0.000 OA
BRANCH  15  16
ATOM     16  C   UNL     1       8.424   9.617  18.224  0.00  0.00    +0.000 C 
BRANCH  16  17
ATOM     17  C   UNL     1       9.420  10.557  18.867  0.00  0.00    +0.000 A 
ATOM     18  C   UNL     1       9.375  10.861  20.234  0.00  0.00    +0.000 A 
ATOM     19  C   UNL     1      10.346  11.685  20.812  0.00  0.00    +0.000 A 
ATOM     20  C   UNL     1      11.378  12.206  20.033  0.00  0.00    +0.000 A 
ATOM     21  C   UNL     1      11.444  11.899  18.676  0.00  0.00    +0.000 A 
ATOM     22  C   UNL     1      10.475  11.077  18.098  0.00  0.00    +0.000 A 
ENDBRANCH  16  17
ENDBRANCH  15  16
ENDBRANCH  14  15
ENDBRANCH   1  14
TORSDOF 5
ENDMDL
MODEL 7
REMARK VINA RESULT:      -6.8      4.007      5.740
REMARK  Name = 
REMARK  5 active torsions:
REMARK  status: ('A' for Active; 'I' for Inactive)
REMARK    1  A    between atoms: C_2  and  O_3
REMARK    2  A    between atoms: C_2  and  C_11
REMARK    3  A    between atoms: O_3  and  C_4
REMARK    4  A    between atoms: C_4  and  C_5
REMARK    5  A    between atoms: C_14  and  C_15
REMARK                            x       y       z     vdW  Elec       q    Type
REMARK                         _______ _______ _______ _____ _____    ______ ____
ROOT
ATOM      1  C   UNL     1       7.687   6.156  18.139  0.00  0.00    +0.000 C 
ATOM      2  C   UNL     1       6.890   7.299  17.546  0.00  0.00    +0.000 C 
ATOM      3  O   UNL     1       6.258   6.736  16.401  0.00  0.00    +0.000 OA
ATOM      4  C   UNL     1       6.900   5.564  16.192  0.00  0.00    +0.000 C 
ATOM      5  N   UNL     1       7.759   5.141  17.064  0.00  0.00    +0.000 NA
ENDROOT
BRANCH   4   6
ATOM      6  C   UNL     1       6.556   4.895  14.935  0.00  0.00    +0.000 A 
ATOM      7  C   UNL     1       7.398   4.891  13.824  0.00  0.00    +0.000 A 
ATOM      8  C   UNL     1       6.998   4.219  12.667  0.00  0.00    +0.000 A 
ATOM      9  C   UNL     1       5.771   3.569  12.669  0.00  0.00    +0.000 A 
ATOM     10 BR   UNL     1       5.231   2.624  11.116  0.00  0.00    +0.000 Br
ATOM     11  N   UNL     1       4.933   3.562  13.728  0.00  0.00    +0.000 NA
ATOM     12  C   UNL     1       5.343   4.228  14.837  0.00  0.00    +0.000 A 
ENDBRANCH   4   6
BRANCH   1  14
ATOM     13  O   UNL     1       7.670   5.297  20.387  0.00  0.00    +0.000 OA
ATOM     14  C   UNL     1       7.017   5.637  19.406  0.00  0.00    +0.000 C 
BRANCH  14  15
ATOM     15  O   UNL     1       5.663   5.556  19.312  0.00  0.00    +0.000 OA
BRANCH  15  16
ATOM     16  C   UNL     1       5.116   4.248  19.075  0.00  0.00    +0.000 C 
BRANCH  16  17
ATOM     17  C   UNL     1       3.753   4.075  19.709  0.00  0.00    +0.000 A 
ATOM     18  C   UNL     1       2.912   5.165  19.964  0.00  0.00    +0.000 A 
ATOM     19  C   UNL     1       1.633   4.968  20.495  0.00  0.00    +0.000 A 
ATOM     20  C   UNL     1       1.177   3.678  20.764  0.00  0.00    +0.000 A 
ATOM     21  C   UNL     1       1.996   2.584  20.499  0.00  0.00    +0.000 A 
ATOM     22  C   UNL     1       3.274   2.780  19.971  0.00  0.00    +0.000 A 
ENDBRANCH  16  17
ENDBRANCH  15  16
ENDBRANCH  14  15
ENDBRANCH   1  14
TORSDOF 5
ENDMDL
MODEL 8
REMARK VINA RESULT:      -6.7      1.537      2.268
REMARK  Name = 
REMARK  5 active torsions:
REMARK  status: ('A' for Active; 'I' for Inactive)
REMARK    1  A    between atoms: C_2  and  O_3
REMARK    2  A    between atoms: C_2  and  C_11
REMARK    3  A    between atoms: O_3  and  C_4
REMARK    4  A    between atoms: C_4  and  C_5
REMARK    5  A    between atoms: C_14  and  C_15
REMARK                            x       y       z     vdW  Elec       q    Type
REMARK                         _______ _______ _______ _____ _____    ______ ____
ROOT
ATOM      1  C   UNL     1       4.225   5.242  17.779  0.00  0.00    +0.000 C 
ATOM      2  C   UNL     1       4.879   6.392  17.043  0.00  0.00    +0.000 C 
ATOM      3  O   UNL     1       4.230   7.554  17.548  0.00  0.00    +0.000 OA
ATOM      4  C   UNL     1       3.136   7.087  18.192  0.00  0.00    +0.000 C 
ATOM      5  N   UNL     1       2.985   5.811  18.354  0.00  0.00    +0.000 NA
ENDROOT
BRANCH   4   6
ATOM      6  C   UNL     1       2.194   8.122  18.626  0.00  0.00    +0.000 A 
ATOM      7  C   UNL     1       1.720   9.120  17.775  0.00  0.00    +0.000 A 
ATOM      8  C   UNL     1       0.815  10.062  18.267  0.00  0.00    +0.000 A 
ATOM      9  C   UNL     1       0.412   9.966  19.593  0.00  0.00    +0.000 A 
ATOM     10 BR   UNL     1      -0.843  11.219  20.263  0.00  0.00    +0.000 Br
ATOM     11  N   UNL     1       0.860   9.014  20.440  0.00  0.00    +0.000 NA
ATOM     12  C   UNL     1       1.743   8.115  19.939  0.00  0.00    +0.000 A 
ENDBRANCH   4   6
BRANCH   1  14
ATOM     13  O   UNL     1       5.737   5.402  19.644  0.00  0.00    +0.000 OA
ATOM     14  C   UNL     1       5.167   4.677  18.835  0.00  0.00    +0.000 C 
BRANCH  14  15
ATOM     15  O   UNL     1       5.330   3.330  18.755  0.00  0.00    +0.000 OA
BRANCH  15  16
ATOM     16  C   UNL     1       4.754   2.552  19.818  0.00  0.00    +0.000 C 
BRANCH  16  17
ATOM     17  C   UNL     1       3.244   2.633  19.834  0.00  0.00    +0.000 A 
ATOM     18  C   UNL     1       2.549   3.280  20.865  0.00  0.00    +0.000 A 
ATOM     19  C   UNL     1       1.156   3.393  20.822  0.00  0.00    +0.000 A 
ATOM     20  C   UNL     1       0.443   2.871  19.744  0.00  0.00    +0.000 A 
ATOM     21  C   UNL     1       1.122   2.240  18.705  0.00  0.00    +0.000 A 
ATOM     22  C   UNL     1       2.513   2.126  18.747  0.00  0.00    +0.000 A 
ENDBRANCH  16  17
ENDBRANCH  15  16
ENDBRANCH  14  15
ENDBRANCH   1  14
TORSDOF 5
ENDMDL
MODEL 9
REMARK VINA RESULT:      -6.7      1.550      2.270
REMARK  Name = 
REMARK  5 active torsions:
REMARK  status: ('A' for Active; 'I' for Inactive)
REMARK    1  A    between atoms: C_2  and  O_3
REMARK    2  A    between atoms: C_2  and  C_11
REMARK    3  A    between atoms: O_3  and  C_4
REMARK    4  A    between atoms: C_4  and  C_5
REMARK    5  A    between atoms: C_14  and  C_15
REMARK                            x       y       z     vdW  Elec       q    Type
REMARK                         _______ _______ _______ _____ _____    ______ ____
ROOT
ATOM      1  C   UNL     1       4.274   5.130  17.820  0.00  0.00    +0.000 C 
ATOM      2  C   UNL     1       4.916   6.257  17.039  0.00  0.00    +0.000 C 
ATOM      3  O   UNL     1       4.277   7.435  17.521  0.00  0.00    +0.000 OA
ATOM      4  C   UNL     1       3.196   6.988  18.200  0.00  0.00    +0.000 C 
ATOM      5  N   UNL     1       3.047   5.718  18.402  0.00  0.00    +0.000 NA
ENDROOT
BRANCH   4   6
ATOM      6  C   UNL     1       2.263   8.036  18.621  0.00  0.00    +0.000 A 
ATOM      7  C   UNL     1       1.798   9.028  17.759  0.00  0.00    +0.000 A 
ATOM      8  C   UNL     1       0.901   9.985  18.239  0.00  0.00    +0.000 A 
ATOM      9  C   UNL     1       0.498   9.908  19.565  0.00  0.00    +0.000 A 
ATOM     10 BR   UNL     1      -0.746  11.180  20.221  0.00  0.00    +0.000 Br
ATOM     11  N   UNL     1       0.936   8.963  20.425  0.00  0.00    +0.000 NA
ATOM     12  C   UNL     1       1.812   8.050  19.934  0.00  0.00    +0.000 A 
ENDBRANCH   4   6
BRANCH   1  14
ATOM     13  O   UNL     1       5.846   5.345  19.630  0.00  0.00    +0.000 OA
ATOM     14  C   UNL     1       5.237   4.595  18.874  0.00  0.00    +0.000 C 
BRANCH  14  15
ATOM     15  O   UNL     1       5.369   3.242  18.854  0.00  0.00    +0.000 OA
BRANCH  15  16
ATOM     16  C   UNL     1       4.720   2.521  19.915  0.00  0.00    +0.000 C 
BRANCH  16  17
ATOM     17  C   UNL     1       3.214   2.651  19.858  0.00  0.00    +0.000 A 
ATOM     18  C   UNL     1       2.468   2.148  18.784  0.00  0.00    +0.000 A 
ATOM     19  C   UNL     1       1.072   2.229  18.789  0.00  0.00    +0.000 A 
ATOM     20  C   UNL     1       0.406   2.802  19.871  0.00  0.00    +0.000 A 
ATOM     21  C   UNL     1       1.134   3.290  20.953  0.00  0.00    +0.000 A 
ATOM     22  C   UNL     1       2.528   3.211  20.949  0.00  0.00    +0.000 A 
ENDBRANCH  16  17
ENDBRANCH  15  16
ENDBRANCH  14  15
ENDBRANCH   1  14
TORSDOF 5
ENDMDL
