MODEL 1
REMARK VINA RESULT:      -7.1      0.000      0.000
REMARK  Name = 
REMARK  9 active torsions:
REMARK  status: ('A' for Active; 'I' for Inactive)
REMARK    1  A    between atoms: C_1  and  C_2
REMARK    2  A    between atoms: C_4  and  C_5
REMARK    3  A    between atoms: C_8  and  C_9
REMARK    4  A    between atoms: C_9  and  C_10
REMARK    5  A    between atoms: C_10  and  N_11
REMARK    6  A    between atoms: N_11  and  C_12
REMARK    7  A    between atoms: C_12  and  C_13
REMARK    8  A    between atoms: C_13  and  O_14
REMARK    9  A    between atoms: C_13  and  C_15
REMARK                            x       y       z     vdW  Elec       q    Type
REMARK                         _______ _______ _______ _____ _____    ______ ____
ROOT
ATOM      1  C   UNL     1       3.530   5.976  17.573  0.00  0.00    +0.000 C 
ENDROOT
BRANCH   1   5
ATOM      2  C   UNL     1       1.224   8.646  20.091  0.00  0.00    +0.000 A 
ATOM      3  C   UNL     1       1.690   7.423  20.585  0.00  0.00    +0.000 A 
ATOM      4  C   UNL     1       2.446   6.570  19.779  0.00  0.00    +0.000 A 
ATOM      5  C   UNL     1       2.744   6.920  18.456  0.00  0.00    +0.000 A 
ATOM      6  C   UNL     1       2.287   8.146  17.960  0.00  0.00    +0.000 A 
ATOM      7  C   UNL     1       1.535   9.003  18.772  0.00  0.00    +0.000 A 
BRANCH   2  11
ATOM      8  C   UNL     1      -1.343  12.679  21.323  0.00  0.00    +0.000 C 
ATOM      9  C   UNL     1      -0.685  11.353  21.468  0.00  0.00    +0.000 A 
ATOM     10  N   UNL     1      -0.001  10.756  20.519  0.00  0.00    +0.000 NA
ATOM     11  C   UNL     1       0.451   9.522  20.963  0.00  0.00    +0.000 A 
ATOM     12  C   UNL     1       0.125   9.223  22.272  0.00  0.00    +0.000 A 
ATOM     13  S   UNL     1      -0.795  10.497  22.954  0.00  0.00    +0.000 S 
ENDBRANCH   2  11
ENDBRANCH   1   5
BRANCH   1  14
ATOM     14  C   UNL     1       4.844   5.574  18.253  0.00  0.00    +0.000 C 
BRANCH  14  15
ATOM     15  N   UNL     1       5.390   4.331  17.703  0.00  0.00    +0.000 NA
ATOM     16  H   UNL     1       6.114   3.976  18.327  0.00  0.00    +0.000 HD
BRANCH  15  17
ATOM     17  C   UNL     1       4.344   3.307  17.547  0.00  0.00    +0.000 C 
BRANCH  17  18
ATOM     18  C   UNL     1       4.252   2.240  18.675  0.00  0.00    +0.000 C 
BRANCH  18  19
ATOM     19  C   UNL     1       3.152   2.524  19.668  0.00  0.00    +0.000 A 
ATOM     20  C   UNL     1       1.881   2.967  19.290  0.00  0.00    +0.000 A 
ATOM     21  C   UNL     1       0.927   3.251  20.263  0.00  0.00    +0.000 A 
ATOM     22  C   UNL     1       1.274   3.088  21.594  0.00  0.00    +0.000 A 
ATOM     23  N   UNL     1       2.488   2.669  22.005  0.00  0.00    +0.000 NA
ATOM     24  C   UNL     1       3.395   2.401  21.035  0.00  0.00    +0.000 A 
ENDBRANCH  18  19
BRANCH  18  25
ATOM     25  O   UNL     1       4.080   0.937  18.101  0.00  0.00    +0.000 OA
ATOM     26  H   UNL     1       3.334   0.982  17.485  0.00  0.00    +0.000 HD
ENDBRANCH  18  25
ENDBRANCH  17  18
ENDBRANCH  15  17
ENDBRANCH  14  15
ENDBRANCH   1  14
TORSDOF 8
ENDMDL
MODEL 2
REMARK VINA RESULT:      -7.1      1.062      1.248
REMARK  Name = 
REMARK  9 active torsions:
REMARK  status: ('A' for Active; 'I' for Inactive)
REMARK    1  A    between atoms: C_1  and  C_2
REMARK    2  A    between atoms: C_4  and  C_5
REMARK    3  A    between atoms: C_8  and  C_9
REMARK    4  A    between atoms: C_9  and  C_10
REMARK    5  A    between atoms: C_10  and  N_11
REMARK    6  A    between atoms: N_11  and  C_12
REMARK    7  A    between atoms: C_12  and  C_13
REMARK    8  A    between atoms: C_13  and  O_14
REMARK    9  A    between atoms: C_13  and  C_15
REMARK                            x       y       z     vdW  Elec       q    Type
REMARK                         _______ _______ _______ _____ _____    ______ ____
ROOT
ATOM      1  C   UNL     1       4.381   5.685  17.626  0.00  0.00    +0.000 C 
ENDROOT
BRANCH   1   5
ATOM      2  C   UNL     1       1.619   8.554  19.336  0.00  0.00    +0.000 A 
ATOM      3  C   UNL     1       1.956   7.387  20.030  0.00  0.00    +0.000 A 
ATOM      4  C   UNL     1       2.858   6.472  19.486  0.00  0.00    +0.000 A 
ATOM      5  C   UNL     1       3.434   6.699  18.230  0.00  0.00    +0.000 A 
ATOM      6  C   UNL     1       3.105   7.869  17.536  0.00  0.00    +0.000 A 
ATOM      7  C   UNL     1       2.206   8.790  18.086  0.00  0.00    +0.000 A 
BRANCH   2  11
ATOM      8  C   UNL     1      -0.881  10.734  22.993  0.00  0.00    +0.000 C 
ATOM      9  C   UNL     1      -0.417  10.438  21.612  0.00  0.00    +0.000 A 
ATOM     10  N   UNL     1       0.438   9.490  21.303  0.00  0.00    +0.000 NA
ATOM     11  C   UNL     1       0.686   9.500  19.938  0.00  0.00    +0.000 A 
ATOM     12  C   UNL     1      -0.026  10.447  19.227  0.00  0.00    +0.000 A 
ATOM     13  S   UNL     1      -1.003  11.368  20.291  0.00  0.00    +0.000 S 
ENDBRANCH   2  11
ENDBRANCH   1   5
BRANCH   1  14
ATOM     14  C   UNL     1       5.398   5.213  18.672  0.00  0.00    +0.000 C 
BRANCH  14  15
ATOM     15  N   UNL     1       5.866   3.850  18.408  0.00  0.00    +0.000 NA
ATOM     16  H   UNL     1       6.256   3.456  19.263  0.00  0.00    +0.000 HD
BRANCH  15  17
ATOM     17  C   UNL     1       4.770   2.988  17.936  0.00  0.00    +0.000 C 
BRANCH  17  18
ATOM     18  C   UNL     1       4.250   1.924  18.943  0.00  0.00    +0.000 C 
BRANCH  18  19
ATOM     19  C   UNL     1       3.083   2.411  19.768  0.00  0.00    +0.000 A 
ATOM     20  C   UNL     1       1.859   2.786  19.206  0.00  0.00    +0.000 A 
ATOM     21  C   UNL     1       0.840   3.268  20.023  0.00  0.00    +0.000 A 
ATOM     22  C   UNL     1       1.077   3.366  21.384  0.00  0.00    +0.000 A 
ATOM     23  N   UNL     1       2.242   3.021  21.969  0.00  0.00    +0.000 NA
ATOM     24  C   UNL     1       3.214   2.557  21.148  0.00  0.00    +0.000 A 
ENDBRANCH  18  19
BRANCH  18  25
ATOM     25  O   UNL     1       3.897   0.722  18.245  0.00  0.00    +0.000 OA
ATOM     26  H   UNL     1       4.686   0.411  17.777  0.00  0.00    +0.000 HD
ENDBRANCH  18  25
ENDBRANCH  17  18
ENDBRANCH  15  17
ENDBRANCH  14  15
ENDBRANCH   1  14
TORSDOF 8
ENDMDL
MODEL 3
REMARK VINA RESULT:      -7.0      1.207      1.708
REMARK  Name = 
REMARK  9 active torsions:
REMARK  status: ('A' for Active; 'I' for Inactive)
REMARK    1  A    between atoms: C_1  and  C_2
REMARK    2  A    between atoms: C_4  and  C_5
REMARK    3  A    between atoms: C_8  and  C_9
REMARK    4  A    between atoms: C_9  and  C_10
REMARK    5  A    between atoms: C_10  and  N_11
REMARK    6  A    between atoms: N_11  and  C_12
REMARK    7  A    between atoms: C_12  and  C_13
REMARK    8  A    between atoms: C_13  and  O_14
REMARK    9  A    between atoms: C_13  and  C_15
REMARK                            x       y       z     vdW  Elec       q    Type
REMARK                         _______ _______ _______ _____ _____    ______ ____
ROOT
ATOM      1  C   UNL     1       3.649   6.535  17.418  0.00  0.00    +0.000 C 
ENDROOT
BRANCH   1   5
ATOM      2  C   UNL     1       1.130   9.038  19.902  0.00  0.00    +0.000 A 
ATOM      3  C   UNL     1       1.412   9.398  18.579  0.00  0.00    +0.000 A 
ATOM      4  C   UNL     1       2.210   8.583  17.775  0.00  0.00    +0.000 A 
ATOM      5  C   UNL     1       2.752   7.395  18.280  0.00  0.00    +0.000 A 
ATOM      6  C   UNL     1       2.466   7.028  19.600  0.00  0.00    +0.000 A 
ATOM      7  C   UNL     1       1.660   7.843  20.403  0.00  0.00    +0.000 A 
BRANCH   2  11
ATOM      8  C   UNL     1      -2.163  12.612  20.772  0.00  0.00    +0.000 C 
ATOM      9  C   UNL     1      -1.194  11.519  21.050  0.00  0.00    +0.000 A 
ATOM     10  N   UNL     1      -0.505  10.886  20.128  0.00  0.00    +0.000 NA
ATOM     11  C   UNL     1       0.279   9.902  20.712  0.00  0.00    +0.000 A 
ATOM     12  C   UNL     1       0.194   9.836  22.089  0.00  0.00    +0.000 A 
ATOM     13  S   UNL     1      -0.916  11.006  22.666  0.00  0.00    +0.000 S 
ENDBRANCH   2  11
ENDBRANCH   1   5
BRANCH   1  14
ATOM     14  C   UNL     1       4.943   6.192  18.166  0.00  0.00    +0.000 C 
BRANCH  14  15
ATOM     15  N   UNL     1       5.692   5.119  17.506  0.00  0.00    +0.000 NA
ATOM     16  H   UNL     1       6.645   5.101  17.868  0.00  0.00    +0.000 HD
BRANCH  15  17
ATOM     17  C   UNL     1       5.065   3.808  17.732  0.00  0.00    +0.000 C 
BRANCH  17  18
ATOM     18  C   UNL     1       4.654   3.486  19.198  0.00  0.00    +0.000 C 
BRANCH  18  19
ATOM     19  C   UNL     1       3.160   3.369  19.380  0.00  0.00    +0.000 A 
ATOM     20  C   UNL     1       2.527   3.562  20.612  0.00  0.00    +0.000 A 
ATOM     21  C   UNL     1       1.149   3.396  20.716  0.00  0.00    +0.000 A 
ATOM     22  C   UNL     1       0.440   3.035  19.583  0.00  0.00    +0.000 A 
ATOM     23  N   UNL     1       1.008   2.834  18.376  0.00  0.00    +0.000 NA
ATOM     24  C   UNL     1       2.350   3.003  18.306  0.00  0.00    +0.000 A 
ENDBRANCH  18  19
BRANCH  18  25
ATOM     25  O   UNL     1       5.303   2.284  19.634  0.00  0.00    +0.000 OA
ATOM     26  H   UNL     1       5.514   1.760  18.847  0.00  0.00    +0.000 HD
ENDBRANCH  18  25
ENDBRANCH  17  18
ENDBRANCH  15  17
ENDBRANCH  14  15
ENDBRANCH   1  14
TORSDOF 8
ENDMDL
MODEL 4
REMARK VINA RESULT:      -6.9      1.094      1.491
REMARK  Name = 
REMARK  9 active torsions:
REMARK  status: ('A' for Active; 'I' for Inactive)
REMARK    1  A    between atoms: C_1  and  C_2
REMARK    2  A    between atoms: C_4  and  C_5
REMARK    3  A    between atoms: C_8  and  C_9
REMARK    4  A    between atoms: C_9  and  C_10
REMARK    5  A    between atoms: C_10  and  N_11
REMARK    6  A    between atoms: N_11  and  C_12
REMARK    7  A    between atoms: C_12  and  C_13
REMARK    8  A    between atoms: C_13  and  O_14
REMARK    9  A    between atoms: C_13  and  C_15
REMARK                            x       y       z     vdW  Elec       q    Type
REMARK                         _______ _______ _______ _____ _____    ______ ____
ROOT
ATOM      1  C   UNL     1       4.224   5.924  17.501  0.00  0.00    +0.000 C 
ENDROOT
BRANCH   1   5
ATOM      2  C   UNL     1       1.551   8.818  19.306  0.00  0.00    +0.000 A 
ATOM      3  C   UNL     1       2.107   9.051  18.044  0.00  0.00    +0.000 A 
ATOM      4  C   UNL     1       2.955   8.111  17.456  0.00  0.00    +0.000 A 
ATOM      5  C   UNL     1       3.273   6.922  18.124  0.00  0.00    +0.000 A 
ATOM      6  C   UNL     1       2.712   6.682  19.384  0.00  0.00    +0.000 A 
ATOM      7  C   UNL     1       1.856   7.622  19.969  0.00  0.00    +0.000 A 
BRANCH   2  11
ATOM      8  C   UNL     1      -2.291  11.917  19.436  0.00  0.00    +0.000 C 
ATOM      9  C   UNL     1      -1.075  11.192  19.892  0.00  0.00    +0.000 A 
ATOM     10  N   UNL     1      -0.402  10.336  19.158  0.00  0.00    +0.000 NA
ATOM     11  C   UNL     1       0.655   9.811  19.887  0.00  0.00    +0.000 A 
ATOM     12  C   UNL     1       0.783  10.319  21.166  0.00  0.00    +0.000 A 
ATOM     13  S   UNL     1      -0.464  11.451  21.476  0.00  0.00    +0.000 S 
ENDBRANCH   2  11
ENDBRANCH   1   5
BRANCH   1  14
ATOM     14  C   UNL     1       5.220   5.408  18.546  0.00  0.00    +0.000 C 
BRANCH  14  15
ATOM     15  N   UNL     1       5.294   3.945  18.560  0.00  0.00    +0.000 NA
ATOM     16  H   UNL     1       4.983   3.601  19.468  0.00  0.00    +0.000 HD
BRANCH  15  17
ATOM     17  C   UNL     1       4.454   3.355  17.506  0.00  0.00    +0.000 C 
BRANCH  17  18
ATOM     18  C   UNL     1       3.435   2.272  17.965  0.00  0.00    +0.000 C 
BRANCH  18  19
ATOM     19  C   UNL     1       2.782   2.598  19.286  0.00  0.00    +0.000 A 
ATOM     20  C   UNL     1       1.587   3.317  19.387  0.00  0.00    +0.000 A 
ATOM     21  C   UNL     1       1.064   3.619  20.641  0.00  0.00    +0.000 A 
ATOM     22  C   UNL     1       1.755   3.195  21.763  0.00  0.00    +0.000 A 
ATOM     23  N   UNL     1       2.911   2.503  21.714  0.00  0.00    +0.000 NA
ATOM     24  C   UNL     1       3.396   2.226  20.480  0.00  0.00    +0.000 A 
ENDBRANCH  18  19
BRANCH  18  25
ATOM     25  O   UNL     1       2.439   2.080  16.951  0.00  0.00    +0.000 OA
ATOM     26  H   UNL     1       1.764   2.766  17.067  0.00  0.00    +0.000 HD
ENDBRANCH  18  25
ENDBRANCH  17  18
ENDBRANCH  15  17
ENDBRANCH  14  15
ENDBRANCH   1  14
TORSDOF 8
ENDMDL
MODEL 5
REMARK VINA RESULT:      -6.8      0.993      1.467
REMARK  Name = 
REMARK  9 active torsions:
REMARK  status: ('A' for Active; 'I' for Inactive)
REMARK    1  A    between atoms: C_1  and  C_2
REMARK    2  A    between atoms: C_4  and  C_5
REMARK    3  A    between atoms: C_8  and  C_9
REMARK    4  A    between atoms: C_9  and  C_10
REMARK    5  A    between atoms: C_10  and  N_11
REMARK    6  A    between atoms: N_11  and  C_12
REMARK    7  A    between atoms: C_12  and  C_13
REMARK    8  A    between atoms: C_13  and  O_14
REMARK    9  A    between atoms: C_13  and  C_15
REMARK                            x       y       z     vdW  Elec       q    Type
REMARK                         _______ _______ _______ _____ _____    ______ ____
ROOT
ATOM      1  C   UNL     1       3.757   6.163  17.310  0.00  0.00    +0.000 C 
ENDROOT
BRANCH   1   5
ATOM      2  C   UNL     1       1.358   8.618  19.956  0.00  0.00    +0.000 A 
ATOM      3  C   UNL     1       1.676   9.058  18.666  0.00  0.00    +0.000 A 
ATOM      4  C   UNL     1       2.435   8.261  17.809  0.00  0.00    +0.000 A 
ATOM      5  C   UNL     1       2.902   7.008  18.227  0.00  0.00    +0.000 A 
ATOM      6  C   UNL     1       2.578   6.560  19.514  0.00  0.00    +0.000 A 
ATOM      7  C   UNL     1       1.811   7.358  20.370  0.00  0.00    +0.000 A 
BRANCH   2  11
ATOM      8  C   UNL     1      -1.524  12.456  21.114  0.00  0.00    +0.000 C 
ATOM      9  C   UNL     1      -0.733  11.209  21.292  0.00  0.00    +0.000 A 
ATOM     10  N   UNL     1      -0.043  10.624  20.339  0.00  0.00    +0.000 NA
ATOM     11  C   UNL     1       0.549   9.467  20.822  0.00  0.00    +0.000 A 
ATOM     12  C   UNL     1       0.322   9.216  22.162  0.00  0.00    +0.000 A 
ATOM     13  S   UNL     1      -0.681  10.436  22.826  0.00  0.00    +0.000 S 
ENDBRANCH   2  11
ENDBRANCH   1   5
BRANCH   1  14
ATOM     14  C   UNL     1       5.225   6.208  17.753  0.00  0.00    +0.000 C 
BRANCH  14  15
ATOM     15  N   UNL     1       5.454   5.432  18.974  0.00  0.00    +0.000 NA
ATOM     16  H   UNL     1       4.762   5.694  19.675  0.00  0.00    +0.000 HD
BRANCH  15  17
ATOM     17  C   UNL     1       5.359   3.987  18.718  0.00  0.00    +0.000 C 
BRANCH  17  18
ATOM     18  C   UNL     1       4.724   3.128  19.849  0.00  0.00    +0.000 C 
BRANCH  18  19
ATOM     19  C   UNL     1       3.218   3.060  19.764  0.00  0.00    +0.000 A 
ATOM     20  C   UNL     1       2.532   2.872  18.561  0.00  0.00    +0.000 A 
ATOM     21  C   UNL     1       1.140   2.863  18.551  0.00  0.00    +0.000 A 
ATOM     22  C   UNL     1       0.471   3.046  19.749  0.00  0.00    +0.000 A 
ATOM     23  N   UNL     1       1.090   3.235  20.932  0.00  0.00    +0.000 NA
ATOM     24  C   UNL     1       2.444   3.240  20.910  0.00  0.00    +0.000 A 
ENDBRANCH  18  19
BRANCH  18  25
ATOM     25  O   UNL     1       5.283   1.808  19.833  0.00  0.00    +0.000 OA
ATOM     26  H   UNL     1       5.651   1.654  18.949  0.00  0.00    +0.000 HD
ENDBRANCH  18  25
ENDBRANCH  17  18
ENDBRANCH  15  17
ENDBRANCH  14  15
ENDBRANCH   1  14
TORSDOF 8
ENDMDL
MODEL 6
REMARK VINA RESULT:      -6.8      2.376      3.982
REMARK  Name = 
REMARK  9 active torsions:
REMARK  status: ('A' for Active; 'I' for Inactive)
REMARK    1  A    between atoms: C_1  and  C_2
REMARK    2  A    between atoms: C_4  and  C_5
REMARK    3  A    between atoms: C_8  and  C_9
REMARK    4  A    between atoms: C_9  and  C_10
REMARK    5  A    between atoms: C_10  and  N_11
REMARK    6  A    between atoms: N_11  and  C_12
REMARK    7  A    between atoms: C_12  and  C_13
REMARK    8  A    between atoms: C_13  and  O_14
REMARK    9  A    between atoms: C_13  and  C_15
REMARK                            x       y       z     vdW  Elec       q    Type
REMARK                         _______ _______ _______ _____ _____    ______ ____
ROOT
ATOM      1  C   UNL     1       2.782   6.573  17.951  0.00  0.00    +0.000 C 
ENDROOT
BRANCH   1   5
ATOM      2  C   UNL     1       0.916   9.861  20.070  0.00  0.00    +0.000 A 
ATOM      3  C   UNL     1       1.269   8.687  20.743  0.00  0.00    +0.000 A 
ATOM      4  C   UNL     1       1.884   7.634  20.064  0.00  0.00    +0.000 A 
ATOM      5  C   UNL     1       2.151   7.731  18.692  0.00  0.00    +0.000 A 
ATOM      6  C   UNL     1       1.807   8.907  18.016  0.00  0.00    +0.000 A 
ATOM      7  C   UNL     1       1.196   9.965  18.701  0.00  0.00    +0.000 A 
BRANCH   2  11
ATOM      8  C   UNL     1      -2.285  11.949  23.195  0.00  0.00    +0.000 C 
ATOM      9  C   UNL     1      -1.173  11.838  22.214  0.00  0.00    +0.000 A 
ATOM     10  N   UNL     1      -0.795  10.717  21.644  0.00  0.00    +0.000 NA
ATOM     11  C   UNL     1       0.290  10.949  20.811  0.00  0.00    +0.000 A 
ATOM     12  C   UNL     1       0.691  12.270  20.738  0.00  0.00    +0.000 A 
ATOM     13  S   UNL     1      -0.286  13.237  21.760  0.00  0.00    +0.000 S 
ENDBRANCH   2  11
ENDBRANCH   1   5
BRANCH   1  14
ATOM     14  C   UNL     1       2.249   5.239  18.487  0.00  0.00    +0.000 C 
BRANCH  14  15
ATOM     15  N   UNL     1       3.302   4.439  19.117  0.00  0.00    +0.000 NA
ATOM     16  H   UNL     1       3.555   3.668  18.499  0.00  0.00    +0.000 HD
BRANCH  15  17
ATOM     17  C   UNL     1       4.499   5.249  19.394  0.00  0.00    +0.000 C 
BRANCH  17  18
ATOM     18  C   UNL     1       5.863   4.625  18.980  0.00  0.00    +0.000 C 
BRANCH  18  19
ATOM     19  C   UNL     1       6.132   4.721  17.498  0.00  0.00    +0.000 A 
ATOM     20  C   UNL     1       5.431   3.973  16.548  0.00  0.00    +0.000 A 
ATOM     21  C   UNL     1       5.762   4.081  15.200  0.00  0.00    +0.000 A 
ATOM     22  C   UNL     1       6.792   4.934  14.839  0.00  0.00    +0.000 A 
ATOM     23  N   UNL     1       7.498   5.670  15.721  0.00  0.00    +0.000 NA
ATOM     24  C   UNL     1       7.153   5.544  17.025  0.00  0.00    +0.000 A 
ENDBRANCH  18  19
BRANCH  18  25
ATOM     25  O   UNL     1       6.926   5.241  19.720  0.00  0.00    +0.000 OA
ATOM     26  H   UNL     1       7.476   4.534  20.090  0.00  0.00    +0.000 HD
ENDBRANCH  18  25
ENDBRANCH  17  18
ENDBRANCH  15  17
ENDBRANCH  14  15
ENDBRANCH   1  14
TORSDOF 8
ENDMDL
MODEL 7
REMARK VINA RESULT:      -6.8      0.986      1.400
REMARK  Name = 
REMARK  9 active torsions:
REMARK  status: ('A' for Active; 'I' for Inactive)
REMARK    1  A    between atoms: C_1  and  C_2
REMARK    2  A    between atoms: C_4  and  C_5
REMARK    3  A    between atoms: C_8  and  C_9
REMARK    4  A    between atoms: C_9  and  C_10
REMARK    5  A    between atoms: C_10  and  N_11
REMARK    6  A    between atoms: N_11  and  C_12
REMARK    7  A    between atoms: C_12  and  C_13
REMARK    8  A    between atoms: C_13  and  O_14
REMARK    9  A    between atoms: C_13  and  C_15
REMARK                            x       y       z     vdW  Elec       q    Type
REMARK                         _______ _______ _______ _____ _____    ______ ____
ROOT
ATOM      1  C   UNL     1       3.238   6.487  17.691  0.00  0.00    +0.000 C 
ENDROOT
BRANCH   1   5
ATOM      2  C   UNL     1       0.911   9.288  20.041  0.00  0.00    +0.000 A 
ATOM      3  C   UNL     1       1.153   9.524  18.683  0.00  0.00    +0.000 A 
ATOM      4  C   UNL     1       1.889   8.614  17.923  0.00  0.00    +0.000 A 
ATOM      5  C   UNL     1       2.408   7.451  18.508  0.00  0.00    +0.000 A 
ATOM      6  C   UNL     1       2.160   7.207  19.864  0.00  0.00    +0.000 A 
ATOM      7  C   UNL     1       1.416   8.118  20.623  0.00  0.00    +0.000 A 
BRANCH   2  11
ATOM      8  C   UNL     1      -2.000  13.215  20.733  0.00  0.00    +0.000 C 
ATOM      9  C   UNL     1      -1.173  12.024  21.063  0.00  0.00    +0.000 A 
ATOM     10  N   UNL     1      -0.516  11.308  20.178  0.00  0.00    +0.000 NA
ATOM     11  C   UNL     1       0.124  10.249  20.805  0.00  0.00    +0.000 A 
ATOM     12  C   UNL     1      -0.033  10.207  22.177  0.00  0.00    +0.000 A 
ATOM     13  S   UNL     1      -1.032  11.500  22.693  0.00  0.00    +0.000 S 
ENDBRANCH   2  11
ENDBRANCH   1   5
BRANCH   1  14
ATOM     14  C   UNL     1       4.677   6.437  18.219  0.00  0.00    +0.000 C 
BRANCH  14  15
ATOM     15  N   UNL     1       4.857   5.386  19.224  0.00  0.00    +0.000 NA
ATOM     16  H   UNL     1       3.977   5.237  19.717  0.00  0.00    +0.000 HD
BRANCH  15  17
ATOM     17  C   UNL     1       5.285   4.121  18.607  0.00  0.00    +0.000 C 
BRANCH  17  18
ATOM     18  C   UNL     1       4.180   3.044  18.407  0.00  0.00    +0.000 C 
BRANCH  18  19
ATOM     19  C   UNL     1       3.159   3.032  19.519  0.00  0.00    +0.000 A 
ATOM     20  C   UNL     1       1.870   3.552  19.373  0.00  0.00    +0.000 A 
ATOM     21  C   UNL     1       0.994   3.547  20.455  0.00  0.00    +0.000 A 
ATOM     22  C   UNL     1       1.435   3.024  21.658  0.00  0.00    +0.000 A 
ATOM     23  N   UNL     1       2.670   2.516  21.846  0.00  0.00    +0.000 NA
ATOM     24  C   UNL     1       3.500   2.536  20.776  0.00  0.00    +0.000 A 
ENDBRANCH  18  19
BRANCH  18  25
ATOM     25  O   UNL     1       3.534   3.237  17.141  0.00  0.00    +0.000 OA
ATOM     26  H   UNL     1       4.225   3.361  16.473  0.00  0.00    +0.000 HD
ENDBRANCH  18  25
ENDBRANCH  17  18
ENDBRANCH  15  17
ENDBRANCH  14  15
ENDBRANCH   1  14
TORSDOF 8
ENDMDL
MODEL 8
REMARK VINA RESULT:      -6.8      1.404      1.589
REMARK  Name = 
REMARK  9 active torsions:
REMARK  status: ('A' for Active; 'I' for Inactive)
REMARK    1  A    between atoms: C_1  and  C_2
REMARK    2  A    between atoms: C_4  and  C_5
REMARK    3  A    between atoms: C_8  and  C_9
REMARK    4  A    between atoms: C_9  and  C_10
REMARK    5  A    between atoms: C_10  and  N_11
REMARK    6  A    between atoms: N_11  and  C_12
REMARK    7  A    between atoms: C_12  and  C_13
REMARK    8  A    between atoms: C_13  and  O_14
REMARK    9  A    between atoms: C_13  and  C_15
REMARK                            x       y       z     vdW  Elec       q    Type
REMARK                         _______ _______ _______ _____ _____    ______ ____
ROOT
ATOM      1  C   UNL     1       3.425   6.734  17.430  0.00  0.00    +0.000 C 
ENDROOT
BRANCH   1   5
ATOM      2  C   UNL     1       0.951   9.322  19.872  0.00  0.00    +0.000 A 
ATOM      3  C   UNL     1       1.490   8.144  20.400  0.00  0.00    +0.000 A 
ATOM      4  C   UNL     1       2.300   7.319  19.618  0.00  0.00    +0.000 A 
ATOM      5  C   UNL     1       2.579   7.650  18.286  0.00  0.00    +0.000 A 
ATOM      6  C   UNL     1       2.048   8.832  17.757  0.00  0.00    +0.000 A 
ATOM      7  C   UNL     1       1.242   9.662  18.545  0.00  0.00    +0.000 A 
BRANCH   2  11
ATOM      8  C   UNL     1      -2.396  12.806  20.886  0.00  0.00    +0.000 C 
ATOM      9  C   UNL     1      -1.379  11.747  21.121  0.00  0.00    +0.000 A 
ATOM     10  N   UNL     1      -0.725  11.122  20.169  0.00  0.00    +0.000 NA
ATOM     11  C   UNL     1       0.122  10.171  20.719  0.00  0.00    +0.000 A 
ATOM     12  C   UNL     1       0.118  10.123  22.100  0.00  0.00    +0.000 A 
ATOM     13  S   UNL     1      -0.992  11.267  22.725  0.00  0.00    +0.000 S 
ENDBRANCH   2  11
ENDBRANCH   1   5
BRANCH   1  14
ATOM     14  C   UNL     1       4.915   7.040  17.626  0.00  0.00    +0.000 C 
BRANCH  14  15
ATOM     15  N   UNL     1       5.733   5.826  17.605  0.00  0.00    +0.000 NA
ATOM     16  H   UNL     1       6.363   5.830  18.407  0.00  0.00    +0.000 HD
BRANCH  15  17
ATOM     17  C   UNL     1       4.899   4.614  17.652  0.00  0.00    +0.000 C 
BRANCH  17  18
ATOM     18  C   UNL     1       4.614   4.030  19.066  0.00  0.00    +0.000 C 
BRANCH  18  19
ATOM     19  C   UNL     1       3.167   3.654  19.269  0.00  0.00    +0.000 A 
ATOM     20  C   UNL     1       2.515   3.775  20.500  0.00  0.00    +0.000 A 
ATOM     21  C   UNL     1       1.190   3.368  20.626  0.00  0.00    +0.000 A 
ATOM     22  C   UNL     1       0.552   2.845  19.514  0.00  0.00    +0.000 A 
ATOM     23  N   UNL     1       1.142   2.705  18.309  0.00  0.00    +0.000 NA
ATOM     24  C   UNL     1       2.432   3.109  18.218  0.00  0.00    +0.000 A 
ENDBRANCH  18  19
BRANCH  18  25
ATOM     25  O   UNL     1       5.460   2.897  19.305  0.00  0.00    +0.000 OA
ATOM     26  H   UNL     1       4.952   2.100  19.094  0.00  0.00    +0.000 HD
ENDBRANCH  18  25
ENDBRANCH  17  18
ENDBRANCH  15  17
ENDBRANCH  14  15
ENDBRANCH   1  14
TORSDOF 8
ENDMDL
MODEL 9
REMARK VINA RESULT:      -6.7      2.488      4.111
REMARK  Name = 
REMARK  9 active torsions:
REMARK  status: ('A' for Active; 'I' for Inactive)
REMARK    1  A    between atoms: C_1  and  C_2
REMARK    2  A    between atoms: C_4  and  C_5
REMARK    3  A    between atoms: C_8  and  C_9
REMARK    4  A    between atoms: C_9  and  C_10
REMARK    5  A    between atoms: C_10  and  N_11
REMARK    6  A    between atoms: N_11  and  C_12
REMARK    7  A    between atoms: C_12  and  C_13
REMARK    8  A    between atoms: C_13  and  O_14
REMARK    9  A    between atoms: C_13  and  C_15
REMARK                            x       y       z     vdW  Elec       q    Type
REMARK                         _______ _______ _______ _____ _____    ______ ____
ROOT
ATOM      1  C   UNL     1       3.067   7.044  18.013  0.00  0.00    +0.000 C 
ENDROOT
BRANCH   1   5
ATOM      2  C   UNL     1       0.529  10.004  19.905  0.00  0.00    +0.000 A 
ATOM      3  C   UNL     1       0.887  10.127  18.558  0.00  0.00    +0.000 A 
ATOM      4  C   UNL     1       1.692   9.166  17.946  0.00  0.00    +0.000 A 
ATOM      5  C   UNL     1       2.163   8.064  18.670  0.00  0.00    +0.000 A 
ATOM      6  C   UNL     1       1.800   7.933  20.016  0.00  0.00    +0.000 A 
ATOM      7  C   UNL     1       0.987   8.895  20.627  0.00  0.00    +0.000 A 
BRANCH   2  11
ATOM      8  C   UNL     1      -3.412  12.951  20.298  0.00  0.00    +0.000 C 
ATOM      9  C   UNL     1      -2.108  12.324  20.638  0.00  0.00    +0.000 A 
ATOM     10  N   UNL     1      -1.502  11.423  19.899  0.00  0.00    +0.000 NA
ATOM     11  C   UNL     1      -0.326  11.017  20.513  0.00  0.00    +0.000 A 
ATOM     12  C   UNL     1      -0.044  11.658  21.704  0.00  0.00    +0.000 A 
ATOM     13  S   UNL     1      -1.292  12.768  22.084  0.00  0.00    +0.000 S 
ENDBRANCH   2  11
ENDBRANCH   1   5
BRANCH   1  14
ATOM     14  C   UNL     1       2.448   5.644  18.102  0.00  0.00    +0.000 C 
BRANCH  14  15
ATOM     15  N   UNL     1       3.260   4.734  18.914  0.00  0.00    +0.000 NA
ATOM     16  H   UNL     1       3.492   3.907  18.364  0.00  0.00    +0.000 HD
BRANCH  15  17
ATOM     17  C   UNL     1       4.503   5.380  19.363  0.00  0.00    +0.000 C 
BRANCH  17  18
ATOM     18  C   UNL     1       5.829   4.658  18.984  0.00  0.00    +0.000 C 
BRANCH  18  19
ATOM     19  C   UNL     1       6.141   4.733  17.509  0.00  0.00    +0.000 A 
ATOM     20  C   UNL     1       5.538   3.901  16.561  0.00  0.00    +0.000 A 
ATOM     21  C   UNL     1       5.906   3.995  15.222  0.00  0.00    +0.000 A 
ATOM     22  C   UNL     1       6.874   4.920  14.868  0.00  0.00    +0.000 A 
ATOM     23  N   UNL     1       7.486   5.739  15.748  0.00  0.00    +0.000 NA
ATOM     24  C   UNL     1       7.107   5.623  17.043  0.00  0.00    +0.000 A 
ENDBRANCH  18  19
BRANCH  18  25
ATOM     25  O   UNL     1       6.915   5.198  19.750  0.00  0.00    +0.000 OA
ATOM     26  H   UNL     1       7.508   4.466  19.976  0.00  0.00    +0.000 HD
ENDBRANCH  18  25
ENDBRANCH  17  18
ENDBRANCH  15  17
ENDBRANCH  14  15
ENDBRANCH   1  14
TORSDOF 8
ENDMDL
