MODEL 1
REMARK VINA RESULT:      -8.4      0.000      0.000
REMARK  Name = 
REMARK  8 active torsions:
REMARK  status: ('A' for Active; 'I' for Inactive)
REMARK    1  A    between atoms: O_1  and  C_2
REMARK    2  A    between atoms: C_5  and  C_6
REMARK    3  A    between atoms: C_9  and  C_10
REMARK    4  A    between atoms: C_19  and  C_20
REMARK    5  A    between atoms: C_20  and  N_21
REMARK    6  A    between atoms: N_21  and  C_22
REMARK    7  A    between atoms: C_22  and  C_23
REMARK    8  A    between atoms: C_23  and  N_24
REMARK                            x       y       z     vdW  Elec       q    Type
REMARK                         _______ _______ _______ _____ _____    ______ ____
ROOT
ATOM      1  C   UNL     1       0.956   9.021  20.777  0.00  0.00    +0.000 A 
ATOM      2  N   UNL     1       1.232   8.814  22.094  0.00  0.00    +0.000 NA
ATOM      3  N   UNL     1       0.470   9.694  22.759  0.00  0.00    +0.000 N 
ATOM      4  C   UNL     1      -0.459  10.248  21.956  0.00  0.00    +0.000 A 
ATOM      5  C   UNL     1       0.094  10.164  20.697  0.00  0.00    +0.000 A 
ATOM      6  C   UNL     1      -0.290  11.368  19.861  0.00  0.00    +0.000 C 
ATOM      7  C   UNL     1      -1.134  12.148  20.926  0.00  0.00    +0.000 A 
ATOM      8  C   UNL     1      -1.673  13.419  20.926  0.00  0.00    +0.000 A 
ATOM      9  C   UNL     1      -2.409  13.868  22.046  0.00  0.00    +0.000 A 
ATOM     10  C   UNL     1      -2.650  13.041  23.171  0.00  0.00    +0.000 A 
ATOM     11  C   UNL     1      -2.057  11.773  23.199  0.00  0.00    +0.000 A 
ATOM     12  C   UNL     1      -1.284  11.390  22.122  0.00  0.00    +0.000 A 
ATOM     13  H   UNL     1       0.719   9.957  23.706  0.00  0.00    +0.000 HD
ENDROOT
BRANCH   1  17
ATOM     14  C   UNL     1       3.371   6.553  18.083  0.00  0.00    +0.000 A 
ATOM     15  C   UNL     1       2.980   6.093  19.360  0.00  0.00    +0.000 A 
ATOM     16  C   UNL     1       2.110   6.837  20.216  0.00  0.00    +0.000 A 
ATOM     17  C   UNL     1       1.603   8.084  19.829  0.00  0.00    +0.000 A 
ATOM     18  C   UNL     1       2.007   8.554  18.568  0.00  0.00    +0.000 A 
ATOM     19  C   UNL     1       2.859   7.810  17.722  0.00  0.00    +0.000 A 
BRANCH  14  23
ATOM     20  C   UNL     1       5.835   4.311  15.286  0.00  0.00    +0.000 A 
ATOM     21  C   UNL     1       5.156   3.645  16.298  0.00  0.00    +0.000 A 
ATOM     22  C   UNL     1       4.382   4.374  17.213  0.00  0.00    +0.000 A 
ATOM     23  C   UNL     1       4.269   5.778  17.154  0.00  0.00    +0.000 A 
ATOM     24  C   UNL     1       5.004   6.416  16.135  0.00  0.00    +0.000 A 
ATOM     25  C   UNL     1       5.781   5.687  15.198  0.00  0.00    +0.000 A 
BRANCH  20  26
ATOM     26  O   UNL     1       6.585   3.644  14.350  0.00  0.00    +0.000 OA
ATOM     27  H   UNL     1       6.228   2.743  14.265  0.00  0.00    +0.000 HD
ENDBRANCH  20  26
ENDBRANCH  14  23
ENDBRANCH   1  17
BRANCH  10  28
ATOM     28  C   UNL     1      -3.466  13.501  24.365  0.00  0.00    +0.000 C 
BRANCH  28  29
ATOM     29  N   UNL     1      -4.494  12.570  24.833  0.00  0.00    +0.000 NA
ATOM     30  H   UNL     1      -4.513  12.578  25.850  0.00  0.00    +0.000 HD
BRANCH  29  31
ATOM     31  C   UNL     1      -5.854  12.842  24.337  0.00  0.00    +0.000 C 
BRANCH  31  32
ATOM     32  C   UNL     1      -5.976  14.047  23.369  0.00  0.00    +0.000 C 
BRANCH  32  33
ATOM     33  N   UNL     1      -6.814  13.786  22.180  0.00  0.00    +0.000 NA
ATOM     34  C   UNL     1      -6.661  12.392  21.728  0.00  0.00    +0.000 C 
ATOM     35  C   UNL     1      -5.472  12.400  20.785  0.00  0.00    +0.000 C 
ATOM     36  C   UNL     1      -5.550  13.756  20.112  0.00  0.00    +0.000 C 
ATOM     37  C   UNL     1      -6.438  14.605  21.015  0.00  0.00    +0.000 C 
ENDBRANCH  32  33
ENDBRANCH  31  32
ENDBRANCH  29  31
ENDBRANCH  28  29
ENDBRANCH  10  28
TORSDOF 8
ENDMDL
MODEL 2
REMARK VINA RESULT:      -8.1      4.298     11.284
REMARK  Name = 
REMARK  8 active torsions:
REMARK  status: ('A' for Active; 'I' for Inactive)
REMARK    1  A    between atoms: O_1  and  C_2
REMARK    2  A    between atoms: C_5  and  C_6
REMARK    3  A    between atoms: C_9  and  C_10
REMARK    4  A    between atoms: C_19  and  C_20
REMARK    5  A    between atoms: C_20  and  N_21
REMARK    6  A    between atoms: N_21  and  C_22
REMARK    7  A    between atoms: C_22  and  C_23
REMARK    8  A    between atoms: C_23  and  N_24
REMARK                            x       y       z     vdW  Elec       q    Type
REMARK                         _______ _______ _______ _____ _____    ______ ____
ROOT
ATOM      1  C   UNL     1       0.413   9.052  20.979  0.00  0.00    +0.000 A 
ATOM      2  N   UNL     1       0.103   7.868  21.573  0.00  0.00    +0.000 NA
ATOM      3  N   UNL     1       0.912   6.963  21.004  0.00  0.00    +0.000 N 
ATOM      4  C   UNL     1       1.888   7.554  20.288  0.00  0.00    +0.000 A 
ATOM      5  C   UNL     1       1.350   8.771  19.931  0.00  0.00    +0.000 A 
ATOM      6  C   UNL     1       1.827   9.184  18.552  0.00  0.00    +0.000 C 
ATOM      7  C   UNL     1       2.704   7.931  18.210  0.00  0.00    +0.000 A 
ATOM      8  C   UNL     1       3.327   7.531  17.045  0.00  0.00    +0.000 A 
ATOM      9  C   UNL     1       4.074   6.332  17.026  0.00  0.00    +0.000 A 
ATOM     10  C   UNL     1       4.242   5.529  18.182  0.00  0.00    +0.000 A 
ATOM     11  C   UNL     1       3.565   5.901  19.349  0.00  0.00    +0.000 A 
ATOM     12  C   UNL     1       2.785   7.039  19.317  0.00  0.00    +0.000 A 
ATOM     13  H   UNL     1       0.666   5.979  21.038  0.00  0.00    +0.000 HD
ENDROOT
BRANCH   1  17
ATOM     14  C   UNL     1      -2.137  12.329  22.371  0.00  0.00    +0.000 A 
ATOM     15  C   UNL     1      -1.629  11.355  23.259  0.00  0.00    +0.000 A 
ATOM     16  C   UNL     1      -0.716  10.336  22.848  0.00  0.00    +0.000 A 
ATOM     17  C   UNL     1      -0.280  10.245  21.520  0.00  0.00    +0.000 A 
ATOM     18  C   UNL     1      -0.801  11.199  20.630  0.00  0.00    +0.000 A 
ATOM     19  C   UNL     1      -1.696  12.211  21.044  0.00  0.00    +0.000 A 
BRANCH  14  23
ATOM     20  C   UNL     1      -4.820  15.473  23.730  0.00  0.00    +0.000 A 
ATOM     21  C   UNL     1      -5.303  14.185  23.539  0.00  0.00    +0.000 A 
ATOM     22  C   UNL     1      -4.441  13.179  23.078  0.00  0.00    +0.000 A 
ATOM     23  C   UNL     1      -3.084  13.426  22.786  0.00  0.00    +0.000 A 
ATOM     24  C   UNL     1      -2.645  14.754  22.958  0.00  0.00    +0.000 A 
ATOM     25  C   UNL     1      -3.506  15.776  23.434  0.00  0.00    +0.000 A 
BRANCH  20  26
ATOM     26  O   UNL     1      -5.614  16.486  24.205  0.00  0.00    +0.000 OA
ATOM     27  H   UNL     1      -6.499  16.384  23.813  0.00  0.00    +0.000 HD
ENDBRANCH  20  26
ENDBRANCH  14  23
ENDBRANCH   1  17
BRANCH  10  28
ATOM     28  C   UNL     1       5.068   4.256  18.181  0.00  0.00    +0.000 C 
BRANCH  28  29
ATOM     29  N   UNL     1       5.349   3.676  19.495  0.00  0.00    +0.000 NA
ATOM     30  H   UNL     1       5.203   4.385  20.210  0.00  0.00    +0.000 HD
BRANCH  29  31
ATOM     31  C   UNL     1       4.543   2.492  19.839  0.00  0.00    +0.000 C 
BRANCH  31  32
ATOM     32  C   UNL     1       3.451   2.113  18.807  0.00  0.00    +0.000 C 
BRANCH  32  33
ATOM     33  N   UNL     1       2.149   1.756  19.407  0.00  0.00    +0.000 NA
ATOM     34  C   UNL     1       1.039   2.348  18.639  0.00  0.00    +0.000 C 
ATOM     35  C   UNL     1       0.835   3.734  19.224  0.00  0.00    +0.000 C 
ATOM     36  C   UNL     1       1.166   3.561  20.693  0.00  0.00    +0.000 C 
ATOM     37  C   UNL     1       1.979   2.274  20.776  0.00  0.00    +0.000 C 
ENDBRANCH  32  33
ENDBRANCH  31  32
ENDBRANCH  29  31
ENDBRANCH  28  29
ENDBRANCH  10  28
TORSDOF 8
ENDMDL
MODEL 3
REMARK VINA RESULT:      -8.0      0.847      1.189
REMARK  Name = 
REMARK  8 active torsions:
REMARK  status: ('A' for Active; 'I' for Inactive)
REMARK    1  A    between atoms: O_1  and  C_2
REMARK    2  A    between atoms: C_5  and  C_6
REMARK    3  A    between atoms: C_9  and  C_10
REMARK    4  A    between atoms: C_19  and  C_20
REMARK    5  A    between atoms: C_20  and  N_21
REMARK    6  A    between atoms: N_21  and  C_22
REMARK    7  A    between atoms: C_22  and  C_23
REMARK    8  A    between atoms: C_23  and  N_24
REMARK                            x       y       z     vdW  Elec       q    Type
REMARK                         _______ _______ _______ _____ _____    ______ ____
ROOT
ATOM      1  C   UNL     1       0.597   9.339  21.019  0.00  0.00    +0.000 A 
ATOM      2  N   UNL     1       0.774   9.065  22.340  0.00  0.00    +0.000 NA
ATOM      3  N   UNL     1       0.032   9.971  22.993  0.00  0.00    +0.000 N 
ATOM      4  C   UNL     1      -0.804  10.618  22.158  0.00  0.00    +0.000 A 
ATOM      5  C   UNL     1      -0.178  10.542  20.933  0.00  0.00    +0.000 A 
ATOM      6  C   UNL     1      -0.426  11.801  20.125  0.00  0.00    +0.000 C 
ATOM      7  C   UNL     1      -1.280  12.598  21.168  0.00  0.00    +0.000 A 
ATOM      8  C   UNL     1      -1.731  13.903  21.188  0.00  0.00    +0.000 A 
ATOM      9  C   UNL     1      -2.505  14.361  22.277  0.00  0.00    +0.000 A 
ATOM     10  C   UNL     1      -2.873  13.512  23.351  0.00  0.00    +0.000 A 
ATOM     11  C   UNL     1      -2.371  12.206  23.363  0.00  0.00    +0.000 A 
ATOM     12  C   UNL     1      -1.558  11.809  22.320  0.00  0.00    +0.000 A 
ATOM     13  H   UNL     1       0.237  10.181  23.964  0.00  0.00    +0.000 HD
ENDROOT
BRANCH   1  17
ATOM     14  C   UNL     1       2.997   6.847  18.334  0.00  0.00    +0.000 A 
ATOM     15  C   UNL     1       2.603   6.394  19.613  0.00  0.00    +0.000 A 
ATOM     16  C   UNL     1       1.738   7.147  20.466  0.00  0.00    +0.000 A 
ATOM     17  C   UNL     1       1.238   8.395  20.074  0.00  0.00    +0.000 A 
ATOM     18  C   UNL     1       1.645   8.857  18.811  0.00  0.00    +0.000 A 
ATOM     19  C   UNL     1       2.493   8.105  17.968  0.00  0.00    +0.000 A 
BRANCH  14  23
ATOM     20  C   UNL     1       5.689   4.567  15.788  0.00  0.00    +0.000 A 
ATOM     21  C   UNL     1       5.703   5.956  15.743  0.00  0.00    +0.000 A 
ATOM     22  C   UNL     1       4.817   6.687  16.547  0.00  0.00    +0.000 A 
ATOM     23  C   UNL     1       3.890   6.063  17.408  0.00  0.00    +0.000 A 
ATOM     24  C   UNL     1       3.885   4.653  17.394  0.00  0.00    +0.000 A 
ATOM     25  C   UNL     1       4.784   3.905  16.593  0.00  0.00    +0.000 A 
BRANCH  20  26
ATOM     26  O   UNL     1       6.553   3.806  15.042  0.00  0.00    +0.000 OA
ATOM     27  H   UNL     1       7.392   4.291  14.962  0.00  0.00    +0.000 HD
ENDBRANCH  20  26
ENDBRANCH  14  23
ENDBRANCH   1  17
BRANCH  10  28
ATOM     28  C   UNL     1      -3.731  13.984  24.511  0.00  0.00    +0.000 C 
BRANCH  28  29
ATOM     29  N   UNL     1      -4.482  15.221  24.286  0.00  0.00    +0.000 NA
ATOM     30  H   UNL     1      -4.010  15.773  23.575  0.00  0.00    +0.000 HD
BRANCH  29  31
ATOM     31  C   UNL     1      -5.885  15.033  23.879  0.00  0.00    +0.000 C 
BRANCH  31  32
ATOM     32  C   UNL     1      -6.146  15.119  22.354  0.00  0.00    +0.000 C 
BRANCH  32  33
ATOM     33  N   UNL     1      -6.933  13.992  21.811  0.00  0.00    +0.000 NA
ATOM     34  C   UNL     1      -6.205  12.721  21.972  0.00  0.00    +0.000 C 
ATOM     35  C   UNL     1      -5.329  12.595  20.739  0.00  0.00    +0.000 C 
ATOM     36  C   UNL     1      -6.151  13.242  19.642  0.00  0.00    +0.000 C 
ATOM     37  C   UNL     1      -7.182  14.102  20.363  0.00  0.00    +0.000 C 
ENDBRANCH  32  33
ENDBRANCH  31  32
ENDBRANCH  29  31
ENDBRANCH  28  29
ENDBRANCH  10  28
TORSDOF 8
ENDMDL
MODEL 4
REMARK VINA RESULT:      -8.0      4.417     11.273
REMARK  Name = 
REMARK  8 active torsions:
REMARK  status: ('A' for Active; 'I' for Inactive)
REMARK    1  A    between atoms: O_1  and  C_2
REMARK    2  A    between atoms: C_5  and  C_6
REMARK    3  A    between atoms: C_9  and  C_10
REMARK    4  A    between atoms: C_19  and  C_20
REMARK    5  A    between atoms: C_20  and  N_21
REMARK    6  A    between atoms: N_21  and  C_22
REMARK    7  A    between atoms: C_22  and  C_23
REMARK    8  A    between atoms: C_23  and  N_24
REMARK                            x       y       z     vdW  Elec       q    Type
REMARK                         _______ _______ _______ _____ _____    ______ ____
ROOT
ATOM      1  C   UNL     1       0.568   8.835  20.787  0.00  0.00    +0.000 A 
ATOM      2  N   UNL     1       0.401   7.668  21.466  0.00  0.00    +0.000 NA
ATOM      3  N   UNL     1       1.292   6.818  20.935  0.00  0.00    +0.000 N 
ATOM      4  C   UNL     1       2.183   7.460  20.155  0.00  0.00    +0.000 A 
ATOM      5  C   UNL     1       1.509   8.585  19.734  0.00  0.00    +0.000 A 
ATOM      6  C   UNL     1       1.909   8.951  18.318  0.00  0.00    +0.000 C 
ATOM      7  C   UNL     1       2.910   7.779  18.035  0.00  0.00    +0.000 A 
ATOM      8  C   UNL     1       3.548   7.369  16.881  0.00  0.00    +0.000 A 
ATOM      9  C   UNL     1       4.420   6.258  16.921  0.00  0.00    +0.000 A 
ATOM     10  C   UNL     1       4.698   5.559  18.121  0.00  0.00    +0.000 A 
ATOM     11  C   UNL     1       4.010   5.936  19.280  0.00  0.00    +0.000 A 
ATOM     12  C   UNL     1       3.110   6.979  19.195  0.00  0.00    +0.000 A 
ATOM     13  H   UNL     1       1.155   5.818  21.041  0.00  0.00    +0.000 HD
ENDROOT
BRANCH   1  17
ATOM     14  C   UNL     1      -1.341  12.369  22.531  0.00  0.00    +0.000 A 
ATOM     15  C   UNL     1      -0.849  12.369  21.207  0.00  0.00    +0.000 A 
ATOM     16  C   UNL     1      -0.314  11.200  20.582  0.00  0.00    +0.000 A 
ATOM     17  C   UNL     1      -0.239   9.981  21.267  0.00  0.00    +0.000 A 
ATOM     18  C   UNL     1      -0.708   9.984  22.591  0.00  0.00    +0.000 A 
ATOM     19  C   UNL     1      -1.245  11.139  23.201  0.00  0.00    +0.000 A 
BRANCH  14  23
ATOM     20  C   UNL     1      -3.020  15.792  24.626  0.00  0.00    +0.000 A 
ATOM     21  C   UNL     1      -3.864  14.838  24.071  0.00  0.00    +0.000 A 
ATOM     22  C   UNL     1      -3.320  13.749  23.376  0.00  0.00    +0.000 A 
ATOM     23  C   UNL     1      -1.930  13.583  23.204  0.00  0.00    +0.000 A 
ATOM     24  C   UNL     1      -1.113  14.593  23.750  0.00  0.00    +0.000 A 
ATOM     25  C   UNL     1      -1.653  15.693  24.464  0.00  0.00    +0.000 A 
BRANCH  20  26
ATOM     26  O   UNL     1      -3.500  16.863  25.338  0.00  0.00    +0.000 OA
ATOM     27  H   UNL     1      -4.398  16.645  25.642  0.00  0.00    +0.000 HD
ENDBRANCH  20  26
ENDBRANCH  14  23
ENDBRANCH   1  17
BRANCH  10  28
ATOM     28  C   UNL     1       5.658   4.385  18.181  0.00  0.00    +0.000 C 
BRANCH  28  29
ATOM     29  N   UNL     1       5.599   3.573  19.398  0.00  0.00    +0.000 NA
ATOM     30  H   UNL     1       5.337   4.167  20.181  0.00  0.00    +0.000 HD
BRANCH  29  31
ATOM     31  C   UNL     1       4.669   2.433  19.343  0.00  0.00    +0.000 C 
BRANCH  31  32
ATOM     32  C   UNL     1       3.342   2.625  20.120  0.00  0.00    +0.000 C 
BRANCH  32  33
ATOM     33  N   UNL     1       2.138   2.204  19.374  0.00  0.00    +0.000 NA
ATOM     34  C   UNL     1       2.463   1.945  17.960  0.00  0.00    +0.000 C 
ATOM     35  C   UNL     1       2.326   3.285  17.260  0.00  0.00    +0.000 C 
ATOM     36  C   UNL     1       1.198   3.971  18.006  0.00  0.00    +0.000 C 
ATOM     37  C   UNL     1       1.088   3.237  19.337  0.00  0.00    +0.000 C 
ENDBRANCH  32  33
ENDBRANCH  31  32
ENDBRANCH  29  31
ENDBRANCH  28  29
ENDBRANCH  10  28
TORSDOF 8
ENDMDL
MODEL 5
REMARK VINA RESULT:      -7.9      0.631      1.008
REMARK  Name = 
REMARK  8 active torsions:
REMARK  status: ('A' for Active; 'I' for Inactive)
REMARK    1  A    between atoms: O_1  and  C_2
REMARK    2  A    between atoms: C_5  and  C_6
REMARK    3  A    between atoms: C_9  and  C_10
REMARK    4  A    between atoms: C_19  and  C_20
REMARK    5  A    between atoms: C_20  and  N_21
REMARK    6  A    between atoms: N_21  and  C_22
REMARK    7  A    between atoms: C_22  and  C_23
REMARK    8  A    between atoms: C_23  and  N_24
REMARK                            x       y       z     vdW  Elec       q    Type
REMARK                         _______ _______ _______ _____ _____    ______ ____
ROOT
ATOM      1  C   UNL     1       0.979   8.957  20.674  0.00  0.00    +0.000 A 
ATOM      2  N   UNL     1       1.309   8.802  21.985  0.00  0.00    +0.000 NA
ATOM      3  N   UNL     1       0.529   9.663  22.653  0.00  0.00    +0.000 N 
ATOM      4  C   UNL     1      -0.452  10.150  21.868  0.00  0.00    +0.000 A 
ATOM      5  C   UNL     1       0.061  10.056  20.594  0.00  0.00    +0.000 A 
ATOM      6  C   UNL     1      -0.409  11.216  19.739  0.00  0.00    +0.000 C 
ATOM      7  C   UNL     1      -1.252  11.986  20.812  0.00  0.00    +0.000 A 
ATOM      8  C   UNL     1      -1.851  13.230  20.797  0.00  0.00    +0.000 A 
ATOM      9  C   UNL     1      -2.570  13.675  21.929  0.00  0.00    +0.000 A 
ATOM     10  C   UNL     1      -2.733  12.870  23.084  0.00  0.00    +0.000 A 
ATOM     11  C   UNL     1      -2.079  11.633  23.125  0.00  0.00    +0.000 A 
ATOM     12  C   UNL     1      -1.325  11.256  22.032  0.00  0.00    +0.000 A 
ATOM     13  H   UNL     1       0.796   9.965  23.583  0.00  0.00    +0.000 HD
ENDROOT
BRANCH   1  17
ATOM     14  C   UNL     1       3.426   6.507  17.994  0.00  0.00    +0.000 A 
ATOM     15  C   UNL     1       3.030   6.044  19.268  0.00  0.00    +0.000 A 
ATOM     16  C   UNL     1       2.151   6.781  20.119  0.00  0.00    +0.000 A 
ATOM     17  C   UNL     1       1.638   8.025  19.729  0.00  0.00    +0.000 A 
ATOM     18  C   UNL     1       2.047   8.498  18.471  0.00  0.00    +0.000 A 
ATOM     19  C   UNL     1       2.909   7.760  17.630  0.00  0.00    +0.000 A 
BRANCH  14  23
ATOM     20  C   UNL     1       5.921   4.280  15.211  0.00  0.00    +0.000 A 
ATOM     21  C   UNL     1       5.252   3.611  16.229  0.00  0.00    +0.000 A 
ATOM     22  C   UNL     1       4.468   4.335  17.138  0.00  0.00    +0.000 A 
ATOM     23  C   UNL     1       4.335   5.738  17.069  0.00  0.00    +0.000 A 
ATOM     24  C   UNL     1       5.060   6.378  16.045  0.00  0.00    +0.000 A 
ATOM     25  C   UNL     1       5.847   5.654  15.114  0.00  0.00    +0.000 A 
BRANCH  20  26
ATOM     26  O   UNL     1       6.680   3.616  14.279  0.00  0.00    +0.000 OA
ATOM     27  H   UNL     1       7.341   4.238  13.930  0.00  0.00    +0.000 HD
ENDBRANCH  20  26
ENDBRANCH  14  23
ENDBRANCH   1  17
BRANCH  10  28
ATOM     28  C   UNL     1      -3.529  13.326  24.293  0.00  0.00    +0.000 C 
BRANCH  28  29
ATOM     29  N   UNL     1      -4.598  12.426  24.728  0.00  0.00    +0.000 NA
ATOM     30  H   UNL     1      -4.564  12.334  25.741  0.00  0.00    +0.000 HD
BRANCH  29  31
ATOM     31  C   UNL     1      -5.958  12.840  24.342  0.00  0.00    +0.000 C 
BRANCH  31  32
ATOM     32  C   UNL     1      -6.149  13.156  22.837  0.00  0.00    +0.000 C 
BRANCH  32  33
ATOM     33  N   UNL     1      -6.838  14.436  22.570  0.00  0.00    +0.000 NA
ATOM     34  C   UNL     1      -6.819  14.750  21.131  0.00  0.00    +0.000 C 
ATOM     35  C   UNL     1      -5.518  15.498  20.896  0.00  0.00    +0.000 C 
ATOM     36  C   UNL     1      -5.311  16.277  22.180  0.00  0.00    +0.000 C 
ATOM     37  C   UNL     1      -6.190  15.590  23.217  0.00  0.00    +0.000 C 
ENDBRANCH  32  33
ENDBRANCH  31  32
ENDBRANCH  29  31
ENDBRANCH  28  29
ENDBRANCH  10  28
TORSDOF 8
ENDMDL
MODEL 6
REMARK VINA RESULT:      -7.9      0.827      1.294
REMARK  Name = 
REMARK  8 active torsions:
REMARK  status: ('A' for Active; 'I' for Inactive)
REMARK    1  A    between atoms: O_1  and  C_2
REMARK    2  A    between atoms: C_5  and  C_6
REMARK    3  A    between atoms: C_9  and  C_10
REMARK    4  A    between atoms: C_19  and  C_20
REMARK    5  A    between atoms: C_20  and  N_21
REMARK    6  A    between atoms: N_21  and  C_22
REMARK    7  A    between atoms: C_22  and  C_23
REMARK    8  A    between atoms: C_23  and  N_24
REMARK                            x       y       z     vdW  Elec       q    Type
REMARK                         _______ _______ _______ _____ _____    ______ ____
ROOT
ATOM      1  C   UNL     1       0.755   9.271  20.993  0.00  0.00    +0.000 A 
ATOM      2  N   UNL     1       0.569   8.808  22.259  0.00  0.00    +0.000 NA
ATOM      3  N   UNL     1      -0.085   9.786  22.902  0.00  0.00    +0.000 N 
ATOM      4  C   UNL     1      -0.553  10.714  22.044  0.00  0.00    +0.000 A 
ATOM      5  C   UNL     1       0.298  10.630  20.964  0.00  0.00    +0.000 A 
ATOM      6  C   UNL     1       0.516  11.997  20.346  0.00  0.00    +0.000 C 
ATOM      7  C   UNL     1      -0.355  12.852  21.327  0.00  0.00    +0.000 A 
ATOM      8  C   UNL     1      -0.505  14.216  21.479  0.00  0.00    +0.000 A 
ATOM      9  C   UNL     1      -1.384  14.719  22.463  0.00  0.00    +0.000 A 
ATOM     10  C   UNL     1      -2.158  13.868  23.291  0.00  0.00    +0.000 A 
ATOM     11  C   UNL     1      -1.967  12.486  23.179  0.00  0.00    +0.000 A 
ATOM     12  C   UNL     1      -1.047  12.026  22.257  0.00  0.00    +0.000 A 
ATOM     13  H   UNL     1      -0.061   9.823  23.915  0.00  0.00    +0.000 HD
ENDROOT
BRANCH   1  17
ATOM     14  C   UNL     1       3.083   6.742  18.279  0.00  0.00    +0.000 A 
ATOM     15  C   UNL     1       2.708   6.300  19.567  0.00  0.00    +0.000 A 
ATOM     16  C   UNL     1       1.866   7.065  20.432  0.00  0.00    +0.000 A 
ATOM     17  C   UNL     1       1.370   8.315  20.041  0.00  0.00    +0.000 A 
ATOM     18  C   UNL     1       1.759   8.767  18.769  0.00  0.00    +0.000 A 
ATOM     19  C   UNL     1       2.584   8.002  17.915  0.00  0.00    +0.000 A 
BRANCH  14  23
ATOM     20  C   UNL     1       5.710   4.428  15.696  0.00  0.00    +0.000 A 
ATOM     21  C   UNL     1       5.706   5.815  15.616  0.00  0.00    +0.000 A 
ATOM     22  C   UNL     1       4.841   6.556  16.433  0.00  0.00    +0.000 A 
ATOM     23  C   UNL     1       3.952   5.944  17.341  0.00  0.00    +0.000 A 
ATOM     24  C   UNL     1       3.963   4.535  17.362  0.00  0.00    +0.000 A 
ATOM     25  C   UNL     1       4.842   3.776  16.548  0.00  0.00    +0.000 A 
BRANCH  20  26
ATOM     26  O   UNL     1       6.556   3.657  14.939  0.00  0.00    +0.000 OA
ATOM     27  H   UNL     1       6.569   2.762  15.318  0.00  0.00    +0.000 HD
ENDBRANCH  20  26
ENDBRANCH  14  23
ENDBRANCH   1  17
BRANCH  10  28
ATOM     28  C   UNL     1      -3.129  14.397  24.330  0.00  0.00    +0.000 C 
BRANCH  28  29
ATOM     29  N   UNL     1      -3.705  13.400  25.233  0.00  0.00    +0.000 NA
ATOM     30  H   UNL     1      -4.093  13.871  26.046  0.00  0.00    +0.000 HD
BRANCH  29  31
ATOM     31  C   UNL     1      -4.752  12.551  24.639  0.00  0.00    +0.000 C 
BRANCH  31  32
ATOM     32  C   UNL     1      -5.637  13.244  23.572  0.00  0.00    +0.000 C 
BRANCH  32  33
ATOM     33  N   UNL     1      -6.019  12.370  22.443  0.00  0.00    +0.000 NA
ATOM     34  C   UNL     1      -5.176  12.641  21.265  0.00  0.00    +0.000 C 
ATOM     35  C   UNL     1      -5.869  13.767  20.520  0.00  0.00    +0.000 C 
ATOM     36  C   UNL     1      -7.343  13.510  20.763  0.00  0.00    +0.000 C 
ATOM     37  C   UNL     1      -7.399  12.593  21.978  0.00  0.00    +0.000 C 
ENDBRANCH  32  33
ENDBRANCH  31  32
ENDBRANCH  29  31
ENDBRANCH  28  29
ENDBRANCH  10  28
TORSDOF 8
ENDMDL
MODEL 7
REMARK VINA RESULT:      -7.9      4.320     11.317
REMARK  Name = 
REMARK  8 active torsions:
REMARK  status: ('A' for Active; 'I' for Inactive)
REMARK    1  A    between atoms: O_1  and  C_2
REMARK    2  A    between atoms: C_5  and  C_6
REMARK    3  A    between atoms: C_9  and  C_10
REMARK    4  A    between atoms: C_19  and  C_20
REMARK    5  A    between atoms: C_20  and  N_21
REMARK    6  A    between atoms: N_21  and  C_22
REMARK    7  A    between atoms: C_22  and  C_23
REMARK    8  A    between atoms: C_23  and  N_24
REMARK                            x       y       z     vdW  Elec       q    Type
REMARK                         _______ _______ _______ _____ _____    ______ ____
ROOT
ATOM      1  C   UNL     1       0.275   9.327  20.916  0.00  0.00    +0.000 A 
ATOM      2  N   UNL     1      -0.004   8.197  21.621  0.00  0.00    +0.000 NA
ATOM      3  N   UNL     1       0.824   7.261  21.135  0.00  0.00    +0.000 N 
ATOM      4  C   UNL     1       1.784   7.806  20.362  0.00  0.00    +0.000 A 
ATOM      5  C   UNL     1       1.216   8.970  19.894  0.00  0.00    +0.000 A 
ATOM      6  C   UNL     1       1.678   9.263  18.481  0.00  0.00    +0.000 C 
ATOM      7  C   UNL     1       2.583   8.005  18.253  0.00  0.00    +0.000 A 
ATOM      8  C   UNL     1       3.212   7.512  17.127  0.00  0.00    +0.000 A 
ATOM      9  C   UNL     1       3.988   6.334  17.217  0.00  0.00    +0.000 A 
ATOM     10  C   UNL     1       4.179   5.648  18.442  0.00  0.00    +0.000 A 
ATOM     11  C   UNL     1       3.497   6.113  19.573  0.00  0.00    +0.000 A 
ATOM     12  C   UNL     1       2.689   7.224  19.438  0.00  0.00    +0.000 A 
ATOM     13  H   UNL     1       0.603   6.280  21.263  0.00  0.00    +0.000 HD
ENDROOT
BRANCH   1  17
ATOM     14  C   UNL     1      -2.353  12.640  22.055  0.00  0.00    +0.000 A 
ATOM     15  C   UNL     1      -1.730  11.821  23.022  0.00  0.00    +0.000 A 
ATOM     16  C   UNL     1      -0.792  10.798  22.680  0.00  0.00    +0.000 A 
ATOM     17  C   UNL     1      -0.445  10.548  21.346  0.00  0.00    +0.000 A 
ATOM     18  C   UNL     1      -1.079  11.347  20.381  0.00  0.00    +0.000 A 
ATOM     19  C   UNL     1      -1.999  12.363  20.725  0.00  0.00    +0.000 A 
BRANCH  14  23
ATOM     20  C   UNL     1      -5.085  15.912  22.921  0.00  0.00    +0.000 A 
ATOM     21  C   UNL     1      -4.017  15.659  23.772  0.00  0.00    +0.000 A 
ATOM     22  C   UNL     1      -3.153  14.588  23.503  0.00  0.00    +0.000 A 
ATOM     23  C   UNL     1      -3.329  13.738  22.392  0.00  0.00    +0.000 A 
ATOM     24  C   UNL     1      -4.446  14.009  21.577  0.00  0.00    +0.000 A 
ATOM     25  C   UNL     1      -5.320  15.096  21.834  0.00  0.00    +0.000 A 
BRANCH  20  26
ATOM     26  O   UNL     1      -5.944  16.963  23.124  0.00  0.00    +0.000 OA
ATOM     27  H   UNL     1      -6.648  16.665  23.727  0.00  0.00    +0.000 HD
ENDBRANCH  20  26
ENDBRANCH  14  23
ENDBRANCH   1  17
BRANCH  10  28
ATOM     28  C   UNL     1       5.036   4.401  18.556  0.00  0.00    +0.000 C 
BRANCH  28  29
ATOM     29  N   UNL     1       4.824   3.384  17.524  0.00  0.00    +0.000 NA
ATOM     30  H   UNL     1       5.725   3.009  17.236  0.00  0.00    +0.000 HD
BRANCH  29  31
ATOM     31  C   UNL     1       3.956   2.263  17.922  0.00  0.00    +0.000 C 
BRANCH  31  32
ATOM     32  C   UNL     1       3.597   2.208  19.429  0.00  0.00    +0.000 C 
BRANCH  32  33
ATOM     33  N   UNL     1       2.180   1.890  19.703  0.00  0.00    +0.000 NA
ATOM     34  C   UNL     1       1.324   2.306  18.577  0.00  0.00    +0.000 C 
ATOM     35  C   UNL     1       0.966   3.755  18.854  0.00  0.00    +0.000 C 
ATOM     36  C   UNL     1       0.880   3.825  20.366  0.00  0.00    +0.000 C 
ATOM     37  C   UNL     1       1.640   2.605  20.872  0.00  0.00    +0.000 C 
ENDBRANCH  32  33
ENDBRANCH  31  32
ENDBRANCH  29  31
ENDBRANCH  28  29
ENDBRANCH  10  28
TORSDOF 8
ENDMDL
MODEL 8
REMARK VINA RESULT:      -7.8      2.080      3.850
REMARK  Name = 
REMARK  8 active torsions:
REMARK  status: ('A' for Active; 'I' for Inactive)
REMARK    1  A    between atoms: O_1  and  C_2
REMARK    2  A    between atoms: C_5  and  C_6
REMARK    3  A    between atoms: C_9  and  C_10
REMARK    4  A    between atoms: C_19  and  C_20
REMARK    5  A    between atoms: C_20  and  N_21
REMARK    6  A    between atoms: N_21  and  C_22
REMARK    7  A    between atoms: C_22  and  C_23
REMARK    8  A    between atoms: C_23  and  N_24
REMARK                            x       y       z     vdW  Elec       q    Type
REMARK                         _______ _______ _______ _____ _____    ______ ____
ROOT
ATOM      1  C   UNL     1      -0.785  11.012  19.228  0.00  0.00    +0.000 A 
ATOM      2  N   UNL     1      -0.599  12.085  20.044  0.00  0.00    +0.000 NA
ATOM      3  N   UNL     1      -1.790  12.696  20.106  0.00  0.00    +0.000 N 
ATOM      4  C   UNL     1      -2.768  11.922  19.596  0.00  0.00    +0.000 A 
ATOM      5  C   UNL     1      -2.116  11.104  18.700  0.00  0.00    +0.000 A 
ATOM      6  C   UNL     1      -2.995  10.814  17.500  0.00  0.00    +0.000 C 
ATOM      7  C   UNL     1      -4.246  11.668  17.899  0.00  0.00    +0.000 A 
ATOM      8  C   UNL     1      -5.388  12.012  17.204  0.00  0.00    +0.000 A 
ATOM      9  C   UNL     1      -6.376  12.806  17.830  0.00  0.00    +0.000 A 
ATOM     10  C   UNL     1      -6.256  13.241  19.173  0.00  0.00    +0.000 A 
ATOM     11  C   UNL     1      -5.074  12.942  19.861  0.00  0.00    +0.000 A 
ATOM     12  C   UNL     1      -4.097  12.226  19.200  0.00  0.00    +0.000 A 
ATOM     13  H   UNL     1      -1.840  13.671  20.381  0.00  0.00    +0.000 HD
ENDROOT
BRANCH   1  17
ATOM     14  C   UNL     1       2.245   7.882  18.783  0.00  0.00    +0.000 A 
ATOM     15  C   UNL     1       1.872   8.712  17.703  0.00  0.00    +0.000 A 
ATOM     16  C   UNL     1       0.961   9.804  17.847  0.00  0.00    +0.000 A 
ATOM     17  C   UNL     1       0.376  10.102  19.084  0.00  0.00    +0.000 A 
ATOM     18  C   UNL     1       0.728   9.265  20.155  0.00  0.00    +0.000 A 
ATOM     19  C   UNL     1       1.637   8.193  20.010  0.00  0.00    +0.000 A 
BRANCH  14  23
ATOM     20  C   UNL     1       5.162   4.664  18.541  0.00  0.00    +0.000 A 
ATOM     21  C   UNL     1       5.147   5.659  17.572  0.00  0.00    +0.000 A 
ATOM     22  C   UNL     1       4.190   6.682  17.640  0.00  0.00    +0.000 A 
ATOM     23  C   UNL     1       3.219   6.739  18.661  0.00  0.00    +0.000 A 
ATOM     24  C   UNL     1       3.248   5.689  19.601  0.00  0.00    +0.000 A 
ATOM     25  C   UNL     1       4.218   4.656  19.548  0.00  0.00    +0.000 A 
BRANCH  20  26
ATOM     26  O   UNL     1       6.094   3.656  18.536  0.00  0.00    +0.000 OA
ATOM     27  H   UNL     1       6.567   3.678  19.386  0.00  0.00    +0.000 HD
ENDBRANCH  20  26
ENDBRANCH  14  23
ENDBRANCH   1  17
BRANCH  10  28
ATOM     28  C   UNL     1      -7.325  14.067  19.865  0.00  0.00    +0.000 C 
BRANCH  28  29
ATOM     29  N   UNL     1      -7.553  13.761  21.278  0.00  0.00    +0.000 NA
ATOM     30  H   UNL     1      -6.963  12.978  21.549  0.00  0.00    +0.000 HD
BRANCH  29  31
ATOM     31  C   UNL     1      -7.305  14.877  22.205  0.00  0.00    +0.000 C 
BRANCH  31  32
ATOM     32  C   UNL     1      -5.817  15.124  22.559  0.00  0.00    +0.000 C 
BRANCH  32  33
ATOM     33  N   UNL     1      -5.366  14.441  23.791  0.00  0.00    +0.000 NA
ATOM     34  C   UNL     1      -4.020  14.898  24.178  0.00  0.00    +0.000 C 
ATOM     35  C   UNL     1      -3.055  13.998  23.427  0.00  0.00    +0.000 C 
ATOM     36  C   UNL     1      -3.773  12.665  23.367  0.00  0.00    +0.000 C 
ATOM     37  C   UNL     1      -5.239  12.982  23.632  0.00  0.00    +0.000 C 
ENDBRANCH  32  33
ENDBRANCH  31  32
ENDBRANCH  29  31
ENDBRANCH  28  29
ENDBRANCH  10  28
TORSDOF 8
ENDMDL
MODEL 9
REMARK VINA RESULT:      -7.7      4.430     11.510
REMARK  Name = 
REMARK  8 active torsions:
REMARK  status: ('A' for Active; 'I' for Inactive)
REMARK    1  A    between atoms: O_1  and  C_2
REMARK    2  A    between atoms: C_5  and  C_6
REMARK    3  A    between atoms: C_9  and  C_10
REMARK    4  A    between atoms: C_19  and  C_20
REMARK    5  A    between atoms: C_20  and  N_21
REMARK    6  A    between atoms: N_21  and  C_22
REMARK    7  A    between atoms: C_22  and  C_23
REMARK    8  A    between atoms: C_23  and  N_24
REMARK                            x       y       z     vdW  Elec       q    Type
REMARK                         _______ _______ _______ _____ _____    ______ ____
ROOT
ATOM      1  C   UNL     1      -0.354  10.042  21.323  0.00  0.00    +0.000 A 
ATOM      2  N   UNL     1      -0.621   8.929  22.058  0.00  0.00    +0.000 NA
ATOM      3  N   UNL     1       0.197   7.981  21.577  0.00  0.00    +0.000 N 
ATOM      4  C   UNL     1       1.141   8.507  20.773  0.00  0.00    +0.000 A 
ATOM      5  C   UNL     1       0.566   9.661  20.291  0.00  0.00    +0.000 A 
ATOM      6  C   UNL     1       1.000   9.921  18.862  0.00  0.00    +0.000 C 
ATOM      7  C   UNL     1       1.899   8.657  18.644  0.00  0.00    +0.000 A 
ATOM      8  C   UNL     1       2.504   8.137  17.517  0.00  0.00    +0.000 A 
ATOM      9  C   UNL     1       3.280   6.960  17.618  0.00  0.00    +0.000 A 
ATOM     10  C   UNL     1       3.494   6.301  18.854  0.00  0.00    +0.000 A 
ATOM     11  C   UNL     1       2.836   6.792  19.988  0.00  0.00    +0.000 A 
ATOM     12  C   UNL     1       2.028   7.902  19.844  0.00  0.00    +0.000 A 
ATOM     13  H   UNL     1      -0.023   7.003  21.732  0.00  0.00    +0.000 HD
ENDROOT
BRANCH   1  17
ATOM     14  C   UNL     1      -2.939  13.433  22.323  0.00  0.00    +0.000 A 
ATOM     15  C   UNL     1      -2.524  12.502  23.301  0.00  0.00    +0.000 A 
ATOM     16  C   UNL     1      -1.601  11.447  23.021  0.00  0.00    +0.000 A 
ATOM     17  C   UNL     1      -1.063  11.275  21.740  0.00  0.00    +0.000 A 
ATOM     18  C   UNL     1      -1.491  12.185  20.760  0.00  0.00    +0.000 A 
ATOM     19  C   UNL     1      -2.395  13.233  21.045  0.00  0.00    +0.000 A 
BRANCH  14  23
ATOM     20  C   UNL     1      -5.824  16.594  23.102  0.00  0.00    +0.000 A 
ATOM     21  C   UNL     1      -5.313  16.423  21.822  0.00  0.00    +0.000 A 
ATOM     22  C   UNL     1      -4.365  15.419  21.579  0.00  0.00    +0.000 A 
ATOM     23  C   UNL     1      -3.893  14.566  22.599  0.00  0.00    +0.000 A 
ATOM     24  C   UNL     1      -4.410  14.800  23.889  0.00  0.00    +0.000 A 
ATOM     25  C   UNL     1      -5.377  15.806  24.142  0.00  0.00    +0.000 A 
BRANCH  20  26
ATOM     26  O   UNL     1      -6.772  17.545  23.387  0.00  0.00    +0.000 OA
ATOM     27  H   UNL     1      -6.395  18.163  24.036  0.00  0.00    +0.000 HD
ENDBRANCH  20  26
ENDBRANCH  14  23
ENDBRANCH   1  17
BRANCH  10  28
ATOM     28  C   UNL     1       4.352   5.055  18.979  0.00  0.00    +0.000 C 
BRANCH  28  29
ATOM     29  N   UNL     1       4.643   4.353  17.728  0.00  0.00    +0.000 NA
ATOM     30  H   UNL     1       5.648   4.217  17.649  0.00  0.00    +0.000 HD
BRANCH  29  31
ATOM     31  C   UNL     1       3.981   3.046  17.578  0.00  0.00    +0.000 C 
BRANCH  31  32
ATOM     32  C   UNL     1       2.432   3.090  17.546  0.00  0.00    +0.000 C 
BRANCH  32  33
ATOM     33  N   UNL     1       1.781   2.201  18.532  0.00  0.00    +0.000 NA
ATOM     34  C   UNL     1       0.514   2.786  19.006  0.00  0.00    +0.000 C 
ATOM     35  C   UNL     1       0.891   3.673  20.179  0.00  0.00    +0.000 C 
ATOM     36  C   UNL     1       2.059   2.950  20.820  0.00  0.00    +0.000 C 
ATOM     37  C   UNL     1       2.584   2.000  19.750  0.00  0.00    +0.000 C 
ENDBRANCH  32  33
ENDBRANCH  31  32
ENDBRANCH  29  31
ENDBRANCH  28  29
ENDBRANCH  10  28
TORSDOF 8
ENDMDL
