MODEL 1
REMARK VINA RESULT:      -7.0      0.000      0.000
REMARK  Name = 
REMARK  10 active torsions:
REMARK  status: ('A' for Active; 'I' for Inactive)
REMARK    1  A    between atoms: C_1  and  O_2
REMARK    2  A    between atoms: O_2  and  C_3
REMARK    3  A    between atoms: C_3  and  C_4
REMARK    4  A    between atoms: C_4  and  C_5
REMARK    5  A    between atoms: N_7  and  C_8
REMARK    6  A    between atoms: C_11  and  C_12
REMARK    7  A    between atoms: C_12  and  C_13
REMARK    8  A    between atoms: C_13  and  N_14
REMARK    9  A    between atoms: N_17  and  C_18
REMARK   10  A    between atoms: C_22  and  C_23
REMARK                            x       y       z     vdW  Elec       q    Type
REMARK                         _______ _______ _______ _____ _____    ______ ____
ROOT
ATOM      1  C   UNL     1       4.527   3.477  17.272  0.00  0.00    +0.000 C 
ENDROOT
BRANCH   1   5
ATOM      2  C   UNL     1       7.074   6.877  18.165  0.00  0.00    +0.000 C 
ATOM      3  C   UNL     1       7.036   6.425  16.700  0.00  0.00    +0.000 C 
ATOM      4  C   UNL     1       5.829   5.524  16.448  0.00  0.00    +0.000 C 
ATOM      5  C   UNL     1       5.783   4.340  17.428  0.00  0.00    +0.000 C 
ATOM      6  C   UNL     1       5.872   4.804  18.881  0.00  0.00    +0.000 C 
ATOM      7  C   UNL     1       7.110   5.652  19.087  0.00  0.00    +0.000 C 
BRANCH   2  10
ATOM      8  C   UNL     1       8.258   9.063  18.199  0.00  0.00    +0.000 C 
ATOM      9  O   UNL     1       7.382   9.682  17.599  0.00  0.00    +0.000 OA
ATOM     10  N   UNL     1       8.207   7.716  18.482  0.00  0.00    +0.000 N 
ATOM     11  H   UNL     1       8.701   7.482  19.343  0.00  0.00    +0.000 HD
BRANCH   8  12
ATOM     12  C   UNL     1       9.538   9.724  18.659  0.00  0.00    +0.000 C 
BRANCH  12  13
ATOM     13  C   UNL     1       9.592  11.182  18.233  0.00  0.00    +0.000 C 
BRANCH  13  15
ATOM     14  C   UNL     1      11.206  11.930  19.798  0.00  0.00    +0.000 C 
ATOM     15  O   UNL     1       9.848  11.990  19.388  0.00  0.00    +0.000 OA
ENDBRANCH  13  15
ENDBRANCH  12  13
ENDBRANCH   8  12
ENDBRANCH   2  10
ENDBRANCH   1   5
BRANCH   1  16
ATOM     16  C   UNL     1       3.767   3.398  18.587  0.00  0.00    +0.000 C 
BRANCH  16  17
ATOM     17  N   UNL     1       2.350   3.769  18.483  0.00  0.00    +0.000 NA
ATOM     18  C   UNL     1       1.873   4.184  19.827  0.00  0.00    +0.000 C 
ATOM     19  C   UNL     1       2.568   5.448  20.378  0.00  0.00    +0.000 C 
ATOM     20  N   UNL     1       2.518   6.551  19.406  0.00  0.00    +0.000 N 
ATOM     21  C   UNL     1       2.809   6.230  17.995  0.00  0.00    +0.000 C 
ATOM     22  C   UNL     1       2.128   4.911  17.567  0.00  0.00    +0.000 C 
BRANCH  20  23
ATOM     23  C   UNL     1       1.896   7.748  19.706  0.00  0.00    +0.000 A 
ATOM     24  C   UNL     1       1.675   8.733  18.735  0.00  0.00    +0.000 A 
ATOM     25  C   UNL     1       1.062   9.949  19.051  0.00  0.00    +0.000 A 
ATOM     26  C   UNL     1       0.661  10.197  20.356  0.00  0.00    +0.000 A 
ATOM     27  C   UNL     1       0.859   9.231  21.337  0.00  0.00    +0.000 A 
ATOM     28  C   UNL     1       1.463   8.016  21.007  0.00  0.00    +0.000 A 
BRANCH  27  29
ATOM     29  C   UNL     1       0.458   9.480  22.678  0.00  0.00    +0.000 C 
ATOM     30  N   UNL     1       0.133   9.691  23.777  0.00  0.00    +0.000 NA
ENDBRANCH  27  29
ENDBRANCH  20  23
ENDBRANCH  16  17
ENDBRANCH   1  16
TORSDOF 9
ENDMDL
MODEL 2
REMARK VINA RESULT:      -6.9      3.580      6.233
REMARK  Name = 
REMARK  10 active torsions:
REMARK  status: ('A' for Active; 'I' for Inactive)
REMARK    1  A    between atoms: C_1  and  O_2
REMARK    2  A    between atoms: O_2  and  C_3
REMARK    3  A    between atoms: C_3  and  C_4
REMARK    4  A    between atoms: C_4  and  C_5
REMARK    5  A    between atoms: N_7  and  C_8
REMARK    6  A    between atoms: C_11  and  C_12
REMARK    7  A    between atoms: C_12  and  C_13
REMARK    8  A    between atoms: C_13  and  N_14
REMARK    9  A    between atoms: N_17  and  C_18
REMARK   10  A    between atoms: C_22  and  C_23
REMARK                            x       y       z     vdW  Elec       q    Type
REMARK                         _______ _______ _______ _____ _____    ______ ____
ROOT
ATOM      1  C   UNL     1       8.576   8.482  18.352  0.00  0.00    +0.000 C 
ENDROOT
BRANCH   1   5
ATOM      2  C   UNL     1       9.937  12.564  18.924  0.00  0.00    +0.000 C 
ATOM      3  C   UNL     1       9.672  11.753  20.199  0.00  0.00    +0.000 C 
ATOM      4  C   UNL     1       9.607  10.261  19.880  0.00  0.00    +0.000 C 
ATOM      5  C   UNL     1       8.588   9.956  18.770  0.00  0.00    +0.000 C 
ATOM      6  C   UNL     1       8.835  10.808  17.525  0.00  0.00    +0.000 C 
ATOM      7  C   UNL     1       8.842  12.278  17.889  0.00  0.00    +0.000 C 
BRANCH   2  10
ATOM      8  C   UNL     1      11.155  14.680  19.395  0.00  0.00    +0.000 C 
ATOM      9  O   UNL     1      12.261  14.157  19.513  0.00  0.00    +0.000 OA
ATOM     10  N   UNL     1       9.988  13.991  19.147  0.00  0.00    +0.000 N 
ATOM     11  H   UNL     1       9.317  14.544  18.614  0.00  0.00    +0.000 HD
BRANCH   8  12
ATOM     12  C   UNL     1      10.947  16.169  19.562  0.00  0.00    +0.000 C 
BRANCH  12  13
ATOM     13  C   UNL     1      12.154  16.954  19.074  0.00  0.00    +0.000 C 
BRANCH  13  15
ATOM     14  C   UNL     1      10.527  18.150  17.834  0.00  0.00    +0.000 C 
ATOM     15  O   UNL     1      11.713  18.235  18.609  0.00  0.00    +0.000 OA
ENDBRANCH  13  15
ENDBRANCH  12  13
ENDBRANCH   8  12
ENDBRANCH   2  10
ENDBRANCH   1   5
BRANCH   1  16
ATOM     16  C   UNL     1       7.220   8.103  17.775  0.00  0.00    +0.000 C 
BRANCH  16  17
ATOM     17  N   UNL     1       7.221   6.836  17.031  0.00  0.00    +0.000 NA
ATOM     18  C   UNL     1       7.417   5.725  17.998  0.00  0.00    +0.000 C 
ATOM     19  C   UNL     1       6.273   5.575  19.023  0.00  0.00    +0.000 C 
ATOM     20  N   UNL     1       4.964   5.506  18.356  0.00  0.00    +0.000 N 
ATOM     21  C   UNL     1       4.709   6.455  17.255  0.00  0.00    +0.000 C 
ATOM     22  C   UNL     1       5.941   6.587  16.331  0.00  0.00    +0.000 C 
BRANCH  20  23
ATOM     23  C   UNL     1       4.142   4.403  18.494  0.00  0.00    +0.000 A 
ATOM     24  C   UNL     1       3.864   3.547  17.421  0.00  0.00    +0.000 A 
ATOM     25  C   UNL     1       3.016   2.444  17.564  0.00  0.00    +0.000 A 
ATOM     26  C   UNL     1       2.431   2.184  18.795  0.00  0.00    +0.000 A 
ATOM     27  C   UNL     1       2.700   3.012  19.879  0.00  0.00    +0.000 A 
ATOM     28  C   UNL     1       3.556   4.105  19.726  0.00  0.00    +0.000 A 
BRANCH  27  29
ATOM     29  C   UNL     1       2.097   2.757  21.141  0.00  0.00    +0.000 C 
ATOM     30  N   UNL     1       1.599   2.554  22.174  0.00  0.00    +0.000 NA
ENDBRANCH  27  29
ENDBRANCH  20  23
ENDBRANCH  16  17
ENDBRANCH   1  16
TORSDOF 9
ENDMDL
MODEL 3
REMARK VINA RESULT:      -6.9      3.502      5.816
REMARK  Name = 
REMARK  10 active torsions:
REMARK  status: ('A' for Active; 'I' for Inactive)
REMARK    1  A    between atoms: C_1  and  O_2
REMARK    2  A    between atoms: O_2  and  C_3
REMARK    3  A    between atoms: C_3  and  C_4
REMARK    4  A    between atoms: C_4  and  C_5
REMARK    5  A    between atoms: N_7  and  C_8
REMARK    6  A    between atoms: C_11  and  C_12
REMARK    7  A    between atoms: C_12  and  C_13
REMARK    8  A    between atoms: C_13  and  N_14
REMARK    9  A    between atoms: N_17  and  C_18
REMARK   10  A    between atoms: C_22  and  C_23
REMARK                            x       y       z     vdW  Elec       q    Type
REMARK                         _______ _______ _______ _____ _____    ______ ____
ROOT
ATOM      1  C   UNL     1       7.601   8.860  17.669  0.00  0.00    +0.000 C 
ENDROOT
BRANCH   1   5
ATOM      2  C   UNL     1       9.577  12.336  19.358  0.00  0.00    +0.000 C 
ATOM      3  C   UNL     1       9.224  12.415  17.867  0.00  0.00    +0.000 C 
ATOM      4  C   UNL     1       8.195  11.347  17.504  0.00  0.00    +0.000 C 
ATOM      5  C   UNL     1       8.656   9.941  17.922  0.00  0.00    +0.000 C 
ATOM      6  C   UNL     1       9.052   9.891  19.398  0.00  0.00    +0.000 C 
ATOM      7  C   UNL     1      10.107  10.937  19.693  0.00  0.00    +0.000 C 
BRANCH   2  10
ATOM      8  C   UNL     1      10.286  14.641  19.964  0.00  0.00    +0.000 C 
ATOM      9  O   UNL     1       9.193  15.162  19.753  0.00  0.00    +0.000 OA
ATOM     10  N   UNL     1      10.566  13.306  19.769  0.00  0.00    +0.000 N 
ATOM     11  H   UNL     1      11.279  12.962  20.412  0.00  0.00    +0.000 HD
BRANCH   8  12
ATOM     12  C   UNL     1      11.483  15.443  20.425  0.00  0.00    +0.000 C 
BRANCH  12  13
ATOM     13  C   UNL     1      11.099  16.437  21.508  0.00  0.00    +0.000 C 
BRANCH  13  15
ATOM     14  C   UNL     1       9.738  16.447  23.448  0.00  0.00    +0.000 C 
ATOM     15  O   UNL     1      10.667  15.711  22.666  0.00  0.00    +0.000 OA
ENDBRANCH  13  15
ENDBRANCH  12  13
ENDBRANCH   8  12
ENDBRANCH   2  10
ENDBRANCH   1   5
BRANCH   1  16
ATOM     16  C   UNL     1       8.040   7.534  18.269  0.00  0.00    +0.000 C 
BRANCH  16  17
ATOM     17  N   UNL     1       7.724   6.367  17.435  0.00  0.00    +0.000 NA
ATOM     18  C   UNL     1       7.546   5.190  18.324  0.00  0.00    +0.000 C 
ATOM     19  C   UNL     1       6.353   5.310  19.295  0.00  0.00    +0.000 C 
ATOM     20  N   UNL     1       5.115   5.657  18.580  0.00  0.00    +0.000 N 
ATOM     21  C   UNL     1       5.198   6.704  17.543  0.00  0.00    +0.000 C 
ATOM     22  C   UNL     1       6.465   6.535  16.675  0.00  0.00    +0.000 C 
BRANCH  20  23
ATOM     23  C   UNL     1       4.010   4.828  18.608  0.00  0.00    +0.000 A 
ATOM     24  C   UNL     1       3.307   4.488  17.445  0.00  0.00    +0.000 A 
ATOM     25  C   UNL     1       2.179   3.664  17.484  0.00  0.00    +0.000 A 
ATOM     26  C   UNL     1       1.735   3.166  18.701  0.00  0.00    +0.000 A 
ATOM     27  C   UNL     1       2.421   3.479  19.870  0.00  0.00    +0.000 A 
ATOM     28  C   UNL     1       3.553   4.295  19.816  0.00  0.00    +0.000 A 
BRANCH  27  29
ATOM     29  C   UNL     1       1.967   2.980  21.121  0.00  0.00    +0.000 C 
ATOM     30  N   UNL     1       1.600   2.565  22.146  0.00  0.00    +0.000 NA
ENDBRANCH  27  29
ENDBRANCH  20  23
ENDBRANCH  16  17
ENDBRANCH   1  16
TORSDOF 9
ENDMDL
MODEL 4
REMARK VINA RESULT:      -6.9      3.540      6.116
REMARK  Name = 
REMARK  10 active torsions:
REMARK  status: ('A' for Active; 'I' for Inactive)
REMARK    1  A    between atoms: C_1  and  O_2
REMARK    2  A    between atoms: O_2  and  C_3
REMARK    3  A    between atoms: C_3  and  C_4
REMARK    4  A    between atoms: C_4  and  C_5
REMARK    5  A    between atoms: N_7  and  C_8
REMARK    6  A    between atoms: C_11  and  C_12
REMARK    7  A    between atoms: C_12  and  C_13
REMARK    8  A    between atoms: C_13  and  N_14
REMARK    9  A    between atoms: N_17  and  C_18
REMARK   10  A    between atoms: C_22  and  C_23
REMARK                            x       y       z     vdW  Elec       q    Type
REMARK                         _______ _______ _______ _____ _____    ______ ____
ROOT
ATOM      1  C   UNL     1       8.476   8.352  18.470  0.00  0.00    +0.000 C 
ENDROOT
BRANCH   1   5
ATOM      2  C   UNL     1       8.957  12.639  18.951  0.00  0.00    +0.000 C 
ATOM      3  C   UNL     1       8.436  12.164  17.589  0.00  0.00    +0.000 C 
ATOM      4  C   UNL     1       7.928  10.727  17.681  0.00  0.00    +0.000 C 
ATOM      5  C   UNL     1       8.990   9.780  18.264  0.00  0.00    +0.000 C 
ATOM      6  C   UNL     1       9.535  10.293  19.597  0.00  0.00    +0.000 C 
ATOM      7  C   UNL     1      10.068  11.702  19.439  0.00  0.00    +0.000 C 
BRANCH   2  10
ATOM      8  C   UNL     1       8.768  15.081  19.380  0.00  0.00    +0.000 C 
ATOM      9  O   UNL     1       7.608  15.043  19.782  0.00  0.00    +0.000 OA
ATOM     10  N   UNL     1       9.477  13.987  18.933  0.00  0.00    +0.000 N 
ATOM     11  H   UNL     1      10.478  14.076  19.109  0.00  0.00    +0.000 HD
BRANCH   8  12
ATOM     12  C   UNL     1       9.544  16.376  19.286  0.00  0.00    +0.000 C 
BRANCH  12  13
ATOM     13  C   UNL     1       8.966  17.291  18.219  0.00  0.00    +0.000 C 
BRANCH  13  15
ATOM     14  C   UNL     1      10.846  18.603  18.820  0.00  0.00    +0.000 C 
ATOM     15  O   UNL     1       9.485  18.612  18.415  0.00  0.00    +0.000 OA
ENDBRANCH  13  15
ENDBRANCH  12  13
ENDBRANCH   8  12
ENDBRANCH   2  10
ENDBRANCH   1   5
BRANCH   1  16
ATOM     16  C   UNL     1       7.194   8.127  17.684  0.00  0.00    +0.000 C 
BRANCH  16  17
ATOM     17  N   UNL     1       7.178   6.877  16.912  0.00  0.00    +0.000 NA
ATOM     18  C   UNL     1       7.480   5.753  17.834  0.00  0.00    +0.000 C 
ATOM     19  C   UNL     1       6.420   5.543  18.938  0.00  0.00    +0.000 C 
ATOM     20  N   UNL     1       5.068   5.447  18.368  0.00  0.00    +0.000 N 
ATOM     21  C   UNL     1       4.703   6.411  17.311  0.00  0.00    +0.000 C 
ATOM     22  C   UNL     1       5.857   6.602  16.302  0.00  0.00    +0.000 C 
BRANCH  20  23
ATOM     23  C   UNL     1       4.293   4.315  18.539  0.00  0.00    +0.000 A 
ATOM     24  C   UNL     1       4.142   3.359  17.527  0.00  0.00    +0.000 A 
ATOM     25  C   UNL     1       3.341   2.226  17.702  0.00  0.00    +0.000 A 
ATOM     26  C   UNL     1       2.674   2.037  18.904  0.00  0.00    +0.000 A 
ATOM     27  C   UNL     1       2.816   2.966  19.929  0.00  0.00    +0.000 A 
ATOM     28  C   UNL     1       3.627   4.088  19.745  0.00  0.00    +0.000 A 
BRANCH  27  29
ATOM     29  C   UNL     1       2.129   2.783  21.160  0.00  0.00    +0.000 C 
ATOM     30  N   UNL     1       1.571   2.631  22.172  0.00  0.00    +0.000 NA
ENDBRANCH  27  29
ENDBRANCH  20  23
ENDBRANCH  16  17
ENDBRANCH   1  16
TORSDOF 9
ENDMDL
MODEL 5
REMARK VINA RESULT:      -6.9      3.446      5.837
REMARK  Name = 
REMARK  10 active torsions:
REMARK  status: ('A' for Active; 'I' for Inactive)
REMARK    1  A    between atoms: C_1  and  O_2
REMARK    2  A    between atoms: O_2  and  C_3
REMARK    3  A    between atoms: C_3  and  C_4
REMARK    4  A    between atoms: C_4  and  C_5
REMARK    5  A    between atoms: N_7  and  C_8
REMARK    6  A    between atoms: C_11  and  C_12
REMARK    7  A    between atoms: C_12  and  C_13
REMARK    8  A    between atoms: C_13  and  N_14
REMARK    9  A    between atoms: N_17  and  C_18
REMARK   10  A    between atoms: C_22  and  C_23
REMARK                            x       y       z     vdW  Elec       q    Type
REMARK                         _______ _______ _______ _____ _____    ______ ____
ROOT
ATOM      1  C   UNL     1       8.408   8.280  18.393  0.00  0.00    +0.000 C 
ENDROOT
BRANCH   1   5
ATOM      2  C   UNL     1       9.005  12.540  18.972  0.00  0.00    +0.000 C 
ATOM      3  C   UNL     1       8.485  12.110  17.595  0.00  0.00    +0.000 C 
ATOM      4  C   UNL     1       7.935  10.686  17.651  0.00  0.00    +0.000 C 
ATOM      5  C   UNL     1       8.964   9.697  18.223  0.00  0.00    +0.000 C 
ATOM      6  C   UNL     1       9.510  10.165  19.571  0.00  0.00    +0.000 C 
ATOM      7  C   UNL     1      10.085  11.561  19.449  0.00  0.00    +0.000 C 
BRANCH   2  10
ATOM      8  C   UNL     1      10.556  14.291  18.129  0.00  0.00    +0.000 C 
ATOM      9  O   UNL     1      11.114  13.570  17.304  0.00  0.00    +0.000 OA
ATOM     10  N   UNL     1       9.564  13.872  18.988  0.00  0.00    +0.000 N 
ATOM     11  H   UNL     1       8.911  14.621  19.218  0.00  0.00    +0.000 HD
BRANCH   8  12
ATOM     12  C   UNL     1      10.946  15.739  18.324  0.00  0.00    +0.000 C 
BRANCH  12  13
ATOM     13  C   UNL     1       9.754  16.580  18.749  0.00  0.00    +0.000 C 
BRANCH  13  15
ATOM     14  C   UNL     1       8.414  16.937  20.671  0.00  0.00    +0.000 C 
ATOM     15  O   UNL     1       9.709  16.624  20.181  0.00  0.00    +0.000 OA
ENDBRANCH  13  15
ENDBRANCH  12  13
ENDBRANCH   8  12
ENDBRANCH   2  10
ENDBRANCH   1   5
BRANCH   1  16
ATOM     16  C   UNL     1       7.139   8.102  17.573  0.00  0.00    +0.000 C 
BRANCH  16  17
ATOM     17  N   UNL     1       7.081   6.837  16.829  0.00  0.00    +0.000 NA
ATOM     18  C   UNL     1       7.284   5.720  17.787  0.00  0.00    +0.000 C 
ATOM     19  C   UNL     1       6.176   5.597  18.854  0.00  0.00    +0.000 C 
ATOM     20  N   UNL     1       4.842   5.561  18.236  0.00  0.00    +0.000 N 
ATOM     21  C   UNL     1       4.570   6.518  17.145  0.00  0.00    +0.000 C 
ATOM     22  C   UNL     1       5.770   6.621  16.176  0.00  0.00    +0.000 C 
BRANCH  20  23
ATOM     23  C   UNL     1       3.998   4.479  18.403  0.00  0.00    +0.000 A 
ATOM     24  C   UNL     1       3.619   3.661  17.332  0.00  0.00    +0.000 A 
ATOM     25  C   UNL     1       2.751   2.580  17.506  0.00  0.00    +0.000 A 
ATOM     26  C   UNL     1       2.245   2.303  18.769  0.00  0.00    +0.000 A 
ATOM     27  C   UNL     1       2.614   3.093  19.852  0.00  0.00    +0.000 A 
ATOM     28  C   UNL     1       3.491   4.164  19.666  0.00  0.00    +0.000 A 
BRANCH  27  29
ATOM     29  C   UNL     1       2.094   2.821  21.146  0.00  0.00    +0.000 C 
ATOM     30  N   UNL     1       1.662   2.595  22.204  0.00  0.00    +0.000 NA
ENDBRANCH  27  29
ENDBRANCH  20  23
ENDBRANCH  16  17
ENDBRANCH   1  16
TORSDOF 9
ENDMDL
MODEL 6
REMARK VINA RESULT:      -6.6      3.540      6.117
REMARK  Name = 
REMARK  10 active torsions:
REMARK  status: ('A' for Active; 'I' for Inactive)
REMARK    1  A    between atoms: C_1  and  O_2
REMARK    2  A    between atoms: O_2  and  C_3
REMARK    3  A    between atoms: C_3  and  C_4
REMARK    4  A    between atoms: C_4  and  C_5
REMARK    5  A    between atoms: N_7  and  C_8
REMARK    6  A    between atoms: C_11  and  C_12
REMARK    7  A    between atoms: C_12  and  C_13
REMARK    8  A    between atoms: C_13  and  N_14
REMARK    9  A    between atoms: N_17  and  C_18
REMARK   10  A    between atoms: C_22  and  C_23
REMARK                            x       y       z     vdW  Elec       q    Type
REMARK                         _______ _______ _______ _____ _____    ______ ____
ROOT
ATOM      1  C   UNL     1       8.585   8.379  18.521  0.00  0.00    +0.000 C 
ENDROOT
BRANCH   1   5
ATOM      2  C   UNL     1       9.694  12.550  18.067  0.00  0.00    +0.000 C 
ATOM      3  C   UNL     1      10.027  11.904  19.418  0.00  0.00    +0.000 C 
ATOM      4  C   UNL     1       9.974  10.382  19.310  0.00  0.00    +0.000 C 
ATOM      5  C   UNL     1       8.631   9.893  18.743  0.00  0.00    +0.000 C 
ATOM      6  C   UNL     1       8.290  10.584  17.422  0.00  0.00    +0.000 C 
ATOM      7  C   UNL     1       8.310  12.088  17.597  0.00  0.00    +0.000 C 
BRANCH   2  10
ATOM      8  C   UNL     1       8.943  14.739  18.977  0.00  0.00    +0.000 C 
ATOM      9  O   UNL     1       8.138  14.266  19.777  0.00  0.00    +0.000 OA
ATOM     10  N   UNL     1       9.703  13.995  18.101  0.00  0.00    +0.000 N 
ATOM     11  H   UNL     1      10.599  14.436  17.896  0.00  0.00    +0.000 HD
BRANCH   8  12
ATOM     12  C   UNL     1       9.153  16.230  18.836  0.00  0.00    +0.000 C 
BRANCH  12  13
ATOM     13  C   UNL     1       7.860  16.938  18.468  0.00  0.00    +0.000 C 
BRANCH  13  15
ATOM     14  C   UNL     1       7.729  18.257  20.433  0.00  0.00    +0.000 C 
ATOM     15  O   UNL     1       7.885  18.260  19.021  0.00  0.00    +0.000 OA
ENDBRANCH  13  15
ENDBRANCH  12  13
ENDBRANCH   8  12
ENDBRANCH   2  10
ENDBRANCH   1   5
BRANCH   1  16
ATOM     16  C   UNL     1       7.436   8.009  17.595  0.00  0.00    +0.000 C 
BRANCH  16  17
ATOM     17  N   UNL     1       7.513   6.642  17.063  0.00  0.00    +0.000 NA
ATOM     18  C   UNL     1       7.504   5.693  18.206  0.00  0.00    +0.000 C 
ATOM     19  C   UNL     1       6.200   5.717  19.032  0.00  0.00    +0.000 C 
ATOM     20  N   UNL     1       5.019   5.560  18.170  0.00  0.00    +0.000 N 
ATOM     21  C   UNL     1       4.987   6.329  16.910  0.00  0.00    +0.000 C 
ATOM     22  C   UNL     1       6.360   6.301  16.201  0.00  0.00    +0.000 C 
BRANCH  20  23
ATOM     23  C   UNL     1       4.145   4.501  18.331  0.00  0.00    +0.000 A 
ATOM     24  C   UNL     1       3.718   3.720  17.249  0.00  0.00    +0.000 A 
ATOM     25  C   UNL     1       2.820   2.663  17.418  0.00  0.00    +0.000 A 
ATOM     26  C   UNL     1       2.332   2.372  18.684  0.00  0.00    +0.000 A 
ATOM     27  C   UNL     1       2.747   3.126  19.777  0.00  0.00    +0.000 A 
ATOM     28  C   UNL     1       3.653   4.173  19.596  0.00  0.00    +0.000 A 
BRANCH  27  29
ATOM     29  C   UNL     1       2.245   2.841  21.076  0.00  0.00    +0.000 C 
ATOM     30  N   UNL     1       1.838   2.610  22.143  0.00  0.00    +0.000 NA
ENDBRANCH  27  29
ENDBRANCH  20  23
ENDBRANCH  16  17
ENDBRANCH   1  16
TORSDOF 9
ENDMDL
MODEL 7
REMARK VINA RESULT:      -6.6      3.739      6.721
REMARK  Name = 
REMARK  10 active torsions:
REMARK  status: ('A' for Active; 'I' for Inactive)
REMARK    1  A    between atoms: C_1  and  O_2
REMARK    2  A    between atoms: O_2  and  C_3
REMARK    3  A    between atoms: C_3  and  C_4
REMARK    4  A    between atoms: C_4  and  C_5
REMARK    5  A    between atoms: N_7  and  C_8
REMARK    6  A    between atoms: C_11  and  C_12
REMARK    7  A    between atoms: C_12  and  C_13
REMARK    8  A    between atoms: C_13  and  N_14
REMARK    9  A    between atoms: N_17  and  C_18
REMARK   10  A    between atoms: C_22  and  C_23
REMARK                            x       y       z     vdW  Elec       q    Type
REMARK                         _______ _______ _______ _____ _____    ______ ____
ROOT
ATOM      1  C   UNL     1       0.723   7.817  20.808  0.00  0.00    +0.000 C 
ENDROOT
BRANCH   1   5
ATOM      2  C   UNL     1       3.450   5.993  17.966  0.00  0.00    +0.000 C 
ATOM      3  C   UNL     1       3.525   5.472  19.407  0.00  0.00    +0.000 C 
ATOM      4  C   UNL     1       2.276   5.876  20.187  0.00  0.00    +0.000 C 
ATOM      5  C   UNL     1       2.027   7.392  20.125  0.00  0.00    +0.000 C 
ATOM      6  C   UNL     1       2.005   7.904  18.685  0.00  0.00    +0.000 C 
ATOM      7  C   UNL     1       3.285   7.517  17.972  0.00  0.00    +0.000 C 
BRANCH   2  10
ATOM      8  C   UNL     1       4.905   4.391  16.741  0.00  0.00    +0.000 C 
ATOM      9  O   UNL     1       4.250   3.391  17.029  0.00  0.00    +0.000 OA
ATOM     10  N   UNL     1       4.613   5.666  17.173  0.00  0.00    +0.000 N 
ATOM     11  H   UNL     1       4.903   6.378  16.502  0.00  0.00    +0.000 HD
BRANCH   8  12
ATOM     12  C   UNL     1       6.159   4.316  15.899  0.00  0.00    +0.000 C 
BRANCH  12  13
ATOM     13  C   UNL     1       7.408   4.416  16.759  0.00  0.00    +0.000 C 
BRANCH  13  15
ATOM     14  C   UNL     1       7.649   5.586  18.806  0.00  0.00    +0.000 C 
ATOM     15  O   UNL     1       7.015   4.508  18.134  0.00  0.00    +0.000 OA
ENDBRANCH  13  15
ENDBRANCH  12  13
ENDBRANCH   8  12
ENDBRANCH   2  10
ENDBRANCH   1   5
BRANCH   1  16
ATOM     16  C   UNL     1       0.428   9.283  20.530  0.00  0.00    +0.000 C 
BRANCH  16  17
ATOM     17  N   UNL     1       1.020  10.208  21.506  0.00  0.00    +0.000 NA
ATOM     18  C   UNL     1       0.695  11.597  21.093  0.00  0.00    +0.000 C 
ATOM     19  C   UNL     1      -0.815  11.922  21.113  0.00  0.00    +0.000 C 
ATOM     20  N   UNL     1      -1.418  11.572  22.408  0.00  0.00    +0.000 N 
ATOM     21  C   UNL     1      -1.039  10.278  23.010  0.00  0.00    +0.000 C 
ATOM     22  C   UNL     1       0.478  10.018  22.870  0.00  0.00    +0.000 C 
BRANCH  20  23
ATOM     23  C   UNL     1      -2.028  12.526  23.200  0.00  0.00    +0.000 A 
ATOM     24  C   UNL     1      -3.330  12.362  23.690  0.00  0.00    +0.000 A 
ATOM     25  C   UNL     1      -3.947  13.340  24.475  0.00  0.00    +0.000 A 
ATOM     26  C   UNL     1      -3.260  14.507  24.782  0.00  0.00    +0.000 A 
ATOM     27  C   UNL     1      -1.962  14.690  24.318  0.00  0.00    +0.000 A 
ATOM     28  C   UNL     1      -1.353  13.700  23.542  0.00  0.00    +0.000 A 
BRANCH  27  29
ATOM     29  C   UNL     1      -1.255  15.885  24.621  0.00  0.00    +0.000 C 
ATOM     30  N   UNL     1      -0.678  16.865  24.876  0.00  0.00    +0.000 NA
ENDBRANCH  27  29
ENDBRANCH  20  23
ENDBRANCH  16  17
ENDBRANCH   1  16
TORSDOF 9
ENDMDL
MODEL 8
REMARK VINA RESULT:      -6.6      3.510      6.069
REMARK  Name = 
REMARK  10 active torsions:
REMARK  status: ('A' for Active; 'I' for Inactive)
REMARK    1  A    between atoms: C_1  and  O_2
REMARK    2  A    between atoms: O_2  and  C_3
REMARK    3  A    between atoms: C_3  and  C_4
REMARK    4  A    between atoms: C_4  and  C_5
REMARK    5  A    between atoms: N_7  and  C_8
REMARK    6  A    between atoms: C_11  and  C_12
REMARK    7  A    between atoms: C_12  and  C_13
REMARK    8  A    between atoms: C_13  and  N_14
REMARK    9  A    between atoms: N_17  and  C_18
REMARK   10  A    between atoms: C_22  and  C_23
REMARK                            x       y       z     vdW  Elec       q    Type
REMARK                         _______ _______ _______ _____ _____    ______ ____
ROOT
ATOM      1  C   UNL     1       8.410   8.793  17.590  0.00  0.00    +0.000 C 
ENDROOT
BRANCH   1   5
ATOM      2  C   UNL     1       9.766  12.500  19.394  0.00  0.00    +0.000 C 
ATOM      3  C   UNL     1       9.435  11.357  20.362  0.00  0.00    +0.000 C 
ATOM      4  C   UNL     1       9.377  10.025  19.617  0.00  0.00    +0.000 C 
ATOM      5  C   UNL     1       8.411  10.078  18.422  0.00  0.00    +0.000 C 
ATOM      6  C   UNL     1       8.722  11.253  17.494  0.00  0.00    +0.000 C 
ATOM      7  C   UNL     1       8.720  12.552  18.273  0.00  0.00    +0.000 C 
BRANCH   2  10
ATOM      8  C   UNL     1      10.970  14.535  20.163  0.00  0.00    +0.000 C 
ATOM      9  O   UNL     1      12.085  14.151  19.819  0.00  0.00    +0.000 OA
ATOM     10  N   UNL     1       9.814  13.798  20.028  0.00  0.00    +0.000 N 
ATOM     11  H   UNL     1       8.993  14.387  19.888  0.00  0.00    +0.000 HD
BRANCH   8  12
ATOM     12  C   UNL     1      10.752  15.874  20.832  0.00  0.00    +0.000 C 
BRANCH  12  13
ATOM     13  C   UNL     1      10.497  15.713  22.321  0.00  0.00    +0.000 C 
BRANCH  13  15
ATOM     14  C   UNL     1       8.259  15.300  22.982  0.00  0.00    +0.000 C 
ATOM     15  O   UNL     1       9.221  16.285  22.635  0.00  0.00    +0.000 OA
ENDBRANCH  13  15
ENDBRANCH  12  13
ENDBRANCH   8  12
ENDBRANCH   2  10
ENDBRANCH   1   5
BRANCH   1  16
ATOM     16  C   UNL     1       7.101   8.040  17.772  0.00  0.00    +0.000 C 
BRANCH  16  17
ATOM     17  N   UNL     1       7.003   6.809  16.976  0.00  0.00    +0.000 NA
ATOM     18  C   UNL     1       7.178   5.648  17.885  0.00  0.00    +0.000 C 
ATOM     19  C   UNL     1       6.069   5.512  18.950  0.00  0.00    +0.000 C 
ATOM     20  N   UNL     1       4.733   5.541  18.336  0.00  0.00    +0.000 N 
ATOM     21  C   UNL     1       4.486   6.550  17.288  0.00  0.00    +0.000 C 
ATOM     22  C   UNL     1       5.685   6.659  16.320  0.00  0.00    +0.000 C 
BRANCH  20  23
ATOM     23  C   UNL     1       3.859   4.478  18.461  0.00  0.00    +0.000 A 
ATOM     24  C   UNL     1       3.436   3.730  17.355  0.00  0.00    +0.000 A 
ATOM     25  C   UNL     1       2.537   2.668  17.487  0.00  0.00    +0.000 A 
ATOM     26  C   UNL     1       2.044   2.339  18.742  0.00  0.00    +0.000 A 
ATOM     27  C   UNL     1       2.457   3.058  19.859  0.00  0.00    +0.000 A 
ATOM     28  C   UNL     1       3.363   4.110  19.715  0.00  0.00    +0.000 A 
BRANCH  27  29
ATOM     29  C   UNL     1       1.950   2.732  21.147  0.00  0.00    +0.000 C 
ATOM     30  N   UNL     1       1.528   2.466  22.200  0.00  0.00    +0.000 NA
ENDBRANCH  27  29
ENDBRANCH  20  23
ENDBRANCH  16  17
ENDBRANCH   1  16
TORSDOF 9
ENDMDL
MODEL 9
REMARK VINA RESULT:      -6.5      3.802      7.886
REMARK  Name = 
REMARK  10 active torsions:
REMARK  status: ('A' for Active; 'I' for Inactive)
REMARK    1  A    between atoms: C_1  and  O_2
REMARK    2  A    between atoms: O_2  and  C_3
REMARK    3  A    between atoms: C_3  and  C_4
REMARK    4  A    between atoms: C_4  and  C_5
REMARK    5  A    between atoms: N_7  and  C_8
REMARK    6  A    between atoms: C_11  and  C_12
REMARK    7  A    between atoms: C_12  and  C_13
REMARK    8  A    between atoms: C_13  and  N_14
REMARK    9  A    between atoms: N_17  and  C_18
REMARK   10  A    between atoms: C_22  and  C_23
REMARK                            x       y       z     vdW  Elec       q    Type
REMARK                         _______ _______ _______ _____ _____    ______ ____
ROOT
ATOM      1  C   UNL     1       2.074   5.891  20.739  0.00  0.00    +0.000 C 
ENDROOT
BRANCH   1   5
ATOM      2  C   UNL     1       0.728   9.791  19.390  0.00  0.00    +0.000 C 
ATOM      3  C   UNL     1       1.797   9.107  18.527  0.00  0.00    +0.000 C 
ATOM      4  C   UNL     1       1.878   7.618  18.857  0.00  0.00    +0.000 C 
ATOM      5  C   UNL     1       2.095   7.375  20.360  0.00  0.00    +0.000 C 
ATOM      6  C   UNL     1       1.053   8.104  21.208  0.00  0.00    +0.000 C 
ATOM      7  C   UNL     1       1.047   9.582  20.875  0.00  0.00    +0.000 C 
BRANCH   2  10
ATOM      8  C   UNL     1      -0.537  11.811  18.682  0.00  0.00    +0.000 C 
ATOM      9  O   UNL     1      -1.560  11.207  18.367  0.00  0.00    +0.000 OA
ATOM     10  N   UNL     1       0.612  11.211  19.147  0.00  0.00    +0.000 N 
ATOM     11  H   UNL     1       1.129  11.812  19.789  0.00  0.00    +0.000 HD
BRANCH   8  12
ATOM     12  C   UNL     1      -0.415  13.312  18.542  0.00  0.00    +0.000 C 
BRANCH  12  13
ATOM     13  C   UNL     1       0.507  13.893  19.601  0.00  0.00    +0.000 C 
BRANCH  13  15
ATOM     14  C   UNL     1       2.463  14.192  18.297  0.00  0.00    +0.000 C 
ATOM     15  O   UNL     1       1.393  14.831  18.977  0.00  0.00    +0.000 OA
ENDBRANCH  13  15
ENDBRANCH  12  13
ENDBRANCH   8  12
ENDBRANCH   2  10
ENDBRANCH   1   5
BRANCH   1  16
ATOM     16  C   UNL     1       2.375   5.025  19.526  0.00  0.00    +0.000 C 
BRANCH  16  17
ATOM     17  N   UNL     1       3.706   4.404  19.551  0.00  0.00    +0.000 NA
ATOM     18  C   UNL     1       3.739   3.325  18.530  0.00  0.00    +0.000 C 
ATOM     19  C   UNL     1       3.569   3.827  17.080  0.00  0.00    +0.000 C 
ATOM     20  N   UNL     1       4.517   4.908  16.775  0.00  0.00    +0.000 N 
ATOM     21  C   UNL     1       4.701   5.961  17.794  0.00  0.00    +0.000 C 
ATOM     22  C   UNL     1       4.785   5.359  19.214  0.00  0.00    +0.000 C 
BRANCH  20  23
ATOM     23  C   UNL     1       5.451   4.785  15.764  0.00  0.00    +0.000 A 
ATOM     24  C   UNL     1       6.693   5.431  15.816  0.00  0.00    +0.000 A 
ATOM     25  C   UNL     1       7.624   5.316  14.780  0.00  0.00    +0.000 A 
ATOM     26  C   UNL     1       7.320   4.545  13.667  0.00  0.00    +0.000 A 
ATOM     27  C   UNL     1       6.098   3.884  13.595  0.00  0.00    +0.000 A 
ATOM     28  C   UNL     1       5.180   3.999  14.641  0.00  0.00    +0.000 A 
BRANCH  27  29
ATOM     29  C   UNL     1       5.776   3.099  12.454  0.00  0.00    +0.000 C 
ATOM     30  N   UNL     1       5.514   2.461  11.515  0.00  0.00    +0.000 NA
ENDBRANCH  27  29
ENDBRANCH  20  23
ENDBRANCH  16  17
ENDBRANCH   1  16
TORSDOF 9
ENDMDL
