MODEL 1
REMARK VINA RESULT:      -6.6      0.000      0.000
REMARK  Name = 
REMARK  5 active torsions:
REMARK  status: ('A' for Active; 'I' for Inactive)
REMARK    1  A    between atoms: C_1  and  C_2
REMARK    2  A    between atoms: C_2  and  C_3
REMARK    3  A    between atoms: C_2  and  C_4
REMARK    4  A    between atoms: C_2  and  C_5
REMARK    5  A    between atoms: C_5  and  C_6
REMARK                            x       y       z     vdW  Elec       q    Type
REMARK                         _______ _______ _______ _____ _____    ______ ____
ROOT
ATOM      1  C   UNL     1       4.162   6.385  17.307  0.00  0.00    +0.000 C 
ATOM      2  O   UNL     1       3.757   7.487  17.670  0.00  0.00    +0.000 OA
ATOM      3  N   UNL     1       3.403   5.244  17.523  0.00  0.00    +0.000 N 
ATOM      4  C   UNL     1       3.744   3.883  17.110  0.00  0.00    +0.000 C 
ATOM      5  C   UNL     1       4.053   3.038  18.340  0.00  0.00    +0.000 C 
ATOM      6  C   UNL     1       2.964   3.172  19.377  0.00  0.00    +0.000 A 
ATOM      7  N   UNL     1       2.896   2.199  20.310  0.00  0.00    +0.000 NA
ATOM      8  C   UNL     1       1.958   2.356  21.258  0.00  0.00    +0.000 A 
ATOM      9  N   UNL     1       1.096   3.379  21.358  0.00  0.00    +0.000 NA
ATOM     10  C   UNL     1       1.207   4.327  20.410  0.00  0.00    +0.000 A 
ATOM     11  C   UNL     1       2.133   4.283  19.387  0.00  0.00    +0.000 A 
ATOM     12  C   UNL     1       2.193   5.351  18.336  0.00  0.00    +0.000 C 
ENDROOT
BRANCH   1  13
ATOM     13  C   UNL     1       5.514   6.195  16.621  0.00  0.00    +0.000 C 
BRANCH  13  15
ATOM     14  C   UNL     1       6.315   5.702  18.999  0.00  0.00    +0.000 C 
ATOM     15  C   UNL     1       6.740   5.987  17.548  0.00  0.00    +0.000 C 
ATOM     16  C   UNL     1       7.685   7.200  17.491  0.00  0.00    +0.000 C 
ATOM     17  C   UNL     1       7.522   4.756  17.041  0.00  0.00    +0.000 C 
ENDBRANCH  13  15
ENDBRANCH   1  13
TORSDOF 2
ENDMDL
MODEL 2
REMARK VINA RESULT:      -6.6      2.246      5.567
REMARK  Name = 
REMARK  5 active torsions:
REMARK  status: ('A' for Active; 'I' for Inactive)
REMARK    1  A    between atoms: C_1  and  C_2
REMARK    2  A    between atoms: C_2  and  C_3
REMARK    3  A    between atoms: C_2  and  C_4
REMARK    4  A    between atoms: C_2  and  C_5
REMARK    5  A    between atoms: C_5  and  C_6
REMARK                            x       y       z     vdW  Elec       q    Type
REMARK                         _______ _______ _______ _____ _____    ______ ____
ROOT
ATOM      1  C   UNL     1       2.372   2.919  18.121  0.00  0.00    +0.000 C 
ATOM      2  O   UNL     1       2.624   1.774  17.751  0.00  0.00    +0.000 OA
ATOM      3  N   UNL     1       2.942   4.011  17.484  0.00  0.00    +0.000 N 
ATOM      4  C   UNL     1       2.700   5.420  17.794  0.00  0.00    +0.000 C 
ATOM      5  C   UNL     1       3.956   6.032  18.405  0.00  0.00    +0.000 C 
ATOM      6  C   UNL     1       5.171   5.729  17.562  0.00  0.00    +0.000 A 
ATOM      7  N   UNL     1       6.246   6.523  17.746  0.00  0.00    +0.000 NA
ATOM      8  C   UNL     1       7.339   6.212  17.030  0.00  0.00    +0.000 A 
ATOM      9  N   UNL     1       7.453   5.197  16.161  0.00  0.00    +0.000 NA
ATOM     10  C   UNL     1       6.358   4.429  16.016  0.00  0.00    +0.000 A 
ATOM     11  C   UNL     1       5.177   4.643  16.698  0.00  0.00    +0.000 A 
ATOM     12  C   UNL     1       3.974   3.776  16.476  0.00  0.00    +0.000 C 
ENDROOT
BRANCH   1  13
ATOM     13  C   UNL     1       1.445   3.212  19.299  0.00  0.00    +0.000 C 
BRANCH  13  15
ATOM     14  C   UNL     1       2.122   4.779  21.202  0.00  0.00    +0.000 C 
ATOM     15  C   UNL     1       2.111   3.327  20.695  0.00  0.00    +0.000 C 
ATOM     16  C   UNL     1       3.538   2.752  20.673  0.00  0.00    +0.000 C 
ATOM     17  C   UNL     1       1.282   2.491  21.694  0.00  0.00    +0.000 C 
ENDBRANCH  13  15
ENDBRANCH   1  13
TORSDOF 2
ENDMDL
MODEL 3
REMARK VINA RESULT:      -6.6      2.242      5.512
REMARK  Name = 
REMARK  5 active torsions:
REMARK  status: ('A' for Active; 'I' for Inactive)
REMARK    1  A    between atoms: C_1  and  C_2
REMARK    2  A    between atoms: C_2  and  C_3
REMARK    3  A    between atoms: C_2  and  C_4
REMARK    4  A    between atoms: C_2  and  C_5
REMARK    5  A    between atoms: C_5  and  C_6
REMARK                            x       y       z     vdW  Elec       q    Type
REMARK                         _______ _______ _______ _____ _____    ______ ____
ROOT
ATOM      1  C   UNL     1       2.365   2.932  18.129  0.00  0.00    +0.000 C 
ATOM      2  O   UNL     1       2.626   1.783  17.781  0.00  0.00    +0.000 OA
ATOM      3  N   UNL     1       2.942   4.016  17.483  0.00  0.00    +0.000 N 
ATOM      4  C   UNL     1       2.692   5.429  17.767  0.00  0.00    +0.000 C 
ATOM      5  C   UNL     1       3.936   6.054  18.386  0.00  0.00    +0.000 C 
ATOM      6  C   UNL     1       5.165   5.742  17.566  0.00  0.00    +0.000 A 
ATOM      7  N   UNL     1       6.235   6.541  17.754  0.00  0.00    +0.000 NA
ATOM      8  C   UNL     1       7.339   6.222  17.059  0.00  0.00    +0.000 A 
ATOM      9  N   UNL     1       7.469   5.193  16.208  0.00  0.00    +0.000 NA
ATOM     10  C   UNL     1       6.378   4.420  16.059  0.00  0.00    +0.000 A 
ATOM     11  C   UNL     1       5.186   4.641  16.721  0.00  0.00    +0.000 A 
ATOM     12  C   UNL     1       3.989   3.767  16.494  0.00  0.00    +0.000 C 
ENDROOT
BRANCH   1  13
ATOM     13  C   UNL     1       1.420   3.241  19.289  0.00  0.00    +0.000 C 
BRANCH  13  15
ATOM     14  C   UNL     1       1.305   2.462  21.721  0.00  0.00    +0.000 C 
ATOM     15  C   UNL     1       2.058   3.331  20.700  0.00  0.00    +0.000 C 
ATOM     16  C   UNL     1       2.127   4.791  21.181  0.00  0.00    +0.000 C 
ATOM     17  C   UNL     1       3.503   2.796  20.609  0.00  0.00    +0.000 C 
ENDBRANCH  13  15
ENDBRANCH   1  13
TORSDOF 2
ENDMDL
MODEL 4
REMARK VINA RESULT:      -6.6      0.035      1.045
REMARK  Name = 
REMARK  5 active torsions:
REMARK  status: ('A' for Active; 'I' for Inactive)
REMARK    1  A    between atoms: C_1  and  C_2
REMARK    2  A    between atoms: C_2  and  C_3
REMARK    3  A    between atoms: C_2  and  C_4
REMARK    4  A    between atoms: C_2  and  C_5
REMARK    5  A    between atoms: C_5  and  C_6
REMARK                            x       y       z     vdW  Elec       q    Type
REMARK                         _______ _______ _______ _____ _____    ______ ____
ROOT
ATOM      1  C   UNL     1       4.171   6.375  17.298  0.00  0.00    +0.000 C 
ATOM      2  O   UNL     1       3.772   7.479  17.661  0.00  0.00    +0.000 OA
ATOM      3  N   UNL     1       3.408   5.238  17.515  0.00  0.00    +0.000 N 
ATOM      4  C   UNL     1       3.743   3.875  17.102  0.00  0.00    +0.000 C 
ATOM      5  C   UNL     1       4.050   3.029  18.332  0.00  0.00    +0.000 C 
ATOM      6  C   UNL     1       2.963   3.168  19.370  0.00  0.00    +0.000 A 
ATOM      7  N   UNL     1       2.891   2.196  20.303  0.00  0.00    +0.000 NA
ATOM      8  C   UNL     1       1.955   2.356  21.252  0.00  0.00    +0.000 A 
ATOM      9  N   UNL     1       1.097   3.382  21.352  0.00  0.00    +0.000 NA
ATOM     10  C   UNL     1       1.211   4.330  20.404  0.00  0.00    +0.000 A 
ATOM     11  C   UNL     1       2.136   4.282  19.380  0.00  0.00    +0.000 A 
ATOM     12  C   UNL     1       2.199   5.350  18.329  0.00  0.00    +0.000 C 
ENDROOT
BRANCH   1  13
ATOM     13  C   UNL     1       5.522   6.180  16.611  0.00  0.00    +0.000 C 
BRANCH  13  15
ATOM     14  C   UNL     1       7.546   4.683  17.061  0.00  0.00    +0.000 C 
ATOM     15  C   UNL     1       6.737   5.903  17.534  0.00  0.00    +0.000 C 
ATOM     16  C   UNL     1       6.288   5.720  18.995  0.00  0.00    +0.000 C 
ATOM     17  C   UNL     1       7.672   7.131  17.479  0.00  0.00    +0.000 C 
ENDBRANCH  13  15
ENDBRANCH   1  13
TORSDOF 2
ENDMDL
MODEL 5
REMARK VINA RESULT:      -6.5      2.232      5.648
REMARK  Name = 
REMARK  5 active torsions:
REMARK  status: ('A' for Active; 'I' for Inactive)
REMARK    1  A    between atoms: C_1  and  C_2
REMARK    2  A    between atoms: C_2  and  C_3
REMARK    3  A    between atoms: C_2  and  C_4
REMARK    4  A    between atoms: C_2  and  C_5
REMARK    5  A    between atoms: C_5  and  C_6
REMARK                            x       y       z     vdW  Elec       q    Type
REMARK                         _______ _______ _______ _____ _____    ______ ____
ROOT
ATOM      1  C   UNL     1       2.589   2.895  18.134  0.00  0.00    +0.000 C 
ATOM      2  O   UNL     1       2.961   1.767  17.816  0.00  0.00    +0.000 OA
ATOM      3  N   UNL     1       3.060   4.013  17.462  0.00  0.00    +0.000 N 
ATOM      4  C   UNL     1       2.672   5.401  17.710  0.00  0.00    +0.000 C 
ATOM      5  C   UNL     1       3.847   6.160  18.316  0.00  0.00    +0.000 C 
ATOM      6  C   UNL     1       5.104   5.948  17.507  0.00  0.00    +0.000 A 
ATOM      7  N   UNL     1       6.091   6.852  17.677  0.00  0.00    +0.000 NA
ATOM      8  C   UNL     1       7.224   6.625  16.993  0.00  0.00    +0.000 A 
ATOM      9  N   UNL     1       7.458   5.593  16.169  0.00  0.00    +0.000 NA
ATOM     10  C   UNL     1       6.448   4.714  16.037  0.00  0.00    +0.000 A 
ATOM     11  C   UNL     1       5.237   4.835  16.690  0.00  0.00    +0.000 A 
ATOM     12  C   UNL     1       4.131   3.843  16.482  0.00  0.00    +0.000 C 
ENDROOT
BRANCH   1  13
ATOM     13  C   UNL     1       1.612   3.139  19.283  0.00  0.00    +0.000 C 
BRANCH  13  15
ATOM     14  C   UNL     1       3.669   2.698  20.737  0.00  0.00    +0.000 C 
ATOM     15  C   UNL     1       2.221   3.216  20.707  0.00  0.00    +0.000 C 
ATOM     16  C   UNL     1       1.352   2.447  21.719  0.00  0.00    +0.000 C 
ATOM     17  C   UNL     1       2.248   4.698  21.140  0.00  0.00    +0.000 C 
ENDBRANCH  13  15
ENDBRANCH   1  13
TORSDOF 2
ENDMDL
MODEL 6
REMARK VINA RESULT:      -6.5      2.429      5.829
REMARK  Name = 
REMARK  5 active torsions:
REMARK  status: ('A' for Active; 'I' for Inactive)
REMARK    1  A    between atoms: C_1  and  C_2
REMARK    2  A    between atoms: C_2  and  C_3
REMARK    3  A    between atoms: C_2  and  C_4
REMARK    4  A    between atoms: C_2  and  C_5
REMARK    5  A    between atoms: C_5  and  C_6
REMARK                            x       y       z     vdW  Elec       q    Type
REMARK                         _______ _______ _______ _____ _____    ______ ____
ROOT
ATOM      1  C   UNL     1       4.586   3.376  18.650  0.00  0.00    +0.000 C 
ATOM      2  O   UNL     1       4.924   2.979  19.762  0.00  0.00    +0.000 OA
ATOM      3  N   UNL     1       5.476   4.073  17.846  0.00  0.00    +0.000 N 
ATOM      4  C   UNL     1       5.220   4.567  16.493  0.00  0.00    +0.000 C 
ATOM      5  C   UNL     1       5.159   6.090  16.508  0.00  0.00    +0.000 C 
ATOM      6  C   UNL     1       6.355   6.673  17.220  0.00  0.00    +0.000 A 
ATOM      7  N   UNL     1       6.641   7.967  16.961  0.00  0.00    +0.000 NA
ATOM      8  C   UNL     1       7.675   8.490  17.640  0.00  0.00    +0.000 A 
ATOM      9  N   UNL     1       8.437   7.850  18.539  0.00  0.00    +0.000 NA
ATOM     10  C   UNL     1       8.110   6.565  18.769  0.00  0.00    +0.000 A 
ATOM     11  C   UNL     1       7.067   5.915  18.139  0.00  0.00    +0.000 A 
ATOM     12  C   UNL     1       6.765   4.471  18.407  0.00  0.00    +0.000 C 
ENDROOT
BRANCH   1  13
ATOM     13  C   UNL     1       3.181   3.152  18.093  0.00  0.00    +0.000 C 
BRANCH  13  15
ATOM     14  C   UNL     1       2.630   5.388  19.204  0.00  0.00    +0.000 C 
ATOM     15  C   UNL     1       2.061   4.074  18.640  0.00  0.00    +0.000 C 
ATOM     16  C   UNL     1       1.221   3.348  19.705  0.00  0.00    +0.000 C 
ATOM     17  C   UNL     1       1.123   4.438  17.468  0.00  0.00    +0.000 C 
ENDBRANCH  13  15
ENDBRANCH   1  13
TORSDOF 2
ENDMDL
MODEL 7
REMARK VINA RESULT:      -6.4      2.384      5.759
REMARK  Name = 
REMARK  5 active torsions:
REMARK  status: ('A' for Active; 'I' for Inactive)
REMARK    1  A    between atoms: C_1  and  C_2
REMARK    2  A    between atoms: C_2  and  C_3
REMARK    3  A    between atoms: C_2  and  C_4
REMARK    4  A    between atoms: C_2  and  C_5
REMARK    5  A    between atoms: C_5  and  C_6
REMARK                            x       y       z     vdW  Elec       q    Type
REMARK                         _______ _______ _______ _____ _____    ______ ____
ROOT
ATOM      1  C   UNL     1       4.527   3.247  18.943  0.00  0.00    +0.000 C 
ATOM      2  O   UNL     1       4.944   2.883  20.040  0.00  0.00    +0.000 OA
ATOM      3  N   UNL     1       5.353   3.926  18.061  0.00  0.00    +0.000 N 
ATOM      4  C   UNL     1       5.000   4.381  16.716  0.00  0.00    +0.000 C 
ATOM      5  C   UNL     1       4.929   5.903  16.693  0.00  0.00    +0.000 C 
ATOM      6  C   UNL     1       6.167   6.513  17.304  0.00  0.00    +0.000 A 
ATOM      7  N   UNL     1       6.424   7.800  16.991  0.00  0.00    +0.000 NA
ATOM      8  C   UNL     1       7.499   8.348  17.582  0.00  0.00    +0.000 A 
ATOM      9  N   UNL     1       8.326   7.737  18.442  0.00  0.00    +0.000 NA
ATOM     10  C   UNL     1       8.026   6.458  18.729  0.00  0.00    +0.000 A 
ATOM     11  C   UNL     1       6.947   5.785  18.191  0.00  0.00    +0.000 A 
ATOM     12  C   UNL     1       6.675   4.347  18.520  0.00  0.00    +0.000 C 
ENDROOT
BRANCH   1  13
ATOM     13  C   UNL     1       3.088   2.999  18.492  0.00  0.00    +0.000 C 
BRANCH  13  15
ATOM     14  C   UNL     1       1.366   4.691  17.651  0.00  0.00    +0.000 C 
ATOM     15  C   UNL     1       2.041   4.072  18.887  0.00  0.00    +0.000 C 
ATOM     16  C   UNL     1       2.679   5.169  19.759  0.00  0.00    +0.000 C 
ATOM     17  C   UNL     1       0.940   3.385  19.724  0.00  0.00    +0.000 C 
ENDBRANCH  13  15
ENDBRANCH   1  13
TORSDOF 2
ENDMDL
MODEL 8
REMARK VINA RESULT:      -6.4      2.379      5.742
REMARK  Name = 
REMARK  5 active torsions:
REMARK  status: ('A' for Active; 'I' for Inactive)
REMARK    1  A    between atoms: C_1  and  C_2
REMARK    2  A    between atoms: C_2  and  C_3
REMARK    3  A    between atoms: C_2  and  C_4
REMARK    4  A    between atoms: C_2  and  C_5
REMARK    5  A    between atoms: C_5  and  C_6
REMARK                            x       y       z     vdW  Elec       q    Type
REMARK                         _______ _______ _______ _____ _____    ______ ____
ROOT
ATOM      1  C   UNL     1       4.504   3.256  18.915  0.00  0.00    +0.000 C 
ATOM      2  O   UNL     1       4.911   2.887  20.015  0.00  0.00    +0.000 OA
ATOM      3  N   UNL     1       5.341   3.932  18.040  0.00  0.00    +0.000 N 
ATOM      4  C   UNL     1       5.000   4.391  16.694  0.00  0.00    +0.000 C 
ATOM      5  C   UNL     1       4.937   5.914  16.674  0.00  0.00    +0.000 C 
ATOM      6  C   UNL     1       6.175   6.516  17.295  0.00  0.00    +0.000 A 
ATOM      7  N   UNL     1       6.441   7.802  16.986  0.00  0.00    +0.000 NA
ATOM      8  C   UNL     1       7.514   8.343  17.586  0.00  0.00    +0.000 A 
ATOM      9  N   UNL     1       8.331   7.726  18.452  0.00  0.00    +0.000 NA
ATOM     10  C   UNL     1       8.023   6.447  18.734  0.00  0.00    +0.000 A 
ATOM     11  C   UNL     1       6.944   5.781  18.187  0.00  0.00    +0.000 A 
ATOM     12  C   UNL     1       6.662   4.345  18.510  0.00  0.00    +0.000 C 
ENDROOT
BRANCH   1  13
ATOM     13  C   UNL     1       3.068   3.016  18.453  0.00  0.00    +0.000 C 
BRANCH  13  15
ATOM     14  C   UNL     1       0.946   3.453  19.810  0.00  0.00    +0.000 C 
ATOM     15  C   UNL     1       2.013   4.067  18.888  0.00  0.00    +0.000 C 
ATOM     16  C   UNL     1       1.355   4.726  17.663  0.00  0.00    +0.000 C 
ATOM     17  C   UNL     1       2.737   5.173  19.686  0.00  0.00    +0.000 C 
ENDBRANCH  13  15
ENDBRANCH   1  13
TORSDOF 2
ENDMDL
MODEL 9
REMARK VINA RESULT:      -6.4      0.339      1.105
REMARK  Name = 
REMARK  5 active torsions:
REMARK  status: ('A' for Active; 'I' for Inactive)
REMARK    1  A    between atoms: C_1  and  C_2
REMARK    2  A    between atoms: C_2  and  C_3
REMARK    3  A    between atoms: C_2  and  C_4
REMARK    4  A    between atoms: C_2  and  C_5
REMARK    5  A    between atoms: C_5  and  C_6
REMARK                            x       y       z     vdW  Elec       q    Type
REMARK                         _______ _______ _______ _____ _____    ______ ____
ROOT
ATOM      1  C   UNL     1       4.120   6.368  17.383  0.00  0.00    +0.000 C 
ATOM      2  O   UNL     1       3.740   7.471  17.771  0.00  0.00    +0.000 OA
ATOM      3  N   UNL     1       3.407   5.221  17.701  0.00  0.00    +0.000 N 
ATOM      4  C   UNL     1       3.723   3.858  17.275  0.00  0.00    +0.000 C 
ATOM      5  C   UNL     1       4.179   3.040  18.477  0.00  0.00    +0.000 C 
ATOM      6  C   UNL     1       3.209   3.176  19.625  0.00  0.00    +0.000 A 
ATOM      7  N   UNL     1       3.260   2.220  20.576  0.00  0.00    +0.000 NA
ATOM      8  C   UNL     1       2.430   2.380  21.619  0.00  0.00    +0.000 A 
ATOM      9  N   UNL     1       1.568   3.392  21.797  0.00  0.00    +0.000 NA
ATOM     10  C   UNL     1       1.558   4.325  20.828  0.00  0.00    +0.000 A 
ATOM     11  C   UNL     1       2.366   4.276  19.709  0.00  0.00    +0.000 A 
ATOM     12  C   UNL     1       2.293   5.326  18.641  0.00  0.00    +0.000 C 
ENDROOT
BRANCH   1  13
ATOM     13  C   UNL     1       5.391   6.185  16.555  0.00  0.00    +0.000 C 
BRANCH  13  15
ATOM     14  C   UNL     1       7.601   7.246  17.282  0.00  0.00    +0.000 C 
ATOM     15  C   UNL     1       6.712   5.993  17.344  0.00  0.00    +0.000 C 
ATOM     16  C   UNL     1       7.481   4.760  16.837  0.00  0.00    +0.000 C 
ATOM     17  C   UNL     1       6.355   5.748  18.827  0.00  0.00    +0.000 C 
ENDBRANCH  13  15
ENDBRANCH   1  13
TORSDOF 2
ENDMDL
