MODEL 1
REMARK VINA RESULT:      -7.4      0.000      0.000
REMARK  Name = 
REMARK  8 active torsions:
REMARK  status: ('A' for Active; 'I' for Inactive)
REMARK    1  A    between atoms: C_1  and  O_2
REMARK    2  A    between atoms: O_2  and  C_3
REMARK    3  A    between atoms: C_6  and  C_7
REMARK    4  A    between atoms: C_9  and  C_10
REMARK    5  A    between atoms: C_14  and  C_15
REMARK    6  A    between atoms: N_18  and  C_19
REMARK    7  A    between atoms: C_22  and  C_23
REMARK    8  A    between atoms: C_23  and  O_25
REMARK                            x       y       z     vdW  Elec       q    Type
REMARK                         _______ _______ _______ _____ _____    ______ ____
ROOT
ATOM      1  C   UNL     1       0.263  11.635  18.930  0.00  0.00    +0.000 C 
ATOM      2  C   UNL     1       1.259  10.643  18.324  0.00  0.00    +0.000 C 
ATOM      3  C   UNL     1       1.202   9.543  19.341  0.00  0.00    +0.000 C 
ATOM      4  N   UNL     1       0.475   9.785  20.385  0.00  0.00    +0.000 NA
ATOM      5  N   UNL     1      -0.059  11.029  20.223  0.00  0.00    +0.000 N 
ENDROOT
BRANCH   3   6
ATOM      6  C   UNL     1       1.932   8.274  19.140  0.00  0.00    +0.000 A 
ATOM      7  C   UNL     1       2.722   8.084  18.004  0.00  0.00    +0.000 A 
ATOM      8  C   UNL     1       3.363   6.865  17.798  0.00  0.00    +0.000 A 
ATOM      9  C   UNL     1       3.216   5.832  18.723  0.00  0.00    +0.000 A 
ATOM     10  C   UNL     1       2.432   6.009  19.870  0.00  0.00    +0.000 A 
ATOM     11  C   UNL     1       2.230   4.889  20.846  0.00  0.00    +0.000 C 
ATOM     12  C   UNL     1       1.800   7.243  20.080  0.00  0.00    +0.000 A 
ENDBRANCH   3   6
BRANCH   1  16
ATOM     13  C   UNL     1       2.041  15.561  19.353  0.00  0.00    +0.000 A 
ATOM     14  C   UNL     1       0.746  15.425  18.852  0.00  0.00    +0.000 A 
ATOM     15  C   UNL     1       0.161  14.162  18.729  0.00  0.00    +0.000 A 
ATOM     16  C   UNL     1       0.876  13.012  19.088  0.00  0.00    +0.000 A 
ATOM     17  C   UNL     1       2.178  13.164  19.597  0.00  0.00    +0.000 A 
ATOM     18  C   UNL     1       2.759  14.426  19.721  0.00  0.00    +0.000 A 
BRANCH  13  20
ATOM     19  C   UNL     1       1.519  17.857  19.480  0.00  0.00    +0.000 C 
ATOM     20  O   UNL     1       2.517  16.842  19.419  0.00  0.00    +0.000 OA
ENDBRANCH  13  20
ENDBRANCH   1  16
BRANCH   5  21
ATOM     21  C   UNL     1      -1.037  11.471  21.109  0.00  0.00    +0.000 A 
ATOM     22  C   UNL     1      -0.945  11.146  22.470  0.00  0.00    +0.000 A 
ATOM     23  C   UNL     1      -1.901  11.574  23.394  0.00  0.00    +0.000 A 
ATOM     24  C   UNL     1      -3.000  12.329  22.975  0.00  0.00    +0.000 A 
ATOM     25  C   UNL     1      -3.112  12.672  21.624  0.00  0.00    +0.000 A 
ATOM     26  C   UNL     1      -2.132  12.248  20.711  0.00  0.00    +0.000 A 
BRANCH  24  27
ATOM     27  C   UNL     1      -3.964  12.761  24.016  0.00  0.00    +0.000 C 
ATOM     28  O   UNL     1      -4.239  13.939  24.207  0.00  0.00    +0.000 OA
BRANCH  27  29
ATOM     29  O   UNL     1      -4.481  11.772  24.772  0.00  0.00    +0.000 OA
ATOM     30  H   UNL     1      -5.015  12.057  25.533  0.00  0.00    +0.000 HD
ENDBRANCH  27  29
ENDBRANCH  24  27
ENDBRANCH   5  21
TORSDOF 6
ENDMDL
MODEL 2
REMARK VINA RESULT:      -7.4      0.804      1.622
REMARK  Name = 
REMARK  8 active torsions:
REMARK  status: ('A' for Active; 'I' for Inactive)
REMARK    1  A    between atoms: C_1  and  O_2
REMARK    2  A    between atoms: O_2  and  C_3
REMARK    3  A    between atoms: C_6  and  C_7
REMARK    4  A    between atoms: C_9  and  C_10
REMARK    5  A    between atoms: C_14  and  C_15
REMARK    6  A    between atoms: N_18  and  C_19
REMARK    7  A    between atoms: C_22  and  C_23
REMARK    8  A    between atoms: C_23  and  O_25
REMARK                            x       y       z     vdW  Elec       q    Type
REMARK                         _______ _______ _______ _____ _____    ______ ____
ROOT
ATOM      1  C   UNL     1       0.477  11.246  18.653  0.00  0.00    +0.000 C 
ATOM      2  C   UNL     1       1.456  10.237  18.047  0.00  0.00    +0.000 C 
ATOM      3  C   UNL     1       1.481   9.198  19.127  0.00  0.00    +0.000 C 
ATOM      4  N   UNL     1       0.812   9.489  20.197  0.00  0.00    +0.000 NA
ATOM      5  N   UNL     1       0.245  10.712  19.996  0.00  0.00    +0.000 N 
ENDROOT
BRANCH   3   6
ATOM      6  C   UNL     1       2.223   7.932  18.955  0.00  0.00    +0.000 A 
ATOM      7  C   UNL     1       2.119   6.916  19.909  0.00  0.00    +0.000 A 
ATOM      8  C   UNL     1       2.864   5.747  19.763  0.00  0.00    +0.000 A 
ATOM      9  C   UNL     1       3.713   5.590  18.669  0.00  0.00    +0.000 A 
ATOM     10  C   UNL     1       3.823   6.598  17.702  0.00  0.00    +0.000 A 
ATOM     11  C   UNL     1       4.770   6.458  16.547  0.00  0.00    +0.000 C 
ATOM     12  C   UNL     1       3.061   7.766  17.845  0.00  0.00    +0.000 A 
ENDBRANCH   3   6
BRANCH   1  16
ATOM     13  C   UNL     1       2.188  15.225  18.735  0.00  0.00    +0.000 A 
ATOM     14  C   UNL     1       0.803  15.053  18.750  0.00  0.00    +0.000 A 
ATOM     15  C   UNL     1       0.246  13.772  18.741  0.00  0.00    +0.000 A 
ATOM     16  C   UNL     1       1.072  12.640  18.695  0.00  0.00    +0.000 A 
ATOM     17  C   UNL     1       2.465  12.827  18.687  0.00  0.00    +0.000 A 
ATOM     18  C   UNL     1       3.019  14.108  18.698  0.00  0.00    +0.000 A 
BRANCH  13  20
ATOM     19  C   UNL     1       3.840  16.754  19.436  0.00  0.00    +0.000 C 
ATOM     20  O   UNL     1       2.621  16.523  18.735  0.00  0.00    +0.000 OA
ENDBRANCH  13  20
ENDBRANCH   1  16
BRANCH   5  21
ATOM     21  C   UNL     1      -0.687  11.189  20.913  0.00  0.00    +0.000 A 
ATOM     22  C   UNL     1      -0.547  10.884  22.274  0.00  0.00    +0.000 A 
ATOM     23  C   UNL     1      -1.456  11.348  23.228  0.00  0.00    +0.000 A 
ATOM     24  C   UNL     1      -2.556  12.119  22.840  0.00  0.00    +0.000 A 
ATOM     25  C   UNL     1      -2.715  12.441  21.489  0.00  0.00    +0.000 A 
ATOM     26  C   UNL     1      -1.782  11.982  20.545  0.00  0.00    +0.000 A 
BRANCH  24  27
ATOM     27  C   UNL     1      -3.469  12.588  23.911  0.00  0.00    +0.000 C 
ATOM     28  O   UNL     1      -4.382  11.898  24.343  0.00  0.00    +0.000 OA
BRANCH  27  29
ATOM     29  O   UNL     1      -3.255  13.848  24.342  0.00  0.00    +0.000 OA
ATOM     30  H   UNL     1      -2.615  14.368  23.827  0.00  0.00    +0.000 HD
ENDBRANCH  27  29
ENDBRANCH  24  27
ENDBRANCH   5  21
TORSDOF 6
ENDMDL
MODEL 3
REMARK VINA RESULT:      -7.4      0.706      1.135
REMARK  Name = 
REMARK  8 active torsions:
REMARK  status: ('A' for Active; 'I' for Inactive)
REMARK    1  A    between atoms: C_1  and  O_2
REMARK    2  A    between atoms: O_2  and  C_3
REMARK    3  A    between atoms: C_6  and  C_7
REMARK    4  A    between atoms: C_9  and  C_10
REMARK    5  A    between atoms: C_14  and  C_15
REMARK    6  A    between atoms: N_18  and  C_19
REMARK    7  A    between atoms: C_22  and  C_23
REMARK    8  A    between atoms: C_23  and  O_25
REMARK                            x       y       z     vdW  Elec       q    Type
REMARK                         _______ _______ _______ _____ _____    ______ ____
ROOT
ATOM      1  C   UNL     1       0.406  11.242  18.715  0.00  0.00    +0.000 C 
ATOM      2  C   UNL     1       1.370  10.209  18.127  0.00  0.00    +0.000 C 
ATOM      3  C   UNL     1       1.387   9.192  19.229  0.00  0.00    +0.000 C 
ATOM      4  N   UNL     1       0.726   9.515  20.295  0.00  0.00    +0.000 NA
ATOM      5  N   UNL     1       0.172  10.740  20.070  0.00  0.00    +0.000 N 
ENDROOT
BRANCH   3   6
ATOM      6  C   UNL     1       2.112   7.914  19.082  0.00  0.00    +0.000 A 
ATOM      7  C   UNL     1       2.941   7.693  17.979  0.00  0.00    +0.000 A 
ATOM      8  C   UNL     1       3.578   6.464  17.823  0.00  0.00    +0.000 A 
ATOM      9  C   UNL     1       3.391   5.454  18.766  0.00  0.00    +0.000 A 
ATOM     10  C   UNL     1       2.568   5.663  19.880  0.00  0.00    +0.000 A 
ATOM     11  C   UNL     1       2.323   4.566  20.873  0.00  0.00    +0.000 C 
ATOM     12  C   UNL     1       1.940   6.906  20.040  0.00  0.00    +0.000 A 
ENDBRANCH   3   6
BRANCH   1  16
ATOM     13  C   UNL     1       2.167  15.199  18.706  0.00  0.00    +0.000 A 
ATOM     14  C   UNL     1       0.782  15.044  18.628  0.00  0.00    +0.000 A 
ATOM     15  C   UNL     1       0.207  13.771  18.648  0.00  0.00    +0.000 A 
ATOM     16  C   UNL     1       1.017  12.629  18.725  0.00  0.00    +0.000 A 
ATOM     17  C   UNL     1       2.410  12.800  18.810  0.00  0.00    +0.000 A 
ATOM     18  C   UNL     1       2.981  14.072  18.792  0.00  0.00    +0.000 A 
BRANCH  13  20
ATOM     19  C   UNL     1       2.849  17.013  17.362  0.00  0.00    +0.000 C 
ATOM     20  O   UNL     1       2.619  16.490  18.668  0.00  0.00    +0.000 OA
ENDBRANCH  13  20
ENDBRANCH   1  16
BRANCH   5  21
ATOM     21  C   UNL     1      -0.750  11.247  20.980  0.00  0.00    +0.000 A 
ATOM     22  C   UNL     1      -1.879  11.939  20.519  0.00  0.00    +0.000 A 
ATOM     23  C   UNL     1      -2.833  12.458  21.397  0.00  0.00    +0.000 A 
ATOM     24  C   UNL     1      -2.671  12.319  22.779  0.00  0.00    +0.000 A 
ATOM     25  C   UNL     1      -1.557  11.628  23.264  0.00  0.00    +0.000 A 
ATOM     26  C   UNL     1      -0.616  11.096  22.366  0.00  0.00    +0.000 A 
BRANCH  24  27
ATOM     27  C   UNL     1      -3.733  12.882  23.648  0.00  0.00    +0.000 C 
ATOM     28  O   UNL     1      -3.981  14.080  23.688  0.00  0.00    +0.000 OA
BRANCH  27  29
ATOM     29  O   UNL     1      -4.374  11.990  24.430  0.00  0.00    +0.000 OA
ATOM     30  H   UNL     1      -4.420  12.213  25.375  0.00  0.00    +0.000 HD
ENDBRANCH  27  29
ENDBRANCH  24  27
ENDBRANCH   5  21
TORSDOF 6
ENDMDL
MODEL 4
REMARK VINA RESULT:      -7.3      0.571      1.074
REMARK  Name = 
REMARK  8 active torsions:
REMARK  status: ('A' for Active; 'I' for Inactive)
REMARK    1  A    between atoms: C_1  and  O_2
REMARK    2  A    between atoms: O_2  and  C_3
REMARK    3  A    between atoms: C_6  and  C_7
REMARK    4  A    between atoms: C_9  and  C_10
REMARK    5  A    between atoms: C_14  and  C_15
REMARK    6  A    between atoms: N_18  and  C_19
REMARK    7  A    between atoms: C_22  and  C_23
REMARK    8  A    between atoms: C_23  and  O_25
REMARK                            x       y       z     vdW  Elec       q    Type
REMARK                         _______ _______ _______ _____ _____    ______ ____
ROOT
ATOM      1  C   UNL     1       0.405  11.746  19.078  0.00  0.00    +0.000 C 
ATOM      2  C   UNL     1       1.401  10.750  18.477  0.00  0.00    +0.000 C 
ATOM      3  C   UNL     1       1.232   9.594  19.417  0.00  0.00    +0.000 C 
ATOM      4  N   UNL     1       0.446   9.804  20.424  0.00  0.00    +0.000 NA
ATOM      5  N   UNL     1      -0.027  11.078  20.307  0.00  0.00    +0.000 N 
ENDROOT
BRANCH   3   6
ATOM      6  C   UNL     1       1.923   8.309  19.184  0.00  0.00    +0.000 A 
ATOM      7  C   UNL     1       2.675   8.110  18.024  0.00  0.00    +0.000 A 
ATOM      8  C   UNL     1       3.279   6.877  17.789  0.00  0.00    +0.000 A 
ATOM      9  C   UNL     1       3.132   5.840  18.709  0.00  0.00    +0.000 A 
ATOM     10  C   UNL     1       2.385   6.026  19.879  0.00  0.00    +0.000 A 
ATOM     11  C   UNL     1       2.183   4.902  20.852  0.00  0.00    +0.000 C 
ATOM     12  C   UNL     1       1.792   7.273  20.118  0.00  0.00    +0.000 A 
ENDBRANCH   3   6
BRANCH   1  16
ATOM     13  C   UNL     1       2.247  15.575  19.914  0.00  0.00    +0.000 A 
ATOM     14  C   UNL     1       2.775  14.406  20.463  0.00  0.00    +0.000 A 
ATOM     15  C   UNL     1       2.195  13.166  20.183  0.00  0.00    +0.000 A 
ATOM     16  C   UNL     1       1.061  13.083  19.363  0.00  0.00    +0.000 A 
ATOM     17  C   UNL     1       0.544  14.268  18.812  0.00  0.00    +0.000 A 
ATOM     18  C   UNL     1       1.126  15.505  19.092  0.00  0.00    +0.000 A 
BRANCH  13  20
ATOM     19  C   UNL     1       4.180  16.907  19.692  0.00  0.00    +0.000 C 
ATOM     20  O   UNL     1       2.888  16.733  20.265  0.00  0.00    +0.000 OA
ENDBRANCH  13  20
ENDBRANCH   1  16
BRANCH   5  21
ATOM     21  C   UNL     1      -1.044  11.507  21.153  0.00  0.00    +0.000 A 
ATOM     22  C   UNL     1      -1.021  11.152  22.510  0.00  0.00    +0.000 A 
ATOM     23  C   UNL     1      -2.018  11.568  23.395  0.00  0.00    +0.000 A 
ATOM     24  C   UNL     1      -3.091  12.339  22.939  0.00  0.00    +0.000 A 
ATOM     25  C   UNL     1      -3.135  12.711  21.592  0.00  0.00    +0.000 A 
ATOM     26  C   UNL     1      -2.114  12.301  20.719  0.00  0.00    +0.000 A 
BRANCH  24  27
ATOM     27  C   UNL     1      -4.103  12.756  23.941  0.00  0.00    +0.000 C 
ATOM     28  O   UNL     1      -4.514  13.906  24.018  0.00  0.00    +0.000 OA
BRANCH  27  29
ATOM     29  O   UNL     1      -4.503  11.792  24.794  0.00  0.00    +0.000 OA
ATOM     30  H   UNL     1      -4.769  12.095  25.679  0.00  0.00    +0.000 HD
ENDBRANCH  27  29
ENDBRANCH  24  27
ENDBRANCH   5  21
TORSDOF 6
ENDMDL
MODEL 5
REMARK VINA RESULT:      -7.3      0.823      2.072
REMARK  Name = 
REMARK  8 active torsions:
REMARK  status: ('A' for Active; 'I' for Inactive)
REMARK    1  A    between atoms: C_1  and  O_2
REMARK    2  A    between atoms: O_2  and  C_3
REMARK    3  A    between atoms: C_6  and  C_7
REMARK    4  A    between atoms: C_9  and  C_10
REMARK    5  A    between atoms: C_14  and  C_15
REMARK    6  A    between atoms: N_18  and  C_19
REMARK    7  A    between atoms: C_22  and  C_23
REMARK    8  A    between atoms: C_23  and  O_25
REMARK                            x       y       z     vdW  Elec       q    Type
REMARK                         _______ _______ _______ _____ _____    ______ ____
ROOT
ATOM      1  C   UNL     1       0.453  11.202  18.678  0.00  0.00    +0.000 C 
ATOM      2  C   UNL     1       1.430  10.210  18.041  0.00  0.00    +0.000 C 
ATOM      3  C   UNL     1       1.501   9.167  19.115  0.00  0.00    +0.000 C 
ATOM      4  N   UNL     1       0.857   9.444  20.204  0.00  0.00    +0.000 NA
ATOM      5  N   UNL     1       0.266  10.659  20.024  0.00  0.00    +0.000 N 
ENDROOT
BRANCH   3   6
ATOM      6  C   UNL     1       2.256   7.913  18.918  0.00  0.00    +0.000 A 
ATOM      7  C   UNL     1       2.173   6.881  19.856  0.00  0.00    +0.000 A 
ATOM      8  C   UNL     1       2.931   5.724  19.686  0.00  0.00    +0.000 A 
ATOM      9  C   UNL     1       3.773   5.595  18.583  0.00  0.00    +0.000 A 
ATOM     10  C   UNL     1       3.863   6.619  17.631  0.00  0.00    +0.000 A 
ATOM     11  C   UNL     1       4.801   6.508  16.466  0.00  0.00    +0.000 C 
ATOM     12  C   UNL     1       3.087   7.775  17.798  0.00  0.00    +0.000 A 
ENDBRANCH   3   6
BRANCH   1  16
ATOM     13  C   UNL     1       2.080  15.214  18.804  0.00  0.00    +0.000 A 
ATOM     14  C   UNL     1       2.929  14.108  18.851  0.00  0.00    +0.000 A 
ATOM     15  C   UNL     1       2.411  12.811  18.794  0.00  0.00    +0.000 A 
ATOM     16  C   UNL     1       1.027  12.604  18.709  0.00  0.00    +0.000 A 
ATOM     17  C   UNL     1       0.184  13.727  18.655  0.00  0.00    +0.000 A 
ATOM     18  C   UNL     1       0.703  15.021  18.711  0.00  0.00    +0.000 A 
BRANCH  13  20
ATOM     19  C   UNL     1       3.989  16.425  19.472  0.00  0.00    +0.000 C 
ATOM     20  O   UNL     1       2.695  16.434  18.878  0.00  0.00    +0.000 OA
ENDBRANCH  13  20
ENDBRANCH   1  16
BRANCH   5  21
ATOM     21  C   UNL     1      -0.647  11.118  20.968  0.00  0.00    +0.000 A 
ATOM     22  C   UNL     1      -1.687  11.974  20.577  0.00  0.00    +0.000 A 
ATOM     23  C   UNL     1      -2.629  12.452  21.492  0.00  0.00    +0.000 A 
ATOM     24  C   UNL     1      -2.543  12.102  22.842  0.00  0.00    +0.000 A 
ATOM     25  C   UNL     1      -1.519  11.245  23.257  0.00  0.00    +0.000 A 
ATOM     26  C   UNL     1      -0.591  10.758  22.321  0.00  0.00    +0.000 A 
BRANCH  24  27
ATOM     27  C   UNL     1      -3.588  12.635  23.750  0.00  0.00    +0.000 C 
ATOM     28  O   UNL     1      -4.302  11.907  24.427  0.00  0.00    +0.000 OA
BRANCH  27  29
ATOM     29  O   UNL     1      -3.730  13.976  23.743  0.00  0.00    +0.000 OA
ATOM     30  H   UNL     1      -3.207  14.453  23.077  0.00  0.00    +0.000 HD
ENDBRANCH  27  29
ENDBRANCH  24  27
ENDBRANCH   5  21
TORSDOF 6
ENDMDL
MODEL 6
REMARK VINA RESULT:      -7.3      0.543      1.386
REMARK  Name = 
REMARK  8 active torsions:
REMARK  status: ('A' for Active; 'I' for Inactive)
REMARK    1  A    between atoms: C_1  and  O_2
REMARK    2  A    between atoms: O_2  and  C_3
REMARK    3  A    between atoms: C_6  and  C_7
REMARK    4  A    between atoms: C_9  and  C_10
REMARK    5  A    between atoms: C_14  and  C_15
REMARK    6  A    between atoms: N_18  and  C_19
REMARK    7  A    between atoms: C_22  and  C_23
REMARK    8  A    between atoms: C_23  and  O_25
REMARK                            x       y       z     vdW  Elec       q    Type
REMARK                         _______ _______ _______ _____ _____    ______ ____
ROOT
ATOM      1  C   UNL     1       0.283  11.394  18.846  0.00  0.00    +0.000 C 
ATOM      2  C   UNL     1       1.271  10.419  18.201  0.00  0.00    +0.000 C 
ATOM      3  C   UNL     1       1.327   9.351  19.252  0.00  0.00    +0.000 C 
ATOM      4  N   UNL     1       0.666   9.602  20.337  0.00  0.00    +0.000 NA
ATOM      5  N   UNL     1       0.076  10.820  20.176  0.00  0.00    +0.000 N 
ENDROOT
BRANCH   3   6
ATOM      6  C   UNL     1       2.088   8.103  19.036  0.00  0.00    +0.000 A 
ATOM      7  C   UNL     1       2.893   7.951  17.904  0.00  0.00    +0.000 A 
ATOM      8  C   UNL     1       3.564   6.750  17.685  0.00  0.00    +0.000 A 
ATOM      9  C   UNL     1       3.433   5.699  18.592  0.00  0.00    +0.000 A 
ATOM     10  C   UNL     1       2.633   5.839  19.733  0.00  0.00    +0.000 A 
ATOM     11  C   UNL     1       2.449   4.698  20.689  0.00  0.00    +0.000 C 
ATOM     12  C   UNL     1       1.972   7.054  19.958  0.00  0.00    +0.000 A 
ENDBRANCH   3   6
BRANCH   1  16
ATOM     13  C   UNL     1       1.896  15.407  19.090  0.00  0.00    +0.000 A 
ATOM     14  C   UNL     1       2.717  14.303  19.318  0.00  0.00    +0.000 A 
ATOM     15  C   UNL     1       2.207  13.005  19.224  0.00  0.00    +0.000 A 
ATOM     16  C   UNL     1       0.855  12.797  18.920  0.00  0.00    +0.000 A 
ATOM     17  C   UNL     1       0.039  13.918  18.686  0.00  0.00    +0.000 A 
ATOM     18  C   UNL     1       0.552  15.212  18.779  0.00  0.00    +0.000 A 
BRANCH  13  20
ATOM     19  C   UNL     1       3.913  16.628  19.044  0.00  0.00    +0.000 C 
ATOM     20  O   UNL     1       2.499  16.628  19.220  0.00  0.00    +0.000 OA
ENDBRANCH  13  20
ENDBRANCH   1  16
BRANCH   5  21
ATOM     21  C   UNL     1      -0.853  11.255  21.117  0.00  0.00    +0.000 A 
ATOM     22  C   UNL     1      -1.921  12.070  20.718  0.00  0.00    +0.000 A 
ATOM     23  C   UNL     1      -2.880  12.523  21.629  0.00  0.00    +0.000 A 
ATOM     24  C   UNL     1      -2.782  12.189  22.982  0.00  0.00    +0.000 A 
ATOM     25  C   UNL     1      -1.729  11.371  23.404  0.00  0.00    +0.000 A 
ATOM     26  C   UNL     1      -0.784  10.909  22.473  0.00  0.00    +0.000 A 
BRANCH  24  27
ATOM     27  C   UNL     1      -3.844  12.693  23.886  0.00  0.00    +0.000 C 
ATOM     28  O   UNL     1      -4.188  13.868  23.903  0.00  0.00    +0.000 OA
BRANCH  27  29
ATOM     29  O   UNL     1      -4.372  11.779  24.725  0.00  0.00    +0.000 OA
ATOM     30  H   UNL     1      -4.587  12.099  25.617  0.00  0.00    +0.000 HD
ENDBRANCH  27  29
ENDBRANCH  24  27
ENDBRANCH   5  21
TORSDOF 6
ENDMDL
MODEL 7
REMARK VINA RESULT:      -7.3      3.691      6.984
REMARK  Name = 
REMARK  8 active torsions:
REMARK  status: ('A' for Active; 'I' for Inactive)
REMARK    1  A    between atoms: C_1  and  O_2
REMARK    2  A    between atoms: O_2  and  C_3
REMARK    3  A    between atoms: C_6  and  C_7
REMARK    4  A    between atoms: C_9  and  C_10
REMARK    5  A    between atoms: C_14  and  C_15
REMARK    6  A    between atoms: N_18  and  C_19
REMARK    7  A    between atoms: C_22  and  C_23
REMARK    8  A    between atoms: C_23  and  O_25
REMARK                            x       y       z     vdW  Elec       q    Type
REMARK                         _______ _______ _______ _____ _____    ______ ____
ROOT
ATOM      1  C   UNL     1      -0.051  11.818  20.187  0.00  0.00    +0.000 C 
ATOM      2  C   UNL     1      -1.363  12.569  19.943  0.00  0.00    +0.000 C 
ATOM      3  C   UNL     1      -2.075  11.594  19.055  0.00  0.00    +0.000 C 
ATOM      4  N   UNL     1      -1.389  10.553  18.706  0.00  0.00    +0.000 NA
ATOM      5  N   UNL     1      -0.166  10.660  19.299  0.00  0.00    +0.000 N 
ENDROOT
BRANCH   3   6
ATOM      6  C   UNL     1      -3.470  11.826  18.625  0.00  0.00    +0.000 A 
ATOM      7  C   UNL     1      -3.864  11.539  17.315  0.00  0.00    +0.000 A 
ATOM      8  C   UNL     1      -5.168  11.811  16.907  0.00  0.00    +0.000 A 
ATOM      9  C   UNL     1      -6.079  12.370  17.801  0.00  0.00    +0.000 A 
ATOM     10  C   UNL     1      -5.700  12.658  19.118  0.00  0.00    +0.000 A 
ATOM     11  C   UNL     1      -6.661  13.302  20.074  0.00  0.00    +0.000 C 
ATOM     12  C   UNL     1      -4.391  12.368  19.530  0.00  0.00    +0.000 A 
ENDBRANCH   3   6
BRANCH   1  16
ATOM     13  C   UNL     1       3.361  14.296  19.200  0.00  0.00    +0.000 A 
ATOM     14  C   UNL     1       3.100  13.953  20.527  0.00  0.00    +0.000 A 
ATOM     15  C   UNL     1       2.011  13.140  20.850  0.00  0.00    +0.000 A 
ATOM     16  C   UNL     1       1.151  12.675  19.845  0.00  0.00    +0.000 A 
ATOM     17  C   UNL     1       1.429  13.023  18.511  0.00  0.00    +0.000 A 
ATOM     18  C   UNL     1       2.518  13.833  18.192  0.00  0.00    +0.000 A 
BRANCH  13  20
ATOM     19  C   UNL     1       5.183  14.850  17.810  0.00  0.00    +0.000 C 
ATOM     20  O   UNL     1       4.446  15.106  19.002  0.00  0.00    +0.000 OA
ENDBRANCH  13  20
ENDBRANCH   1  16
BRANCH   5  21
ATOM     21  C   UNL     1       0.711   9.581  19.249  0.00  0.00    +0.000 A 
ATOM     22  C   UNL     1       1.316   9.229  18.034  0.00  0.00    +0.000 A 
ATOM     23  C   UNL     1       2.209   8.158  17.941  0.00  0.00    +0.000 A 
ATOM     24  C   UNL     1       2.506   7.386  19.068  0.00  0.00    +0.000 A 
ATOM     25  C   UNL     1       1.920   7.720  20.293  0.00  0.00    +0.000 A 
ATOM     26  C   UNL     1       1.040   8.812  20.373  0.00  0.00    +0.000 A 
BRANCH  24  27
ATOM     27  C   UNL     1       3.474   6.275  18.895  0.00  0.00    +0.000 C 
ATOM     28  O   UNL     1       3.976   6.005  17.812  0.00  0.00    +0.000 OA
BRANCH  27  29
ATOM     29  O   UNL     1       3.726   5.550  20.004  0.00  0.00    +0.000 OA
ATOM     30  H   UNL     1       4.364   5.938  20.626  0.00  0.00    +0.000 HD
ENDBRANCH  27  29
ENDBRANCH  24  27
ENDBRANCH   5  21
TORSDOF 6
ENDMDL
MODEL 8
REMARK VINA RESULT:      -7.3      0.685      1.701
REMARK  Name = 
REMARK  8 active torsions:
REMARK  status: ('A' for Active; 'I' for Inactive)
REMARK    1  A    between atoms: C_1  and  O_2
REMARK    2  A    between atoms: O_2  and  C_3
REMARK    3  A    between atoms: C_6  and  C_7
REMARK    4  A    between atoms: C_9  and  C_10
REMARK    5  A    between atoms: C_14  and  C_15
REMARK    6  A    between atoms: N_18  and  C_19
REMARK    7  A    between atoms: C_22  and  C_23
REMARK    8  A    between atoms: C_23  and  O_25
REMARK                            x       y       z     vdW  Elec       q    Type
REMARK                         _______ _______ _______ _____ _____    ______ ____
ROOT
ATOM      1  C   UNL     1       0.471  11.252  18.662  0.00  0.00    +0.000 C 
ATOM      2  C   UNL     1       1.440  10.240  18.047  0.00  0.00    +0.000 C 
ATOM      3  C   UNL     1       1.478   9.204  19.130  0.00  0.00    +0.000 C 
ATOM      4  N   UNL     1       0.824   9.499  20.207  0.00  0.00    +0.000 NA
ATOM      5  N   UNL     1       0.255  10.722  20.010  0.00  0.00    +0.000 N 
ENDROOT
BRANCH   3   6
ATOM      6  C   UNL     1       2.216   7.936  18.952  0.00  0.00    +0.000 A 
ATOM      7  C   UNL     1       2.109   6.915  19.900  0.00  0.00    +0.000 A 
ATOM      8  C   UNL     1       2.850   5.746  19.749  0.00  0.00    +0.000 A 
ATOM      9  C   UNL     1       3.700   5.592  18.655  0.00  0.00    +0.000 A 
ATOM     10  C   UNL     1       3.814   6.604  17.694  0.00  0.00    +0.000 A 
ATOM     11  C   UNL     1       4.761   6.467  16.539  0.00  0.00    +0.000 C 
ATOM     12  C   UNL     1       3.055   7.773  17.842  0.00  0.00    +0.000 A 
ENDBRANCH   3   6
BRANCH   1  16
ATOM     13  C   UNL     1       2.187  15.228  18.710  0.00  0.00    +0.000 A 
ATOM     14  C   UNL     1       0.802  15.059  18.718  0.00  0.00    +0.000 A 
ATOM     15  C   UNL     1       0.242  13.778  18.720  0.00  0.00    +0.000 A 
ATOM     16  C   UNL     1       1.067  12.645  18.692  0.00  0.00    +0.000 A 
ATOM     17  C   UNL     1       2.461  12.830  18.691  0.00  0.00    +0.000 A 
ATOM     18  C   UNL     1       3.016  14.109  18.691  0.00  0.00    +0.000 A 
BRANCH  13  20
ATOM     19  C   UNL     1       2.211  17.313  19.811  0.00  0.00    +0.000 C 
ATOM     20  O   UNL     1       2.623  16.525  18.698  0.00  0.00    +0.000 OA
ENDBRANCH  13  20
ENDBRANCH   1  16
BRANCH   5  21
ATOM     21  C   UNL     1      -0.664  11.202  20.937  0.00  0.00    +0.000 A 
ATOM     22  C   UNL     1      -1.762  11.960  20.505  0.00  0.00    +0.000 A 
ATOM     23  C   UNL     1      -2.712  12.456  21.402  0.00  0.00    +0.000 A 
ATOM     24  C   UNL     1      -2.576  12.224  22.774  0.00  0.00    +0.000 A 
ATOM     25  C   UNL     1      -1.493  11.466  23.230  0.00  0.00    +0.000 A 
ATOM     26  C   UNL     1      -0.557  10.960  22.313  0.00  0.00    +0.000 A 
BRANCH  24  27
ATOM     27  C   UNL     1      -3.632  12.768  23.663  0.00  0.00    +0.000 C 
ATOM     28  O   UNL     1      -3.842  13.968  23.774  0.00  0.00    +0.000 OA
BRANCH  27  29
ATOM     29  O   UNL     1      -4.313  11.851  24.380  0.00  0.00    +0.000 OA
ATOM     30  H   UNL     1      -5.112  11.493  23.957  0.00  0.00    +0.000 HD
ENDBRANCH  27  29
ENDBRANCH  24  27
ENDBRANCH   5  21
TORSDOF 6
ENDMDL
MODEL 9
REMARK VINA RESULT:      -7.3      3.666      6.937
REMARK  Name = 
REMARK  8 active torsions:
REMARK  status: ('A' for Active; 'I' for Inactive)
REMARK    1  A    between atoms: C_1  and  O_2
REMARK    2  A    between atoms: O_2  and  C_3
REMARK    3  A    between atoms: C_6  and  C_7
REMARK    4  A    between atoms: C_9  and  C_10
REMARK    5  A    between atoms: C_14  and  C_15
REMARK    6  A    between atoms: N_18  and  C_19
REMARK    7  A    between atoms: C_22  and  C_23
REMARK    8  A    between atoms: C_23  and  O_25
REMARK                            x       y       z     vdW  Elec       q    Type
REMARK                         _______ _______ _______ _____ _____    ______ ____
ROOT
ATOM      1  C   UNL     1      -0.039  11.815  20.167  0.00  0.00    +0.000 C 
ATOM      2  C   UNL     1      -1.370  12.552  20.002  0.00  0.00    +0.000 C 
ATOM      3  C   UNL     1      -2.087  11.617  19.075  0.00  0.00    +0.000 C 
ATOM      4  N   UNL     1      -1.390  10.613  18.648  0.00  0.00    +0.000 NA
ATOM      5  N   UNL     1      -0.155  10.709  19.215  0.00  0.00    +0.000 N 
ENDROOT
BRANCH   3   6
ATOM      6  C   UNL     1      -3.497  11.845  18.696  0.00  0.00    +0.000 A 
ATOM      7  C   UNL     1      -3.945  11.524  17.412  0.00  0.00    +0.000 A 
ATOM      8  C   UNL     1      -5.263  11.792  17.049  0.00  0.00    +0.000 A 
ATOM      9  C   UNL     1      -6.135  12.381  17.963  0.00  0.00    +0.000 A 
ATOM     10  C   UNL     1      -5.702  12.703  19.255  0.00  0.00    +0.000 A 
ATOM     11  C   UNL     1      -6.619  13.380  20.230  0.00  0.00    +0.000 C 
ATOM     12  C   UNL     1      -4.378  12.418  19.621  0.00  0.00    +0.000 A 
ENDBRANCH   3   6
BRANCH   1  16
ATOM     13  C   UNL     1       3.348  14.358  19.258  0.00  0.00    +0.000 A 
ATOM     14  C   UNL     1       2.493  13.933  18.241  0.00  0.00    +0.000 A 
ATOM     15  C   UNL     1       1.389  13.127  18.530  0.00  0.00    +0.000 A 
ATOM     16  C   UNL     1       1.138  12.715  19.847  0.00  0.00    +0.000 A 
ATOM     17  C   UNL     1       2.003  13.156  20.863  0.00  0.00    +0.000 A 
ATOM     18  C   UNL     1       3.104  13.963  20.571  0.00  0.00    +0.000 A 
BRANCH  13  20
ATOM     19  C   UNL     1       5.240  14.551  17.865  0.00  0.00    +0.000 C 
ATOM     20  O   UNL     1       4.401  15.134  18.858  0.00  0.00    +0.000 OA
ENDBRANCH  13  20
ENDBRANCH   1  16
BRANCH   5  21
ATOM     21  C   UNL     1       0.742   9.654  19.078  0.00  0.00    +0.000 A 
ATOM     22  C   UNL     1       1.024   8.830  20.176  0.00  0.00    +0.000 A 
ATOM     23  C   UNL     1       1.912   7.755  20.079  0.00  0.00    +0.000 A 
ATOM     24  C   UNL     1       2.568   7.487  18.874  0.00  0.00    +0.000 A 
ATOM     25  C   UNL     1       2.299   8.291  17.762  0.00  0.00    +0.000 A 
ATOM     26  C   UNL     1       1.389   9.356  17.871  0.00  0.00    +0.000 A 
BRANCH  24  27
ATOM     27  C   UNL     1       3.484   6.321  18.843  0.00  0.00    +0.000 C 
ATOM     28  O   UNL     1       4.007   5.925  17.810  0.00  0.00    +0.000 OA
BRANCH  27  29
ATOM     29  O   UNL     1       3.663   5.695  20.024  0.00  0.00    +0.000 OA
ATOM     30  H   UNL     1       4.014   6.245  20.745  0.00  0.00    +0.000 HD
ENDBRANCH  27  29
ENDBRANCH  24  27
ENDBRANCH   5  21
TORSDOF 6
ENDMDL
