MODEL 1
REMARK VINA RESULT:      -7.2      0.000      0.000
REMARK  Name = 
REMARK  10 active torsions:
REMARK  status: ('A' for Active; 'I' for Inactive)
REMARK    1  A    between atoms: C_2  and  C_3
REMARK    2  A    between atoms: C_3  and  C_4
REMARK    3  A    between atoms: C_3  and  C_5
REMARK    4  A    between atoms: C_3  and  C_6
REMARK    5  A    between atoms: C_9  and  O_10
REMARK    6  A    between atoms: C_17  and  O_18
REMARK    7  A    between atoms: C_19  and  O_20
REMARK    8  A    between atoms: O_20  and  C_21
REMARK    9  A    between atoms: C_27  and  C_28
REMARK   10  A    between atoms: C_27  and  C_29
REMARK                            x       y       z     vdW  Elec       q    Type
REMARK                         _______ _______ _______ _____ _____    ______ ____
ROOT
ATOM      1  C   UNL     1      -3.329  12.684  20.598  0.00  0.00    +0.000 A 
ATOM      2  C   UNL     1      -4.480  12.834  19.716  0.00  0.00    +0.000 A 
ATOM      3  C   UNL     1      -4.577  12.199  18.467  0.00  0.00    +0.000 A 
ATOM      4  C   UNL     1      -3.495  11.464  18.012  0.00  0.00    +0.000 A 
ATOM      5  C   UNL     1      -2.385  11.278  18.825  0.00  0.00    +0.000 A 
ATOM      6  C   UNL     1      -1.284  10.522  18.271  0.00  0.00    +0.000 A 
ATOM      7  O   UNL     1      -1.410   9.666  17.392  0.00  0.00    +0.000 OA
ATOM      8  C   UNL     1       0.025  10.782  18.881  0.00  0.00    +0.000 A 
ATOM      9  C   UNL     1       1.080  10.187  18.210  0.00  0.00    +0.000 A 
ATOM     10  C   UNL     1       1.450   8.996  18.784  0.00  0.00    +0.000 A 
ATOM     11  C   UNL     1       1.432   8.935  20.171  0.00  0.00    +0.000 A 
ATOM     12  C   UNL     1       0.840   9.965  20.941  0.00  0.00    +0.000 A 
ATOM     13  C   UNL     1      -0.070  10.809  20.272  0.00  0.00    +0.000 A 
ATOM     14  O   UNL     1      -1.120  11.502  20.892  0.00  0.00    +0.000 OA
ATOM     15  C   UNL     1      -2.261  11.833  20.121  0.00  0.00    +0.000 A 
ATOM     16  C   UNL     1      -5.757  12.289  17.622  0.00  0.00    +0.000 C 
ATOM     17  C   UNL     1      -6.721  13.108  18.007  0.00  0.00    +0.000 C 
ATOM     18  C   UNL     1      -6.623  13.949  19.252  0.00  0.00    +0.000 C 
ATOM     19  C   UNL     1      -6.512  15.417  18.822  0.00  0.00    +0.000 C 
ATOM     20  C   UNL     1      -7.896  13.721  20.067  0.00  0.00    +0.000 C 
ATOM     21  O   UNL     1      -5.513  13.649  20.127  0.00  0.00    +0.000 OA
ENDROOT
BRANCH   1  22
ATOM     22  C   UNL     1      -3.319  13.515  21.924  0.00  0.00    +0.000 C 
ATOM     23  C   UNL     1      -3.544  15.011  21.555  0.00  0.00    +0.000 C 
ATOM     24  C   UNL     1      -2.001  13.493  22.732  0.00  0.00    +0.000 C 
BRANCH  22  26
ATOM     25  C   UNL     1      -4.190  12.588  24.190  0.00  0.00    +0.000 C 
ATOM     26  C   UNL     1      -4.377  12.995  22.921  0.00  0.00    +0.000 C 
ENDBRANCH  22  26
ENDBRANCH   1  22
BRANCH   4  27
ATOM     27  O   UNL     1      -3.528  11.010  16.719  0.00  0.00    +0.000 OA
ATOM     28  H   UNL     1      -3.110  11.698  16.172  0.00  0.00    +0.000 HD
ENDBRANCH   4  27
BRANCH  11  29
ATOM     29  O   UNL     1       1.924   7.791  20.751  0.00  0.00    +0.000 OA
ATOM     30  H   UNL     1       1.323   7.525  21.472  0.00  0.00    +0.000 HD
ENDBRANCH  11  29
BRANCH  12  31
ATOM     31  O   UNL     1       1.011  10.034  22.295  0.00  0.00    +0.000 OA
ATOM     32  C   UNL     1      -0.045   9.412  23.053  0.00  0.00    +0.000 C 
ENDBRANCH  12  31
TORSDOF 5
ENDMDL
MODEL 2
REMARK VINA RESULT:      -6.9      0.526      1.169
REMARK  Name = 
REMARK  10 active torsions:
REMARK  status: ('A' for Active; 'I' for Inactive)
REMARK    1  A    between atoms: C_2  and  C_3
REMARK    2  A    between atoms: C_3  and  C_4
REMARK    3  A    between atoms: C_3  and  C_5
REMARK    4  A    between atoms: C_3  and  C_6
REMARK    5  A    between atoms: C_9  and  O_10
REMARK    6  A    between atoms: C_17  and  O_18
REMARK    7  A    between atoms: C_19  and  O_20
REMARK    8  A    between atoms: O_20  and  C_21
REMARK    9  A    between atoms: C_27  and  C_28
REMARK   10  A    between atoms: C_27  and  C_29
REMARK                            x       y       z     vdW  Elec       q    Type
REMARK                         _______ _______ _______ _____ _____    ______ ____
ROOT
ATOM      1  C   UNL     1      -3.350  12.634  20.567  0.00  0.00    +0.000 A 
ATOM      2  C   UNL     1      -4.489  12.780  19.670  0.00  0.00    +0.000 A 
ATOM      3  C   UNL     1      -4.563  12.152  18.416  0.00  0.00    +0.000 A 
ATOM      4  C   UNL     1      -3.469  11.429  17.972  0.00  0.00    +0.000 A 
ATOM      5  C   UNL     1      -2.369  11.246  18.799  0.00  0.00    +0.000 A 
ATOM      6  C   UNL     1      -1.254  10.502  18.257  0.00  0.00    +0.000 A 
ATOM      7  O   UNL     1      -1.360   9.651  17.370  0.00  0.00    +0.000 OA
ATOM      8  C   UNL     1       0.044  10.769  18.887  0.00  0.00    +0.000 A 
ATOM      9  C   UNL     1       1.113  10.186  18.227  0.00  0.00    +0.000 A 
ATOM     10  C   UNL     1       1.484   8.995  18.800  0.00  0.00    +0.000 A 
ATOM     11  C   UNL     1       1.447   8.925  20.185  0.00  0.00    +0.000 A 
ATOM     12  C   UNL     1       0.836   9.946  20.953  0.00  0.00    +0.000 A 
ATOM     13  C   UNL     1      -0.071  10.787  20.277  0.00  0.00    +0.000 A 
ATOM     14  O   UNL     1      -1.135  11.468  20.885  0.00  0.00    +0.000 OA
ATOM     15  C   UNL     1      -2.268  11.795  20.100  0.00  0.00    +0.000 A 
ATOM     16  C   UNL     1      -5.732  12.238  17.555  0.00  0.00    +0.000 C 
ATOM     17  C   UNL     1      -6.707  13.047  17.931  0.00  0.00    +0.000 C 
ATOM     18  C   UNL     1      -6.633  13.881  19.183  0.00  0.00    +0.000 C 
ATOM     19  C   UNL     1      -6.528  15.353  18.763  0.00  0.00    +0.000 C 
ATOM     20  C   UNL     1      -7.917  13.638  19.978  0.00  0.00    +0.000 C 
ATOM     21  O   UNL     1      -5.534  13.585  20.071  0.00  0.00    +0.000 OA
ENDROOT
BRANCH   1  22
ATOM     22  C   UNL     1      -3.365  13.457  21.898  0.00  0.00    +0.000 C 
ATOM     23  C   UNL     1      -3.090  12.474  23.074  0.00  0.00    +0.000 C 
ATOM     24  C   UNL     1      -4.701  14.149  22.255  0.00  0.00    +0.000 C 
BRANCH  22  26
ATOM     25  C   UNL     1      -1.229  14.765  22.589  0.00  0.00    +0.000 C 
ATOM     26  C   UNL     1      -2.346  14.616  21.855  0.00  0.00    +0.000 C 
ENDBRANCH  22  26
ENDBRANCH   1  22
BRANCH   4  27
ATOM     27  O   UNL     1      -3.480  10.983  16.676  0.00  0.00    +0.000 OA
ATOM     28  H   UNL     1      -4.366  10.613  16.516  0.00  0.00    +0.000 HD
ENDBRANCH   4  27
BRANCH  11  29
ATOM     29  O   UNL     1       1.940   7.781  20.765  0.00  0.00    +0.000 OA
ATOM     30  H   UNL     1       1.833   7.853  21.732  0.00  0.00    +0.000 HD
ENDBRANCH  11  29
BRANCH  12  31
ATOM     31  O   UNL     1       0.987  10.007  22.310  0.00  0.00    +0.000 OA
ATOM     32  C   UNL     1      -0.048   9.329  23.048  0.00  0.00    +0.000 C 
ENDBRANCH  12  31
TORSDOF 5
ENDMDL
MODEL 3
REMARK VINA RESULT:      -6.8     11.489     12.972
REMARK  Name = 
REMARK  10 active torsions:
REMARK  status: ('A' for Active; 'I' for Inactive)
REMARK    1  A    between atoms: C_2  and  C_3
REMARK    2  A    between atoms: C_3  and  C_4
REMARK    3  A    between atoms: C_3  and  C_5
REMARK    4  A    between atoms: C_3  and  C_6
REMARK    5  A    between atoms: C_9  and  O_10
REMARK    6  A    between atoms: C_17  and  O_18
REMARK    7  A    between atoms: C_19  and  O_20
REMARK    8  A    between atoms: O_20  and  C_21
REMARK    9  A    between atoms: C_27  and  C_28
REMARK   10  A    between atoms: C_27  and  C_29
REMARK                            x       y       z     vdW  Elec       q    Type
REMARK                         _______ _______ _______ _____ _____    ______ ____
ROOT
ATOM      1  C   UNL     1       8.921  15.079  22.546  0.00  0.00    +0.000 A 
ATOM      2  C   UNL     1       8.548  14.444  23.804  0.00  0.00    +0.000 A 
ATOM      3  C   UNL     1       8.496  13.050  23.973  0.00  0.00    +0.000 A 
ATOM      4  C   UNL     1       8.728  12.240  22.874  0.00  0.00    +0.000 A 
ATOM      5  C   UNL     1       9.104  12.799  21.661  0.00  0.00    +0.000 A 
ATOM      6  C   UNL     1       9.301  11.893  20.552  0.00  0.00    +0.000 A 
ATOM      7  O   UNL     1       9.624  10.709  20.679  0.00  0.00    +0.000 OA
ATOM      8  C   UNL     1       9.164  12.492  19.220  0.00  0.00    +0.000 A 
ATOM      9  C   UNL     1       9.173  11.566  18.189  0.00  0.00    +0.000 A 
ATOM     10  C   UNL     1      10.415  11.448  17.614  0.00  0.00    +0.000 A 
ATOM     11  C   UNL     1      11.148  12.616  17.458  0.00  0.00    +0.000 A 
ATOM     12  C   UNL     1      10.739  13.825  18.072  0.00  0.00    +0.000 A 
ATOM     13  C   UNL     1       9.837  13.711  19.149  0.00  0.00    +0.000 A 
ATOM     14  O   UNL     1       9.717  14.641  20.193  0.00  0.00    +0.000 OA
ATOM     15  C   UNL     1       9.242  14.192  21.449  0.00  0.00    +0.000 A 
ATOM     16  C   UNL     1       8.199  12.418  25.249  0.00  0.00    +0.000 C 
ATOM     17  C   UNL     1       7.842  13.205  26.249  0.00  0.00    +0.000 C 
ATOM     18  C   UNL     1       7.715  14.698  26.104  0.00  0.00    +0.000 C 
ATOM     19  C   UNL     1       6.228  15.058  26.221  0.00  0.00    +0.000 C 
ATOM     20  C   UNL     1       8.516  15.344  27.234  0.00  0.00    +0.000 C 
ATOM     21  O   UNL     1       8.219  15.254  24.869  0.00  0.00    +0.000 OA
ENDROOT
BRANCH   1  22
ATOM     22  C   UNL     1       8.856  16.641  22.476  0.00  0.00    +0.000 C 
ATOM     23  C   UNL     1      10.280  17.194  22.776  0.00  0.00    +0.000 C 
ATOM     24  C   UNL     1       7.929  17.330  23.505  0.00  0.00    +0.000 C 
BRANCH  22  26
ATOM     25  C   UNL     1       8.830  18.069  20.305  0.00  0.00    +0.000 C 
ATOM     26  C   UNL     1       8.318  17.120  21.111  0.00  0.00    +0.000 C 
ENDBRANCH  22  26
ENDBRANCH   1  22
BRANCH   4  27
ATOM     27  O   UNL     1       8.489  10.897  23.008  0.00  0.00    +0.000 OA
ATOM     28  H   UNL     1       9.318  10.443  22.776  0.00  0.00    +0.000 HD
ENDBRANCH   4  27
BRANCH  11  29
ATOM     29  O   UNL     1      12.332  12.521  16.768  0.00  0.00    +0.000 OA
ATOM     30  H   UNL     1      12.521  11.578  16.604  0.00  0.00    +0.000 HD
ENDBRANCH  11  29
BRANCH  12  31
ATOM     31  O   UNL     1      11.315  15.022  17.749  0.00  0.00    +0.000 OA
ATOM     32  C   UNL     1      10.419  15.952  17.110  0.00  0.00    +0.000 C 
ENDBRANCH  12  31
TORSDOF 5
ENDMDL
MODEL 4
REMARK VINA RESULT:      -6.7      3.710      5.648
REMARK  Name = 
REMARK  10 active torsions:
REMARK  status: ('A' for Active; 'I' for Inactive)
REMARK    1  A    between atoms: C_2  and  C_3
REMARK    2  A    between atoms: C_3  and  C_4
REMARK    3  A    between atoms: C_3  and  C_5
REMARK    4  A    between atoms: C_3  and  C_6
REMARK    5  A    between atoms: C_9  and  O_10
REMARK    6  A    between atoms: C_17  and  O_18
REMARK    7  A    between atoms: C_19  and  O_20
REMARK    8  A    between atoms: O_20  and  C_21
REMARK    9  A    between atoms: C_27  and  C_28
REMARK   10  A    between atoms: C_27  and  C_29
REMARK                            x       y       z     vdW  Elec       q    Type
REMARK                         _______ _______ _______ _____ _____    ______ ____
ROOT
ATOM      1  C   UNL     1       0.781   9.850  20.813  0.00  0.00    +0.000 A 
ATOM      2  C   UNL     1       0.756  11.181  20.219  0.00  0.00    +0.000 A 
ATOM      3  C   UNL     1       1.270  11.460  18.941  0.00  0.00    +0.000 A 
ATOM      4  C   UNL     1       1.906  10.444  18.247  0.00  0.00    +0.000 A 
ATOM      5  C   UNL     1       1.938   9.157  18.766  0.00  0.00    +0.000 A 
ATOM      6  C   UNL     1       2.643   8.155  17.997  0.00  0.00    +0.000 A 
ATOM      7  O   UNL     1       2.794   8.207  16.774  0.00  0.00    +0.000 OA
ATOM      8  C   UNL     1       3.123   7.000  18.763  0.00  0.00    +0.000 A 
ATOM      9  C   UNL     1       3.950   6.157  18.039  0.00  0.00    +0.000 A 
ATOM     10  C   UNL     1       3.268   5.081  17.527  0.00  0.00    +0.000 A 
ATOM     11  C   UNL     1       2.293   4.513  18.336  0.00  0.00    +0.000 A 
ATOM     12  C   UNL     1       1.863   5.154  19.523  0.00  0.00    +0.000 A 
ATOM     13  C   UNL     1       2.137   6.532  19.631  0.00  0.00    +0.000 A 
ATOM     14  O   UNL     1       1.390   7.438  20.399  0.00  0.00    +0.000 OA
ATOM     15  C   UNL     1       1.374   8.801  20.014  0.00  0.00    +0.000 A 
ATOM     16  C   UNL     1       1.176  12.771  18.319  0.00  0.00    +0.000 C 
ATOM     17  C   UNL     1       0.694  13.759  19.052  0.00  0.00    +0.000 C 
ATOM     18  C   UNL     1       0.273  13.577  20.486  0.00  0.00    +0.000 C 
ATOM     19  C   UNL     1       1.264  14.346  21.370  0.00  0.00    +0.000 C 
ATOM     20  C   UNL     1      -1.136  14.152  20.631  0.00  0.00    +0.000 C 
ATOM     21  O   UNL     1       0.214  12.212  20.955  0.00  0.00    +0.000 OA
ENDROOT
BRANCH   1  22
ATOM     22  C   UNL     1       0.248   9.701  22.277  0.00  0.00    +0.000 C 
ATOM     23  C   UNL     1       1.457   9.357  23.196  0.00  0.00    +0.000 C 
ATOM     24  C   UNL     1      -0.777   8.568  22.516  0.00  0.00    +0.000 C 
BRANCH  22  26
ATOM     25  C   UNL     1      -1.739  11.076  23.234  0.00  0.00    +0.000 C 
ATOM     26  C   UNL     1      -0.492  10.975  22.738  0.00  0.00    +0.000 C 
ENDBRANCH  22  26
ENDBRANCH   1  22
BRANCH   4  27
ATOM     27  O   UNL     1       2.566  10.774  17.092  0.00  0.00    +0.000 OA
ATOM     28  H   UNL     1       2.780  11.722  17.155  0.00  0.00    +0.000 HD
ENDBRANCH   4  27
BRANCH  11  29
ATOM     29  O   UNL     1       1.700   3.360  17.881  0.00  0.00    +0.000 OA
ATOM     30  H   UNL     1       1.828   2.661  18.549  0.00  0.00    +0.000 HD
ENDBRANCH  11  29
BRANCH  12  31
ATOM     31  O   UNL     1       1.078   4.510  20.438  0.00  0.00    +0.000 OA
ATOM     32  C   UNL     1       1.808   3.661  21.345  0.00  0.00    +0.000 C 
ENDBRANCH  12  31
TORSDOF 5
ENDMDL
MODEL 5
REMARK VINA RESULT:      -6.7     11.336     12.869
REMARK  Name = 
REMARK  10 active torsions:
REMARK  status: ('A' for Active; 'I' for Inactive)
REMARK    1  A    between atoms: C_2  and  C_3
REMARK    2  A    between atoms: C_3  and  C_4
REMARK    3  A    between atoms: C_3  and  C_5
REMARK    4  A    between atoms: C_3  and  C_6
REMARK    5  A    between atoms: C_9  and  O_10
REMARK    6  A    between atoms: C_17  and  O_18
REMARK    7  A    between atoms: C_19  and  O_20
REMARK    8  A    between atoms: O_20  and  C_21
REMARK    9  A    between atoms: C_27  and  C_28
REMARK   10  A    between atoms: C_27  and  C_29
REMARK                            x       y       z     vdW  Elec       q    Type
REMARK                         _______ _______ _______ _____ _____    ______ ____
ROOT
ATOM      1  C   UNL     1       8.749  15.055  22.602  0.00  0.00    +0.000 A 
ATOM      2  C   UNL     1       8.398  14.398  23.854  0.00  0.00    +0.000 A 
ATOM      3  C   UNL     1       8.415  13.003  24.019  0.00  0.00    +0.000 A 
ATOM      4  C   UNL     1       8.696  12.210  22.920  0.00  0.00    +0.000 A 
ATOM      5  C   UNL     1       9.054  12.791  21.711  0.00  0.00    +0.000 A 
ATOM      6  C   UNL     1       9.306  11.900  20.601  0.00  0.00    +0.000 A 
ATOM      7  O   UNL     1       9.687  10.733  20.728  0.00  0.00    +0.000 OA
ATOM      8  C   UNL     1       9.150  12.495  19.270  0.00  0.00    +0.000 A 
ATOM      9  C   UNL     1       9.214  11.575  18.237  0.00  0.00    +0.000 A 
ATOM     10  C   UNL     1      10.465  11.521  17.672  0.00  0.00    +0.000 A 
ATOM     11  C   UNL     1      11.140  12.725  17.526  0.00  0.00    +0.000 A 
ATOM     12  C   UNL     1      10.665  13.910  18.140  0.00  0.00    +0.000 A 
ATOM     13  C   UNL     1       9.761  13.747  19.209  0.00  0.00    +0.000 A 
ATOM     14  O   UNL     1       9.586  14.666  20.254  0.00  0.00    +0.000 OA
ATOM     15  C   UNL     1       9.124  14.190  21.505  0.00  0.00    +0.000 A 
ATOM     16  C   UNL     1       8.139  12.353  25.291  0.00  0.00    +0.000 C 
ATOM     17  C   UNL     1       7.735  13.117  26.290  0.00  0.00    +0.000 C 
ATOM     18  C   UNL     1       7.534  14.602  26.148  0.00  0.00    +0.000 C 
ATOM     19  C   UNL     1       6.030  14.887  26.253  0.00  0.00    +0.000 C 
ATOM     20  C   UNL     1       8.293  15.284  27.287  0.00  0.00    +0.000 C 
ATOM     21  O   UNL     1       8.020  15.187  24.919  0.00  0.00    +0.000 OA
ENDROOT
BRANCH   1  22
ATOM     22  C   UNL     1       8.606  16.612  22.536  0.00  0.00    +0.000 C 
ATOM     23  C   UNL     1       7.100  16.948  22.334  0.00  0.00    +0.000 C 
ATOM     24  C   UNL     1       9.337  17.314  21.367  0.00  0.00    +0.000 C 
BRANCH  22  26
ATOM     25  C   UNL     1       8.930  18.513  24.278  0.00  0.00    +0.000 C 
ATOM     26  C   UNL     1       9.190  17.284  23.797  0.00  0.00    +0.000 C 
ENDBRANCH  22  26
ENDBRANCH   1  22
BRANCH   4  27
ATOM     27  O   UNL     1       8.524  10.856  23.047  0.00  0.00    +0.000 OA
ATOM     28  H   UNL     1       7.890  10.590  22.359  0.00  0.00    +0.000 HD
ENDBRANCH   4  27
BRANCH  11  29
ATOM     29  O   UNL     1      12.333  12.692  16.845  0.00  0.00    +0.000 OA
ATOM     30  H   UNL     1      13.056  12.583  17.491  0.00  0.00    +0.000 HD
ENDBRANCH  11  29
BRANCH  12  31
ATOM     31  O   UNL     1      11.183  15.135  17.825  0.00  0.00    +0.000 OA
ATOM     32  C   UNL     1      10.302  15.962  17.041  0.00  0.00    +0.000 C 
ENDBRANCH  12  31
TORSDOF 5
ENDMDL
MODEL 6
REMARK VINA RESULT:      -6.6      1.101      1.632
REMARK  Name = 
REMARK  10 active torsions:
REMARK  status: ('A' for Active; 'I' for Inactive)
REMARK    1  A    between atoms: C_2  and  C_3
REMARK    2  A    between atoms: C_3  and  C_4
REMARK    3  A    between atoms: C_3  and  C_5
REMARK    4  A    between atoms: C_3  and  C_6
REMARK    5  A    between atoms: C_9  and  O_10
REMARK    6  A    between atoms: C_17  and  O_18
REMARK    7  A    between atoms: C_19  and  O_20
REMARK    8  A    between atoms: O_20  and  C_21
REMARK    9  A    between atoms: C_27  and  C_28
REMARK   10  A    between atoms: C_27  and  C_29
REMARK                            x       y       z     vdW  Elec       q    Type
REMARK                         _______ _______ _______ _____ _____    ______ ____
ROOT
ATOM      1  C   UNL     1      -3.332  12.934  21.777  0.00  0.00    +0.000 A 
ATOM      2  C   UNL     1      -4.550  13.248  21.040  0.00  0.00    +0.000 A 
ATOM      3  C   UNL     1      -4.778  12.822  19.720  0.00  0.00    +0.000 A 
ATOM      4  C   UNL     1      -3.768  12.146  19.058  0.00  0.00    +0.000 A 
ATOM      5  C   UNL     1      -2.598  11.809  19.726  0.00  0.00    +0.000 A 
ATOM      6  C   UNL     1      -1.577  11.128  18.961  0.00  0.00    +0.000 A 
ATOM      7  O   UNL     1      -1.810  10.426  17.974  0.00  0.00    +0.000 OA
ATOM      8  C   UNL     1      -0.212  11.259  19.481  0.00  0.00    +0.000 A 
ATOM      9  C   UNL     1       0.759  10.756  18.630  0.00  0.00    +0.000 A 
ATOM     10  C   UNL     1       1.134   9.481  18.974  0.00  0.00    +0.000 A 
ATOM     11  C   UNL     1       1.236   9.200  20.329  0.00  0.00    +0.000 A 
ATOM     12  C   UNL     1       0.751  10.107  21.303  0.00  0.00    +0.000 A 
ATOM     13  C   UNL     1      -0.183  11.066  20.862  0.00  0.00    +0.000 A 
ATOM     14  O   UNL     1      -1.149  11.674  21.676  0.00  0.00    +0.000 OA
ATOM     15  C   UNL     1      -2.341  12.148  21.076  0.00  0.00    +0.000 A 
ATOM     16  C   UNL     1      -6.025  13.071  19.013  0.00  0.00    +0.000 C 
ATOM     17  C   UNL     1      -6.920  13.838  19.609  0.00  0.00    +0.000 C 
ATOM     18  C   UNL     1      -6.684  14.468  20.956  0.00  0.00    +0.000 C 
ATOM     19  C   UNL     1      -6.559  15.983  20.753  0.00  0.00    +0.000 C 
ATOM     20  C   UNL     1      -7.888  14.140  21.839  0.00  0.00    +0.000 C 
ATOM     21  O   UNL     1      -5.513  14.009  21.667  0.00  0.00    +0.000 OA
ENDROOT
BRANCH   1  22
ATOM     22  C   UNL     1      -3.176  13.543  23.210  0.00  0.00    +0.000 C 
ATOM     23  C   UNL     1      -3.834  12.560  24.223  0.00  0.00    +0.000 C 
ATOM     24  C   UNL     1      -3.876  14.901  23.453  0.00  0.00    +0.000 C 
BRANCH  22  26
ATOM     25  C   UNL     1      -1.112  15.007  23.801  0.00  0.00    +0.000 C 
ATOM     26  C   UNL     1      -1.695  13.822  23.544  0.00  0.00    +0.000 C 
ENDBRANCH  22  26
ENDBRANCH   1  22
BRANCH   4  27
ATOM     27  O   UNL     1      -3.930  11.905  17.719  0.00  0.00    +0.000 OA
ATOM     28  H   UNL     1      -3.895  12.771  17.274  0.00  0.00    +0.000 HD
ENDBRANCH   4  27
BRANCH  11  29
ATOM     29  O   UNL     1       1.736   7.967  20.675  0.00  0.00    +0.000 OA
ATOM     30  H   UNL     1       1.731   7.398  19.883  0.00  0.00    +0.000 HD
ENDBRANCH  11  29
BRANCH  12  31
ATOM     31  O   UNL     1       1.043   9.954  22.630  0.00  0.00    +0.000 OA
ATOM     32  C   UNL     1      -0.027   9.379  23.404  0.00  0.00    +0.000 C 
ENDBRANCH  12  31
TORSDOF 5
ENDMDL
MODEL 7
REMARK VINA RESULT:      -6.6      1.170      1.435
REMARK  Name = 
REMARK  10 active torsions:
REMARK  status: ('A' for Active; 'I' for Inactive)
REMARK    1  A    between atoms: C_2  and  C_3
REMARK    2  A    between atoms: C_3  and  C_4
REMARK    3  A    between atoms: C_3  and  C_5
REMARK    4  A    between atoms: C_3  and  C_6
REMARK    5  A    between atoms: C_9  and  O_10
REMARK    6  A    between atoms: C_17  and  O_18
REMARK    7  A    between atoms: C_19  and  O_20
REMARK    8  A    between atoms: O_20  and  C_21
REMARK    9  A    between atoms: C_27  and  C_28
REMARK   10  A    between atoms: C_27  and  C_29
REMARK                            x       y       z     vdW  Elec       q    Type
REMARK                         _______ _______ _______ _____ _____    ______ ____
ROOT
ATOM      1  C   UNL     1      -3.390  13.359  21.791  0.00  0.00    +0.000 A 
ATOM      2  C   UNL     1      -4.656  13.670  21.140  0.00  0.00    +0.000 A 
ATOM      3  C   UNL     1      -5.014  13.164  19.878  0.00  0.00    +0.000 A 
ATOM      4  C   UNL     1      -4.089  12.404  19.183  0.00  0.00    +0.000 A 
ATOM      5  C   UNL     1      -2.878  12.067  19.771  0.00  0.00    +0.000 A 
ATOM      6  C   UNL     1      -1.952  11.295  18.973  0.00  0.00    +0.000 A 
ATOM      7  O   UNL     1      -2.294  10.537  18.062  0.00  0.00    +0.000 OA
ATOM      8  C   UNL     1      -0.542  11.407  19.364  0.00  0.00    +0.000 A 
ATOM      9  C   UNL     1       0.332  10.808  18.471  0.00  0.00    +0.000 A 
ATOM     10  C   UNL     1       0.694   9.546  18.873  0.00  0.00    +0.000 A 
ATOM     11  C   UNL     1       0.905   9.355  20.232  0.00  0.00    +0.000 A 
ATOM     12  C   UNL     1       0.538  10.345  21.175  0.00  0.00    +0.000 A 
ATOM     13  C   UNL     1      -0.398  11.308  20.747  0.00  0.00    +0.000 A 
ATOM     14  O   UNL     1      -1.269  12.009  21.596  0.00  0.00    +0.000 OA
ATOM     15  C   UNL     1      -2.492  12.488  21.066  0.00  0.00    +0.000 A 
ATOM     16  C   UNL     1      -6.309  13.413  19.264  0.00  0.00    +0.000 C 
ATOM     17  C   UNL     1      -7.122  14.254  19.877  0.00  0.00    +0.000 C 
ATOM     18  C   UNL     1      -6.747  14.965  21.150  0.00  0.00    +0.000 C 
ATOM     19  C   UNL     1      -6.589  16.457  20.829  0.00  0.00    +0.000 C 
ATOM     20  C   UNL     1      -7.880  14.747  22.154  0.00  0.00    +0.000 C 
ATOM     21  O   UNL     1      -5.534  14.510  21.790  0.00  0.00    +0.000 OA
ENDROOT
BRANCH   1  22
ATOM     22  C   UNL     1      -3.089  14.058  23.158  0.00  0.00    +0.000 C 
ATOM     23  C   UNL     1      -3.164  15.598  22.937  0.00  0.00    +0.000 C 
ATOM     24  C   UNL     1      -1.686  13.805  23.758  0.00  0.00    +0.000 C 
BRANCH  22  26
ATOM     25  C   UNL     1      -4.371  12.313  24.595  0.00  0.00    +0.000 C 
ATOM     26  C   UNL     1      -4.057  13.578  24.260  0.00  0.00    +0.000 C 
ENDBRANCH  22  26
ENDBRANCH   1  22
BRANCH   4  27
ATOM     27  O   UNL     1      -4.377  12.078  17.883  0.00  0.00    +0.000 OA
ATOM     28  H   UNL     1      -3.569  12.250  17.368  0.00  0.00    +0.000 HD
ENDBRANCH   4  27
BRANCH  11  29
ATOM     29  O   UNL     1       1.391   8.130  20.621  0.00  0.00    +0.000 OA
ATOM     30  H   UNL     1       1.746   8.211  21.526  0.00  0.00    +0.000 HD
ENDBRANCH  11  29
BRANCH  12  31
ATOM     31  O   UNL     1       0.940  10.273  22.480  0.00  0.00    +0.000 OA
ATOM     32  C   UNL     1       0.035   9.546  23.334  0.00  0.00    +0.000 C 
ENDBRANCH  12  31
TORSDOF 5
ENDMDL
MODEL 8
REMARK VINA RESULT:      -6.4      2.641      3.290
REMARK  Name = 
REMARK  10 active torsions:
REMARK  status: ('A' for Active; 'I' for Inactive)
REMARK    1  A    between atoms: C_2  and  C_3
REMARK    2  A    between atoms: C_3  and  C_4
REMARK    3  A    between atoms: C_3  and  C_5
REMARK    4  A    between atoms: C_3  and  C_6
REMARK    5  A    between atoms: C_9  and  O_10
REMARK    6  A    between atoms: C_17  and  O_18
REMARK    7  A    between atoms: C_19  and  O_20
REMARK    8  A    between atoms: O_20  and  C_21
REMARK    9  A    between atoms: C_27  and  C_28
REMARK   10  A    between atoms: C_27  and  C_29
REMARK                            x       y       z     vdW  Elec       q    Type
REMARK                         _______ _______ _______ _____ _____    ______ ____
ROOT
ATOM      1  C   UNL     1      -3.244  13.288  20.541  0.00  0.00    +0.000 A 
ATOM      2  C   UNL     1      -4.005  12.391  19.681  0.00  0.00    +0.000 A 
ATOM      3  C   UNL     1      -3.421  11.646  18.642  0.00  0.00    +0.000 A 
ATOM      4  C   UNL     1      -2.078  11.835  18.367  0.00  0.00    +0.000 A 
ATOM      5  C   UNL     1      -1.309  12.665  19.170  0.00  0.00    +0.000 A 
ATOM      6  C   UNL     1       0.080  12.834  18.804  0.00  0.00    +0.000 A 
ATOM      7  O   UNL     1       0.734  11.995  18.181  0.00  0.00    +0.000 OA
ATOM      8  C   UNL     1       0.712  14.065  19.291  0.00  0.00    +0.000 A 
ATOM      9  C   UNL     1       1.976  14.286  18.771  0.00  0.00    +0.000 A 
ATOM     10  C   UNL     1       2.965  13.866  19.625  0.00  0.00    +0.000 A 
ATOM     11  C   UNL     1       2.762  14.089  20.980  0.00  0.00    +0.000 A 
ATOM     12  C   UNL     1       1.502  14.511  21.471  0.00  0.00    +0.000 A 
ATOM     13  C   UNL     1       0.393  14.294  20.630  0.00  0.00    +0.000 A 
ATOM     14  O   UNL     1      -0.928  14.132  21.075  0.00  0.00    +0.000 OA
ATOM     15  C   UNL     1      -1.826  13.385  20.274  0.00  0.00    +0.000 A 
ATOM     16  C   UNL     1      -4.167  10.694  17.834  0.00  0.00    +0.000 C 
ATOM     17  C   UNL     1      -5.475  10.632  18.018  0.00  0.00    +0.000 C 
ATOM     18  C   UNL     1      -6.200  11.515  18.999  0.00  0.00    +0.000 C 
ATOM     19  C   UNL     1      -7.070  12.493  18.199  0.00  0.00    +0.000 C 
ATOM     20  C   UNL     1      -7.069  10.615  19.877  0.00  0.00    +0.000 C 
ATOM     21  O   UNL     1      -5.363  12.282  19.892  0.00  0.00    +0.000 OA
ENDROOT
BRANCH   1  22
ATOM     22  C   UNL     1      -4.038  14.117  21.605  0.00  0.00    +0.000 C 
ATOM     23  C   UNL     1      -5.260  14.769  20.892  0.00  0.00    +0.000 C 
ATOM     24  C   UNL     1      -3.276  15.294  22.257  0.00  0.00    +0.000 C 
BRANCH  22  26
ATOM     25  C   UNL     1      -3.669  12.570  23.660  0.00  0.00    +0.000 C 
ATOM     26  C   UNL     1      -4.461  13.238  22.802  0.00  0.00    +0.000 C 
ENDBRANCH  22  26
ENDBRANCH   1  22
BRANCH   4  27
ATOM     27  O   UNL     1      -1.568  11.249  17.237  0.00  0.00    +0.000 OA
ATOM     28  H   UNL     1      -0.628  11.070  17.416  0.00  0.00    +0.000 HD
ENDBRANCH   4  27
BRANCH  11  29
ATOM     29  O   UNL     1       3.803  13.789  21.825  0.00  0.00    +0.000 OA
ATOM     30  H   UNL     1       4.565  13.501  21.288  0.00  0.00    +0.000 HD
ENDBRANCH  11  29
BRANCH  12  31
ATOM     31  O   UNL     1       1.346  14.950  22.756  0.00  0.00    +0.000 OA
ATOM     32  C   UNL     1       1.208  16.379  22.877  0.00  0.00    +0.000 C 
ENDBRANCH  12  31
TORSDOF 5
ENDMDL
MODEL 9
REMARK VINA RESULT:      -6.3      2.190      4.613
REMARK  Name = 
REMARK  10 active torsions:
REMARK  status: ('A' for Active; 'I' for Inactive)
REMARK    1  A    between atoms: C_2  and  C_3
REMARK    2  A    between atoms: C_3  and  C_4
REMARK    3  A    between atoms: C_3  and  C_5
REMARK    4  A    between atoms: C_3  and  C_6
REMARK    5  A    between atoms: C_9  and  O_10
REMARK    6  A    between atoms: C_17  and  O_18
REMARK    7  A    between atoms: C_19  and  O_20
REMARK    8  A    between atoms: O_20  and  C_21
REMARK    9  A    between atoms: C_27  and  C_28
REMARK   10  A    between atoms: C_27  and  C_29
REMARK                            x       y       z     vdW  Elec       q    Type
REMARK                         _______ _______ _______ _____ _____    ______ ____
ROOT
ATOM      1  C   UNL     1      -4.914  13.264  20.877  0.00  0.00    +0.000 A 
ATOM      2  C   UNL     1      -5.268  14.127  21.997  0.00  0.00    +0.000 A 
ATOM      3  C   UNL     1      -4.337  14.559  22.957  0.00  0.00    +0.000 A 
ATOM      4  C   UNL     1      -3.041  14.077  22.885  0.00  0.00    +0.000 A 
ATOM      5  C   UNL     1      -2.653  13.268  21.826  0.00  0.00    +0.000 A 
ATOM      6  C   UNL     1      -1.292  12.781  21.834  0.00  0.00    +0.000 A 
ATOM      7  O   UNL     1      -0.356  13.363  22.388  0.00  0.00    +0.000 OA
ATOM      8  C   UNL     1      -1.059  11.556  21.062  0.00  0.00    +0.000 A 
ATOM      9  C   UNL     1       0.204  11.016  21.241  0.00  0.00    +0.000 A 
ATOM     10  C   UNL     1       1.068  11.383  20.239  0.00  0.00    +0.000 A 
ATOM     11  C   UNL     1       0.551  11.438  18.952  0.00  0.00    +0.000 A 
ATOM     12  C   UNL     1      -0.843  11.351  18.719  0.00  0.00    +0.000 A 
ATOM     13  C   UNL     1      -1.684  11.625  19.817  0.00  0.00    +0.000 A 
ATOM     14  O   UNL     1      -2.998  12.105  19.716  0.00  0.00    +0.000 OA
ATOM     15  C   UNL     1      -3.529  12.858  20.792  0.00  0.00    +0.000 A 
ATOM     16  C   UNL     1      -4.676  15.480  24.029  0.00  0.00    +0.000 C 
ATOM     17  C   UNL     1      -5.946  15.817  24.165  0.00  0.00    +0.000 C 
ATOM     18  C   UNL     1      -7.031  15.268  23.277  0.00  0.00    +0.000 C 
ATOM     19  C   UNL     1      -7.916  14.348  24.128  0.00  0.00    +0.000 C 
ATOM     20  C   UNL     1      -7.840  16.452  22.746  0.00  0.00    +0.000 C 
ATOM     21  O   UNL     1      -6.582  14.523  22.124  0.00  0.00    +0.000 OA
ENDROOT
BRANCH   1  22
ATOM     22  C   UNL     1      -6.070  12.794  19.932  0.00  0.00    +0.000 C 
ATOM     23  C   UNL     1      -6.408  13.967  18.966  0.00  0.00    +0.000 C 
ATOM     24  C   UNL     1      -7.409  12.437  20.619  0.00  0.00    +0.000 C 
BRANCH  22  26
ATOM     25  C   UNL     1      -6.506  10.593  18.620  0.00  0.00    +0.000 C 
ATOM     26  C   UNL     1      -5.686  11.505  19.174  0.00  0.00    +0.000 C 
ENDBRANCH  22  26
ENDBRANCH   1  22
BRANCH   4  27
ATOM     27  O   UNL     1      -2.197  14.354  23.929  0.00  0.00    +0.000 OA
ATOM     28  H   UNL     1      -2.730  14.810  24.604  0.00  0.00    +0.000 HD
ENDBRANCH   4  27
BRANCH  11  29
ATOM     29  O   UNL     1       1.441  11.678  17.933  0.00  0.00    +0.000 OA
ATOM     30  H   UNL     1       1.073  11.311  17.107  0.00  0.00    +0.000 HD
ENDBRANCH  11  29
BRANCH  12  31
ATOM     31  O   UNL     1      -1.348  11.177  17.461  0.00  0.00    +0.000 OA
ATOM     32  C   UNL     1      -2.027   9.920  17.269  0.00  0.00    +0.000 C 
ENDBRANCH  12  31
TORSDOF 5
ENDMDL
