MODEL 1
REMARK VINA RESULT:      -8.7      0.000      0.000
REMARK  Name = 
REMARK  10 active torsions:
REMARK  status: ('A' for Active; 'I' for Inactive)
REMARK    1  A    between atoms: C_1  and  O_2
REMARK    2  A    between atoms: O_2  and  C_3
REMARK    3  A    between atoms: C_6  and  C_7
REMARK    4  A    between atoms: C_7  and  C_8
REMARK    5  A    between atoms: C_10  and  C_11
REMARK    6  A    between atoms: C_16  and  C_17
REMARK    7  A    between atoms: C_19  and  C_20
REMARK    8  A    between atoms: C_31  and  C_32
REMARK    9  A    between atoms: C_35  and  O_36
REMARK   10  A    between atoms: O_36  and  C_37
REMARK                            x       y       z     vdW  Elec       q    Type
REMARK                         _______ _______ _______ _____ _____    ______ ____
ROOT
ATOM      1  C   UNL     1       0.431  14.481  20.018  0.00  0.00    +0.000 A 
ATOM      2  N   UNL     1       1.373  15.267  20.517  0.00  0.00    +0.000 NA
ATOM      3  C   UNL     1       2.522  14.558  20.324  0.00  0.00    +0.000 A 
ATOM      4  C   UNL     1       3.846  15.032  20.771  0.00  0.00    +0.000 C 
ATOM      5  N   UNL     1       2.363  13.377  19.730  0.00  0.00    +0.000 NA
ATOM      6  N   UNL     1       1.023  13.340  19.494  0.00  0.00    +0.000 N 
ATOM      7  C   UNL     1       0.428  12.229  18.833  0.00  0.00    +0.000 A 
ATOM      8  C   UNL     1       1.202  11.102  18.588  0.00  0.00    +0.000 A 
ATOM      9  C   UNL     1       0.565  10.014  18.018  0.00  0.00    +0.000 A 
ATOM     10  N   UNL     1      -0.739  10.086  17.658  0.00  0.00    +0.000 NA
ATOM     11  C   UNL     1      -1.395  11.228  17.895  0.00  0.00    +0.000 A 
ATOM     12  C   UNL     1      -2.832  11.325  17.477  0.00  0.00    +0.000 C 
ATOM     13  N   UNL     1      -0.870  12.304  18.495  0.00  0.00    +0.000 NA
ENDROOT
BRANCH   9  14
ATOM     14  C   UNL     1       1.287   8.697  17.876  0.00  0.00    +0.000 C 
ATOM     15  C   UNL     1       2.787   8.656  17.732  0.00  0.00    +0.000 C 
ATOM     16  C   UNL     1       2.150   8.152  19.003  0.00  0.00    +0.000 C 
BRANCH  16  17
ATOM     17  C   UNL     1       2.087   6.673  19.305  0.00  0.00    +0.000 A 
ATOM     18  C   UNL     1       1.762   6.201  20.574  0.00  0.00    +0.000 A 
ATOM     19  C   UNL     1       1.712   4.825  20.809  0.00  0.00    +0.000 A 
ATOM     20  C   UNL     1       1.979   3.923  19.796  0.00  0.00    +0.000 A 
ATOM     21  N   UNL     1       1.924   2.595  20.040  0.00  0.00    +0.000 NA
ATOM     22  C   UNL     1       2.191   1.762  19.011  0.00  0.00    +0.000 A 
ATOM     23  C   UNL     1       2.512   2.202  17.742  0.00  0.00    +0.000 A 
ATOM     24  C   UNL     1       2.562   3.577  17.520  0.00  0.00    +0.000 A 
ATOM     25  C   UNL     1       2.294   4.477  18.540  0.00  0.00    +0.000 A 
ATOM     26  N   UNL     1       2.349   5.804  18.296  0.00  0.00    +0.000 NA
ENDBRANCH  16  17
ENDBRANCH   9  14
BRANCH   1  27
ATOM     27  C   UNL     1      -1.046  14.736  20.125  0.00  0.00    +0.000 C 
BRANCH  27  31
ATOM     28  C   UNL     1      -3.026  12.612  23.353  0.00  0.00    +0.000 A 
ATOM     29  C   UNL     1      -3.601  13.772  22.805  0.00  0.00    +0.000 A 
ATOM     30  C   UNL     1      -2.977  14.468  21.768  0.00  0.00    +0.000 A 
ATOM     31  C   UNL     1      -1.748  14.041  21.278  0.00  0.00    +0.000 A 
ATOM     32  C   UNL     1      -1.108  12.976  21.934  0.00  0.00    +0.000 A 
ATOM     33  C   UNL     1      -1.732  12.244  22.957  0.00  0.00    +0.000 A 
BRANCH  28  35
ATOM     34  C   UNL     1      -5.054  12.287  24.515  0.00  0.00    +0.000 C 
ATOM     35  O   UNL     1      -3.710  11.854  24.267  0.00  0.00    +0.000 OA
ENDBRANCH  28  35
BRANCH  33  36
ATOM     36  O   UNL     1      -0.935  11.230  23.411  0.00  0.00    +0.000 OA
ATOM     37  C   UNL     1      -0.427  10.273  22.502  0.00  0.00    +0.000 C 
ENDBRANCH  33  36
ENDBRANCH  27  31
ENDBRANCH   1  27
TORSDOF 6
ENDMDL
MODEL 2
REMARK VINA RESULT:      -8.4      3.787      7.415
REMARK  Name = 
REMARK  10 active torsions:
REMARK  status: ('A' for Active; 'I' for Inactive)
REMARK    1  A    between atoms: C_1  and  O_2
REMARK    2  A    between atoms: O_2  and  C_3
REMARK    3  A    between atoms: C_6  and  C_7
REMARK    4  A    between atoms: C_7  and  C_8
REMARK    5  A    between atoms: C_10  and  C_11
REMARK    6  A    between atoms: C_16  and  C_17
REMARK    7  A    between atoms: C_19  and  C_20
REMARK    8  A    between atoms: C_31  and  C_32
REMARK    9  A    between atoms: C_35  and  O_36
REMARK   10  A    between atoms: O_36  and  C_37
REMARK                            x       y       z     vdW  Elec       q    Type
REMARK                         _______ _______ _______ _____ _____    ______ ____
ROOT
ATOM      1  C   UNL     1       0.082  11.344  18.625  0.00  0.00    +0.000 A 
ATOM      2  N   UNL     1       0.161  10.041  18.401  0.00  0.00    +0.000 NA
ATOM      3  C   UNL     1       1.489   9.831  18.177  0.00  0.00    +0.000 A 
ATOM      4  C   UNL     1       2.049   8.508  17.836  0.00  0.00    +0.000 C 
ATOM      5  N   UNL     1       2.253  10.919  18.249  0.00  0.00    +0.000 NA
ATOM      6  N   UNL     1       1.358  11.890  18.578  0.00  0.00    +0.000 N 
ATOM      7  C   UNL     1       1.779  13.234  18.782  0.00  0.00    +0.000 A 
ATOM      8  C   UNL     1       3.087  13.581  18.470  0.00  0.00    +0.000 A 
ATOM      9  C   UNL     1       3.434  14.913  18.606  0.00  0.00    +0.000 A 
ATOM     10  N   UNL     1       2.545  15.814  19.087  0.00  0.00    +0.000 NA
ATOM     11  C   UNL     1       1.318  15.381  19.402  0.00  0.00    +0.000 A 
ATOM     12  C   UNL     1       0.334  16.366  19.960  0.00  0.00    +0.000 C 
ATOM     13  N   UNL     1       0.885  14.123  19.245  0.00  0.00    +0.000 NA
ENDROOT
BRANCH   9  14
ATOM     14  C   UNL     1       4.778  15.403  18.127  0.00  0.00    +0.000 C 
ATOM     15  C   UNL     1       5.270  16.779  18.498  0.00  0.00    +0.000 C 
ATOM     16  C   UNL     1       5.942  15.566  19.093  0.00  0.00    +0.000 C 
BRANCH  16  17
ATOM     17  C   UNL     1       7.318  15.141  18.637  0.00  0.00    +0.000 A 
ATOM     18  C   UNL     1       8.279  16.074  18.253  0.00  0.00    +0.000 A 
ATOM     19  C   UNL     1       9.540  15.638  17.841  0.00  0.00    +0.000 A 
ATOM     20  C   UNL     1       9.849  14.291  17.810  0.00  0.00    +0.000 A 
ATOM     21  N   UNL     1      11.075  13.886  17.410  0.00  0.00    +0.000 NA
ATOM     22  C   UNL     1      11.320  12.558  17.405  0.00  0.00    +0.000 A 
ATOM     23  C   UNL     1      10.388  11.613  17.783  0.00  0.00    +0.000 A 
ATOM     24  C   UNL     1       9.133  12.059  18.191  0.00  0.00    +0.000 A 
ATOM     25  C   UNL     1       8.828  13.411  18.218  0.00  0.00    +0.000 A 
ATOM     26  N   UNL     1       7.602  13.815  18.617  0.00  0.00    +0.000 NA
ENDBRANCH  16  17
ENDBRANCH   9  14
BRANCH   1  27
ATOM     27  C   UNL     1      -1.200  12.114  18.775  0.00  0.00    +0.000 C 
BRANCH  27  31
ATOM     28  C   UNL     1      -2.423  12.862  22.874  0.00  0.00    +0.000 A 
ATOM     29  C   UNL     1      -2.760  13.767  21.852  0.00  0.00    +0.000 A 
ATOM     30  C   UNL     1      -2.373  13.543  20.529  0.00  0.00    +0.000 A 
ATOM     31  C   UNL     1      -1.612  12.428  20.202  0.00  0.00    +0.000 A 
ATOM     32  C   UNL     1      -1.148  11.612  21.248  0.00  0.00    +0.000 A 
ATOM     33  C   UNL     1      -1.551  11.803  22.580  0.00  0.00    +0.000 A 
BRANCH  28  35
ATOM     34  C   UNL     1      -4.243  12.474  24.324  0.00  0.00    +0.000 C 
ATOM     35  O   UNL     1      -2.926  13.011  24.139  0.00  0.00    +0.000 OA
ENDBRANCH  28  35
BRANCH  33  36
ATOM     36  O   UNL     1      -1.008  10.863  23.412  0.00  0.00    +0.000 OA
ATOM     37  C   UNL     1      -0.162   9.860  22.883  0.00  0.00    +0.000 C 
ENDBRANCH  33  36
ENDBRANCH  27  31
ENDBRANCH   1  27
TORSDOF 6
ENDMDL
MODEL 3
REMARK VINA RESULT:      -8.3      3.902      7.583
REMARK  Name = 
REMARK  10 active torsions:
REMARK  status: ('A' for Active; 'I' for Inactive)
REMARK    1  A    between atoms: C_1  and  O_2
REMARK    2  A    between atoms: O_2  and  C_3
REMARK    3  A    between atoms: C_6  and  C_7
REMARK    4  A    between atoms: C_7  and  C_8
REMARK    5  A    between atoms: C_10  and  C_11
REMARK    6  A    between atoms: C_16  and  C_17
REMARK    7  A    between atoms: C_19  and  C_20
REMARK    8  A    between atoms: C_31  and  C_32
REMARK    9  A    between atoms: C_35  and  O_36
REMARK   10  A    between atoms: O_36  and  C_37
REMARK                            x       y       z     vdW  Elec       q    Type
REMARK                         _______ _______ _______ _____ _____    ______ ____
ROOT
ATOM      1  C   UNL     1       0.107  11.329  18.566  0.00  0.00    +0.000 A 
ATOM      2  N   UNL     1       0.193  10.026  18.341  0.00  0.00    +0.000 NA
ATOM      3  C   UNL     1       1.524   9.821  18.130  0.00  0.00    +0.000 A 
ATOM      4  C   UNL     1       2.092   8.500  17.794  0.00  0.00    +0.000 C 
ATOM      5  N   UNL     1       2.283  10.912  18.212  0.00  0.00    +0.000 NA
ATOM      6  N   UNL     1       1.382  11.879  18.533  0.00  0.00    +0.000 N 
ATOM      7  C   UNL     1       1.797  13.224  18.743  0.00  0.00    +0.000 A 
ATOM      8  C   UNL     1       3.107  13.576  18.444  0.00  0.00    +0.000 A 
ATOM      9  C   UNL     1       3.447  14.909  18.585  0.00  0.00    +0.000 A 
ATOM     10  N   UNL     1       2.551  15.806  19.059  0.00  0.00    +0.000 NA
ATOM     11  C   UNL     1       1.322  15.369  19.361  0.00  0.00    +0.000 A 
ATOM     12  C   UNL     1       0.330  16.350  19.910  0.00  0.00    +0.000 C 
ATOM     13  N   UNL     1       0.895  14.109  19.198  0.00  0.00    +0.000 NA
ENDROOT
BRANCH   9  14
ATOM     14  C   UNL     1       4.795  15.404  18.121  0.00  0.00    +0.000 C 
ATOM     15  C   UNL     1       5.291  16.769  18.523  0.00  0.00    +0.000 C 
ATOM     16  C   UNL     1       5.957  15.540  19.093  0.00  0.00    +0.000 C 
BRANCH  16  17
ATOM     17  C   UNL     1       7.332  15.120  18.631  0.00  0.00    +0.000 A 
ATOM     18  C   UNL     1       8.275  16.053  18.205  0.00  0.00    +0.000 A 
ATOM     19  C   UNL     1       9.536  15.622  17.788  0.00  0.00    +0.000 A 
ATOM     20  C   UNL     1       9.863  14.279  17.796  0.00  0.00    +0.000 A 
ATOM     21  N   UNL     1      11.089  13.878  17.391  0.00  0.00    +0.000 NA
ATOM     22  C   UNL     1      11.353  12.554  17.423  0.00  0.00    +0.000 A 
ATOM     23  C   UNL     1      10.440  11.608  17.843  0.00  0.00    +0.000 A 
ATOM     24  C   UNL     1       9.184  12.050  18.255  0.00  0.00    +0.000 A 
ATOM     25  C   UNL     1       8.860  13.398  18.244  0.00  0.00    +0.000 A 
ATOM     26  N   UNL     1       7.635  13.798  18.648  0.00  0.00    +0.000 NA
ENDBRANCH  16  17
ENDBRANCH   9  14
BRANCH   1  27
ATOM     27  C   UNL     1      -1.178  12.095  18.704  0.00  0.00    +0.000 C 
BRANCH  27  31
ATOM     28  C   UNL     1      -2.923  12.349  22.672  0.00  0.00    +0.000 A 
ATOM     29  C   UNL     1      -1.642  11.800  22.490  0.00  0.00    +0.000 A 
ATOM     30  C   UNL     1      -1.067  11.709  21.221  0.00  0.00    +0.000 A 
ATOM     31  C   UNL     1      -1.771  12.132  20.101  0.00  0.00    +0.000 A 
ATOM     32  C   UNL     1      -3.107  12.534  20.272  0.00  0.00    +0.000 A 
ATOM     33  C   UNL     1      -3.693  12.662  21.542  0.00  0.00    +0.000 A 
BRANCH  28  35
ATOM     34  C   UNL     1      -3.290  13.919  24.394  0.00  0.00    +0.000 C 
ATOM     35  O   UNL     1      -3.422  12.569  23.929  0.00  0.00    +0.000 OA
ENDBRANCH  28  35
BRANCH  33  36
ATOM     36  O   UNL     1      -4.983  13.110  21.461  0.00  0.00    +0.000 OA
ATOM     37  C   UNL     1      -5.971  12.301  20.851  0.00  0.00    +0.000 C 
ENDBRANCH  33  36
ENDBRANCH  27  31
ENDBRANCH   1  27
TORSDOF 6
ENDMDL
MODEL 4
REMARK VINA RESULT:      -8.0      2.953      4.630
REMARK  Name = 
REMARK  10 active torsions:
REMARK  status: ('A' for Active; 'I' for Inactive)
REMARK    1  A    between atoms: C_1  and  O_2
REMARK    2  A    between atoms: O_2  and  C_3
REMARK    3  A    between atoms: C_6  and  C_7
REMARK    4  A    between atoms: C_7  and  C_8
REMARK    5  A    between atoms: C_10  and  C_11
REMARK    6  A    between atoms: C_16  and  C_17
REMARK    7  A    between atoms: C_19  and  C_20
REMARK    8  A    between atoms: C_31  and  C_32
REMARK    9  A    between atoms: C_35  and  O_36
REMARK   10  A    between atoms: O_36  and  C_37
REMARK                            x       y       z     vdW  Elec       q    Type
REMARK                         _______ _______ _______ _____ _____    ______ ____
ROOT
ATOM      1  C   UNL     1      -2.243  11.588  18.916  0.00  0.00    +0.000 A 
ATOM      2  N   UNL     1      -2.823  11.816  17.747  0.00  0.00    +0.000 NA
ATOM      3  C   UNL     1      -2.288  10.863  16.930  0.00  0.00    +0.000 A 
ATOM      4  C   UNL     1      -2.616  10.758  15.494  0.00  0.00    +0.000 C 
ATOM      5  N   UNL     1      -1.412  10.047  17.512  0.00  0.00    +0.000 NA
ATOM      6  N   UNL     1      -1.410  10.483  18.801  0.00  0.00    +0.000 N 
ATOM      7  C   UNL     1      -0.605   9.846  19.787  0.00  0.00    +0.000 A 
ATOM      8  C   UNL     1       0.313   8.885  19.383  0.00  0.00    +0.000 A 
ATOM      9  C   UNL     1       1.132   8.348  20.361  0.00  0.00    +0.000 A 
ATOM     10  N   UNL     1       0.986   8.705  21.659  0.00  0.00    +0.000 NA
ATOM     11  C   UNL     1       0.045   9.609  21.961  0.00  0.00    +0.000 A 
ATOM     12  C   UNL     1      -0.141   9.993  23.399  0.00  0.00    +0.000 C 
ATOM     13  N   UNL     1      -0.747  10.219  21.069  0.00  0.00    +0.000 NA
ENDROOT
BRANCH   9  14
ATOM     14  C   UNL     1       2.267   7.428  19.983  0.00  0.00    +0.000 C 
ATOM     15  C   UNL     1       2.134   5.937  20.154  0.00  0.00    +0.000 C 
ATOM     16  C   UNL     1       2.169   6.524  18.764  0.00  0.00    +0.000 C 
BRANCH  16  17
ATOM     17  C   UNL     1       3.389   6.367  17.888  0.00  0.00    +0.000 A 
ATOM     18  C   UNL     1       4.217   7.448  17.591  0.00  0.00    +0.000 A 
ATOM     19  C   UNL     1       5.337   7.259  16.778  0.00  0.00    +0.000 A 
ATOM     20  C   UNL     1       5.637   6.011  16.265  0.00  0.00    +0.000 A 
ATOM     21  N   UNL     1       6.726   5.845  15.482  0.00  0.00    +0.000 NA
ATOM     22  C   UNL     1       6.972   4.602  15.013  0.00  0.00    +0.000 A 
ATOM     23  C   UNL     1       6.171   3.513  15.294  0.00  0.00    +0.000 A 
ATOM     24  C   UNL     1       5.055   3.714  16.104  0.00  0.00    +0.000 A 
ATOM     25  C   UNL     1       4.757   4.968  16.614  0.00  0.00    +0.000 A 
ATOM     26  N   UNL     1       3.669   5.134  17.397  0.00  0.00    +0.000 NA
ENDBRANCH  16  17
ENDBRANCH   9  14
BRANCH   1  27
ATOM     27  C   UNL     1      -2.376  12.468  20.126  0.00  0.00    +0.000 C 
BRANCH  27  31
ATOM     28  C   UNL     1      -6.377  12.950  21.743  0.00  0.00    +0.000 A 
ATOM     29  C   UNL     1      -6.189  12.478  20.433  0.00  0.00    +0.000 A 
ATOM     30  C   UNL     1      -4.910  12.319  19.896  0.00  0.00    +0.000 A 
ATOM     31  C   UNL     1      -3.790  12.660  20.645  0.00  0.00    +0.000 A 
ATOM     32  C   UNL     1      -3.989  13.275  21.892  0.00  0.00    +0.000 A 
ATOM     33  C   UNL     1      -5.266  13.415  22.461  0.00  0.00    +0.000 A 
BRANCH  28  35
ATOM     34  C   UNL     1      -7.916  11.831  23.137  0.00  0.00    +0.000 C 
ATOM     35  O   UNL     1      -7.623  12.967  22.313  0.00  0.00    +0.000 OA
ENDBRANCH  28  35
BRANCH  33  36
ATOM     36  O   UNL     1      -5.207  14.002  23.696  0.00  0.00    +0.000 OA
ATOM     37  C   UNL     1      -5.461  15.387  23.830  0.00  0.00    +0.000 C 
ENDBRANCH  33  36
ENDBRANCH  27  31
ENDBRANCH   1  27
TORSDOF 6
ENDMDL
MODEL 5
REMARK VINA RESULT:      -7.9      4.501      8.032
REMARK  Name = 
REMARK  10 active torsions:
REMARK  status: ('A' for Active; 'I' for Inactive)
REMARK    1  A    between atoms: C_1  and  O_2
REMARK    2  A    between atoms: O_2  and  C_3
REMARK    3  A    between atoms: C_6  and  C_7
REMARK    4  A    between atoms: C_7  and  C_8
REMARK    5  A    between atoms: C_10  and  C_11
REMARK    6  A    between atoms: C_16  and  C_17
REMARK    7  A    between atoms: C_19  and  C_20
REMARK    8  A    between atoms: C_31  and  C_32
REMARK    9  A    between atoms: C_35  and  O_36
REMARK   10  A    between atoms: O_36  and  C_37
REMARK                            x       y       z     vdW  Elec       q    Type
REMARK                         _______ _______ _______ _____ _____    ______ ____
ROOT
ATOM      1  C   UNL     1      -0.835  11.720  20.825  0.00  0.00    +0.000 A 
ATOM      2  N   UNL     1      -0.833  10.591  21.518  0.00  0.00    +0.000 NA
ATOM      3  C   UNL     1       0.487  10.377  21.783  0.00  0.00    +0.000 A 
ATOM      4  C   UNL     1       0.980   9.190  22.510  0.00  0.00    +0.000 C 
ATOM      5  N   UNL     1       1.317  11.302  21.304  0.00  0.00    +0.000 NA
ATOM      6  N   UNL     1       0.467  12.191  20.721  0.00  0.00    +0.000 N 
ATOM      7  C   UNL     1       0.960  13.372  20.098  0.00  0.00    +0.000 A 
ATOM      8  C   UNL     1       2.331  13.522  19.935  0.00  0.00    +0.000 A 
ATOM      9  C   UNL     1       2.764  14.644  19.253  0.00  0.00    +0.000 A 
ATOM     10  N   UNL     1       1.882  15.580  18.829  0.00  0.00    +0.000 NA
ATOM     11  C   UNL     1       0.581  15.372  19.067  0.00  0.00    +0.000 A 
ATOM     12  C   UNL     1      -0.402  16.414  18.623  0.00  0.00    +0.000 C 
ATOM     13  N   UNL     1       0.075  14.286  19.667  0.00  0.00    +0.000 NA
ENDROOT
BRANCH   9  14
ATOM     14  C   UNL     1       4.220  14.798  18.885  0.00  0.00    +0.000 C 
ATOM     15  C   UNL     1       4.778  16.146  18.509  0.00  0.00    +0.000 C 
ATOM     16  C   UNL     1       5.191  15.510  19.813  0.00  0.00    +0.000 C 
BRANCH  16  17
ATOM     17  C   UNL     1       6.575  14.928  19.986  0.00  0.00    +0.000 A 
ATOM     18  C   UNL     1       7.153  14.786  21.245  0.00  0.00    +0.000 A 
ATOM     19  C   UNL     1       8.434  14.241  21.361  0.00  0.00    +0.000 A 
ATOM     20  C   UNL     1       9.135  13.836  20.240  0.00  0.00    +0.000 A 
ATOM     21  N   UNL     1      10.373  13.308  20.370  0.00  0.00    +0.000 NA
ATOM     22  C   UNL     1      11.008  12.928  19.241  0.00  0.00    +0.000 A 
ATOM     23  C   UNL     1      10.458  13.053  17.981  0.00  0.00    +0.000 A 
ATOM     24  C   UNL     1       9.180  13.601  17.878  0.00  0.00    +0.000 A 
ATOM     25  C   UNL     1       8.482  14.007  19.004  0.00  0.00    +0.000 A 
ATOM     26  N   UNL     1       7.245  14.534  18.875  0.00  0.00    +0.000 NA
ENDBRANCH  16  17
ENDBRANCH   9  14
BRANCH   1  27
ATOM     27  C   UNL     1      -2.041  12.315  20.154  0.00  0.00    +0.000 C 
BRANCH  27  31
ATOM     28  C   UNL     1      -3.317  10.399  16.472  0.00  0.00    +0.000 A 
ATOM     29  C   UNL     1      -1.959  10.419  16.833  0.00  0.00    +0.000 A 
ATOM     30  C   UNL     1      -1.531  11.032  18.012  0.00  0.00    +0.000 A 
ATOM     31  C   UNL     1      -2.446  11.669  18.841  0.00  0.00    +0.000 A 
ATOM     32  C   UNL     1      -3.775  11.780  18.399  0.00  0.00    +0.000 A 
ATOM     33  C   UNL     1      -4.231  11.144  17.233  0.00  0.00    +0.000 A 
BRANCH  28  35
ATOM     34  C   UNL     1      -3.185  10.080  14.138  0.00  0.00    +0.000 C 
ATOM     35  O   UNL     1      -3.748   9.674  15.393  0.00  0.00    +0.000 OA
ENDBRANCH  28  35
BRANCH  33  36
ATOM     36  O   UNL     1      -5.566  11.357  17.030  0.00  0.00    +0.000 OA
ATOM     37  C   UNL     1      -6.104  12.656  17.190  0.00  0.00    +0.000 C 
ENDBRANCH  33  36
ENDBRANCH  27  31
ENDBRANCH   1  27
TORSDOF 6
ENDMDL
MODEL 6
REMARK VINA RESULT:      -7.9      2.210      3.148
REMARK  Name = 
REMARK  10 active torsions:
REMARK  status: ('A' for Active; 'I' for Inactive)
REMARK    1  A    between atoms: C_1  and  O_2
REMARK    2  A    between atoms: O_2  and  C_3
REMARK    3  A    between atoms: C_6  and  C_7
REMARK    4  A    between atoms: C_7  and  C_8
REMARK    5  A    between atoms: C_10  and  C_11
REMARK    6  A    between atoms: C_16  and  C_17
REMARK    7  A    between atoms: C_19  and  C_20
REMARK    8  A    between atoms: C_31  and  C_32
REMARK    9  A    between atoms: C_35  and  O_36
REMARK   10  A    between atoms: O_36  and  C_37
REMARK                            x       y       z     vdW  Elec       q    Type
REMARK                         _______ _______ _______ _____ _____    ______ ____
ROOT
ATOM      1  C   UNL     1       0.987  15.045  21.051  0.00  0.00    +0.000 A 
ATOM      2  N   UNL     1       1.396  16.113  20.381  0.00  0.00    +0.000 NA
ATOM      3  C   UNL     1       1.670  15.629  19.136  0.00  0.00    +0.000 A 
ATOM      4  C   UNL     1       2.204  16.467  18.045  0.00  0.00    +0.000 C 
ATOM      5  N   UNL     1       1.454  14.324  18.978  0.00  0.00    +0.000 NA
ATOM      6  N   UNL     1       0.976  13.951  20.196  0.00  0.00    +0.000 N 
ATOM      7  C   UNL     1       0.588  12.605  20.448  0.00  0.00    +0.000 A 
ATOM      8  C   UNL     1       0.869  11.637  19.492  0.00  0.00    +0.000 A 
ATOM      9  C   UNL     1       0.549  10.329  19.810  0.00  0.00    +0.000 A 
ATOM     10  N   UNL     1      -0.070  10.032  20.976  0.00  0.00    +0.000 NA
ATOM     11  C   UNL     1      -0.339  11.036  21.820  0.00  0.00    +0.000 A 
ATOM     12  C   UNL     1      -1.047  10.720  23.104  0.00  0.00    +0.000 C 
ATOM     13  N   UNL     1      -0.011  12.318  21.615  0.00  0.00    +0.000 NA
ENDROOT
BRANCH   9  14
ATOM     14  C   UNL     1       0.974   9.199  18.903  0.00  0.00    +0.000 C 
ATOM     15  C   UNL     1       2.046   9.411  17.866  0.00  0.00    +0.000 C 
ATOM     16  C   UNL     1       2.334   8.538  19.062  0.00  0.00    +0.000 C 
BRANCH  16  17
ATOM     17  C   UNL     1       2.422   7.036  18.922  0.00  0.00    +0.000 A 
ATOM     18  C   UNL     1       3.035   6.441  17.822  0.00  0.00    +0.000 A 
ATOM     19  C   UNL     1       3.096   5.049  17.733  0.00  0.00    +0.000 A 
ATOM     20  C   UNL     1       2.559   4.251  18.726  0.00  0.00    +0.000 A 
ATOM     21  N   UNL     1       2.629   2.905  18.625  0.00  0.00    +0.000 NA
ATOM     22  C   UNL     1       2.090   2.178  19.627  0.00  0.00    +0.000 A 
ATOM     23  C   UNL     1       1.480   2.740  20.730  0.00  0.00    +0.000 A 
ATOM     24  C   UNL     1       1.422   4.131  20.807  0.00  0.00    +0.000 A 
ATOM     25  C   UNL     1       1.961   4.926  19.808  0.00  0.00    +0.000 A 
ATOM     26  N   UNL     1       1.891   6.271  19.908  0.00  0.00    +0.000 NA
ENDBRANCH  16  17
ENDBRANCH   9  14
BRANCH   1  27
ATOM     27  C   UNL     1       0.709  15.011  22.527  0.00  0.00    +0.000 C 
BRANCH  27  31
ATOM     28  C   UNL     1      -3.443  15.597  23.656  0.00  0.00    +0.000 A 
ATOM     29  C   UNL     1      -2.662  14.617  24.292  0.00  0.00    +0.000 A 
ATOM     30  C   UNL     1      -1.326  14.414  23.940  0.00  0.00    +0.000 A 
ATOM     31  C   UNL     1      -0.749  15.162  22.922  0.00  0.00    +0.000 A 
ATOM     32  C   UNL     1      -1.576  16.029  22.187  0.00  0.00    +0.000 A 
ATOM     33  C   UNL     1      -2.913  16.270  22.545  0.00  0.00    +0.000 A 
BRANCH  28  35
ATOM     34  C   UNL     1      -4.779  17.028  24.973  0.00  0.00    +0.000 C 
ATOM     35  O   UNL     1      -4.704  15.891  24.102  0.00  0.00    +0.000 OA
ENDBRANCH  28  35
BRANCH  33  36
ATOM     36  O   UNL     1      -3.502  17.181  21.713  0.00  0.00    +0.000 OA
ATOM     37  C   UNL     1      -4.526  16.768  20.828  0.00  0.00    +0.000 C 
ENDBRANCH  33  36
ENDBRANCH  27  31
ENDBRANCH   1  27
TORSDOF 6
ENDMDL
MODEL 7
REMARK VINA RESULT:      -7.8      2.227      3.201
REMARK  Name = 
REMARK  10 active torsions:
REMARK  status: ('A' for Active; 'I' for Inactive)
REMARK    1  A    between atoms: C_1  and  O_2
REMARK    2  A    between atoms: O_2  and  C_3
REMARK    3  A    between atoms: C_6  and  C_7
REMARK    4  A    between atoms: C_7  and  C_8
REMARK    5  A    between atoms: C_10  and  C_11
REMARK    6  A    between atoms: C_16  and  C_17
REMARK    7  A    between atoms: C_19  and  C_20
REMARK    8  A    between atoms: C_31  and  C_32
REMARK    9  A    between atoms: C_35  and  O_36
REMARK   10  A    between atoms: O_36  and  C_37
REMARK                            x       y       z     vdW  Elec       q    Type
REMARK                         _______ _______ _______ _____ _____    ______ ____
ROOT
ATOM      1  C   UNL     1       1.883  14.888  20.518  0.00  0.00    +0.000 A 
ATOM      2  N   UNL     1       2.415  15.867  19.800  0.00  0.00    +0.000 NA
ATOM      3  C   UNL     1       2.632  15.294  18.583  0.00  0.00    +0.000 A 
ATOM      4  C   UNL     1       3.263  16.011  17.456  0.00  0.00    +0.000 C 
ATOM      5  N   UNL     1       2.267  14.017  18.486  0.00  0.00    +0.000 NA
ATOM      6  N   UNL     1       1.746  13.762  19.717  0.00  0.00    +0.000 N 
ATOM      7  C   UNL     1       1.204  12.484  20.031  0.00  0.00    +0.000 A 
ATOM      8  C   UNL     1       1.371  11.445  19.126  0.00  0.00    +0.000 A 
ATOM      9  C   UNL     1       0.901  10.200  19.504  0.00  0.00    +0.000 A 
ATOM     10  N   UNL     1       0.249  10.035  20.679  0.00  0.00    +0.000 NA
ATOM     11  C   UNL     1       0.097  11.103  21.471  0.00  0.00    +0.000 A 
ATOM     12  C   UNL     1      -0.645  10.935  22.763  0.00  0.00    +0.000 C 
ATOM     13  N   UNL     1       0.573  12.327  21.206  0.00  0.00    +0.000 NA
ENDROOT
BRANCH   9  14
ATOM     14  C   UNL     1       1.194   8.986  18.657  0.00  0.00    +0.000 C 
ATOM     15  C   UNL     1       2.170   9.067  17.512  0.00  0.00    +0.000 C 
ATOM     16  C   UNL     1       2.535   8.275  18.744  0.00  0.00    +0.000 C 
BRANCH  16  17
ATOM     17  C   UNL     1       2.550   6.765  18.718  0.00  0.00    +0.000 A 
ATOM     18  C   UNL     1       3.175   6.060  17.692  0.00  0.00    +0.000 A 
ATOM     19  C   UNL     1       3.168   4.663  17.708  0.00  0.00    +0.000 A 
ATOM     20  C   UNL     1       2.550   3.970  18.732  0.00  0.00    +0.000 A 
ATOM     21  N   UNL     1       2.554   2.618  18.734  0.00  0.00    +0.000 NA
ATOM     22  C   UNL     1       1.938   1.996  19.761  0.00  0.00    +0.000 A 
ATOM     23  C   UNL     1       1.315   2.669  20.793  0.00  0.00    +0.000 A 
ATOM     24  C   UNL     1       1.326   4.062  20.765  0.00  0.00    +0.000 A 
ATOM     25  C   UNL     1       1.946   4.753  19.735  0.00  0.00    +0.000 A 
ATOM     26  N   UNL     1       1.941   6.103  19.733  0.00  0.00    +0.000 NA
ENDBRANCH  16  17
ENDBRANCH   9  14
BRANCH   1  27
ATOM     27  C   UNL     1       1.600  14.960  21.992  0.00  0.00    +0.000 C 
BRANCH  27  31
ATOM     28  C   UNL     1      -1.983  17.184  23.024  0.00  0.00    +0.000 A 
ATOM     29  C   UNL     1      -0.788  17.858  22.721  0.00  0.00    +0.000 A 
ATOM     30  C   UNL     1       0.374  17.159  22.389  0.00  0.00    +0.000 A 
ATOM     31  C   UNL     1       0.377  15.770  22.385  0.00  0.00    +0.000 A 
ATOM     32  C   UNL     1      -0.774  15.103  22.839  0.00  0.00    +0.000 A 
ATOM     33  C   UNL     1      -1.961  15.787  23.147  0.00  0.00    +0.000 A 
BRANCH  28  35
ATOM     34  C   UNL     1      -4.076  17.783  22.112  0.00  0.00    +0.000 C 
ATOM     35  O   UNL     1      -3.153  17.874  23.207  0.00  0.00    +0.000 OA
ENDBRANCH  28  35
BRANCH  33  36
ATOM     36  O   UNL     1      -2.956  14.928  23.523  0.00  0.00    +0.000 OA
ATOM     37  C   UNL     1      -3.191  14.679  24.896  0.00  0.00    +0.000 C 
ENDBRANCH  33  36
ENDBRANCH  27  31
ENDBRANCH   1  27
TORSDOF 6
ENDMDL
MODEL 8
REMARK VINA RESULT:      -7.8      2.180      3.044
REMARK  Name = 
REMARK  10 active torsions:
REMARK  status: ('A' for Active; 'I' for Inactive)
REMARK    1  A    between atoms: C_1  and  O_2
REMARK    2  A    between atoms: O_2  and  C_3
REMARK    3  A    between atoms: C_6  and  C_7
REMARK    4  A    between atoms: C_7  and  C_8
REMARK    5  A    between atoms: C_10  and  C_11
REMARK    6  A    between atoms: C_16  and  C_17
REMARK    7  A    between atoms: C_19  and  C_20
REMARK    8  A    between atoms: C_31  and  C_32
REMARK    9  A    between atoms: C_35  and  O_36
REMARK   10  A    between atoms: O_36  and  C_37
REMARK                            x       y       z     vdW  Elec       q    Type
REMARK                         _______ _______ _______ _____ _____    ______ ____
ROOT
ATOM      1  C   UNL     1       1.878  14.893  20.482  0.00  0.00    +0.000 A 
ATOM      2  N   UNL     1       2.513  15.757  19.705  0.00  0.00    +0.000 NA
ATOM      3  C   UNL     1       2.744  15.054  18.560  0.00  0.00    +0.000 A 
ATOM      4  C   UNL     1       3.478  15.611  17.406  0.00  0.00    +0.000 C 
ATOM      5  N   UNL     1       2.291  13.801  18.566  0.00  0.00    +0.000 NA
ATOM      6  N   UNL     1       1.696  13.705  19.786  0.00  0.00    +0.000 N 
ATOM      7  C   UNL     1       1.048  12.504  20.191  0.00  0.00    +0.000 A 
ATOM      8  C   UNL     1       1.181  11.372  19.398  0.00  0.00    +0.000 A 
ATOM      9  C   UNL     1       0.604  10.206  19.867  0.00  0.00    +0.000 A 
ATOM     10  N   UNL     1      -0.113  10.201  21.016  0.00  0.00    +0.000 NA
ATOM     11  C   UNL     1      -0.223  11.351  21.694  0.00  0.00    +0.000 A 
ATOM     12  C   UNL     1      -1.035  11.362  22.954  0.00  0.00    +0.000 C 
ATOM     13  N   UNL     1       0.353  12.507  21.339  0.00  0.00    +0.000 NA
ENDROOT
BRANCH   9  14
ATOM     14  C   UNL     1       0.846   8.896  19.156  0.00  0.00    +0.000 C 
ATOM     15  C   UNL     1       1.775   8.827  17.972  0.00  0.00    +0.000 C 
ATOM     16  C   UNL     1       2.181   8.178  19.272  0.00  0.00    +0.000 C 
BRANCH  16  17
ATOM     17  C   UNL     1       2.177   6.675  19.421  0.00  0.00    +0.000 A 
ATOM     18  C   UNL     1       1.813   6.063  20.619  0.00  0.00    +0.000 A 
ATOM     19  C   UNL     1       1.820   4.669  20.714  0.00  0.00    +0.000 A 
ATOM     20  C   UNL     1       2.181   3.888  19.632  0.00  0.00    +0.000 A 
ATOM     21  N   UNL     1       2.181   2.540  19.740  0.00  0.00    +0.000 NA
ATOM     22  C   UNL     1       2.539   1.829  18.650  0.00  0.00    +0.000 A 
ATOM     23  C   UNL     1       2.900   2.409  17.450  0.00  0.00    +0.000 A 
ATOM     24  C   UNL     1       2.891   3.800  17.368  0.00  0.00    +0.000 A 
ATOM     25  C   UNL     1       2.530   4.579  18.456  0.00  0.00    +0.000 A 
ATOM     26  N   UNL     1       2.531   5.926  18.348  0.00  0.00    +0.000 NA
ENDBRANCH  16  17
ENDBRANCH   9  14
BRANCH   1  27
ATOM     27  C   UNL     1       1.532  15.128  21.925  0.00  0.00    +0.000 C 
BRANCH  27  31
ATOM     28  C   UNL     1      -2.183  17.272  22.601  0.00  0.00    +0.000 A 
ATOM     29  C   UNL     1      -1.145  17.861  21.860  0.00  0.00    +0.000 A 
ATOM     30  C   UNL     1       0.057  17.187  21.634  0.00  0.00    +0.000 A 
ATOM     31  C   UNL     1       0.262  15.923  22.173  0.00  0.00    +0.000 A 
ATOM     32  C   UNL     1      -0.716  15.406  23.040  0.00  0.00    +0.000 A 
ATOM     33  C   UNL     1      -1.944  16.054  23.254  0.00  0.00    +0.000 A 
BRANCH  28  35
ATOM     34  C   UNL     1      -4.235  17.734  21.532  0.00  0.00    +0.000 C 
ATOM     35  O   UNL     1      -3.410  17.875  22.696  0.00  0.00    +0.000 OA
ENDBRANCH  28  35
BRANCH  33  36
ATOM     36  O   UNL     1      -2.750  15.343  24.099  0.00  0.00    +0.000 OA
ATOM     37  C   UNL     1      -2.411  15.230  25.468  0.00  0.00    +0.000 C 
ENDBRANCH  33  36
ENDBRANCH  27  31
ENDBRANCH   1  27
TORSDOF 6
ENDMDL
MODEL 9
REMARK VINA RESULT:      -7.8      4.349      8.277
REMARK  Name = 
REMARK  10 active torsions:
REMARK  status: ('A' for Active; 'I' for Inactive)
REMARK    1  A    between atoms: C_1  and  O_2
REMARK    2  A    between atoms: O_2  and  C_3
REMARK    3  A    between atoms: C_6  and  C_7
REMARK    4  A    between atoms: C_7  and  C_8
REMARK    5  A    between atoms: C_10  and  C_11
REMARK    6  A    between atoms: C_16  and  C_17
REMARK    7  A    between atoms: C_19  and  C_20
REMARK    8  A    between atoms: C_31  and  C_32
REMARK    9  A    between atoms: C_35  and  O_36
REMARK   10  A    between atoms: O_36  and  C_37
REMARK                            x       y       z     vdW  Elec       q    Type
REMARK                         _______ _______ _______ _____ _____    ______ ____
ROOT
ATOM      1  C   UNL     1       0.225  11.327  19.348  0.00  0.00    +0.000 A 
ATOM      2  N   UNL     1       0.198  10.084  18.889  0.00  0.00    +0.000 NA
ATOM      3  C   UNL     1       1.432   9.917  18.333  0.00  0.00    +0.000 A 
ATOM      4  C   UNL     1       1.846   8.676  17.649  0.00  0.00    +0.000 C 
ATOM      5  N   UNL     1       2.236  10.975  18.417  0.00  0.00    +0.000 NA
ATOM      6  N   UNL     1       1.479  11.872  19.105  0.00  0.00    +0.000 N 
ATOM      7  C   UNL     1       1.990  13.158  19.437  0.00  0.00    +0.000 A 
ATOM      8  C   UNL     1       3.208  13.554  18.898  0.00  0.00    +0.000 A 
ATOM      9  C   UNL     1       3.630  14.841  19.181  0.00  0.00    +0.000 A 
ATOM     10  N   UNL     1       2.911  15.641  20.002  0.00  0.00    +0.000 NA
ATOM     11  C   UNL     1       1.769  15.159  20.510  0.00  0.00    +0.000 A 
ATOM     12  C   UNL     1       0.978  16.029  21.440  0.00  0.00    +0.000 C 
ATOM     13  N   UNL     1       1.261  13.950  20.240  0.00  0.00    +0.000 NA
ENDROOT
BRANCH   9  14
ATOM     14  C   UNL     1       4.851  15.408  18.499  0.00  0.00    +0.000 C 
ATOM     15  C   UNL     1       5.232  16.854  18.687  0.00  0.00    +0.000 C 
ATOM     16  C   UNL     1       6.094  15.775  19.296  0.00  0.00    +0.000 C 
BRANCH  16  17
ATOM     17  C   UNL     1       7.446  15.441  18.711  0.00  0.00    +0.000 A 
ATOM     18  C   UNL     1       8.290  16.432  18.215  0.00  0.00    +0.000 A 
ATOM     19  C   UNL     1       9.534  16.079  17.685  0.00  0.00    +0.000 A 
ATOM     20  C   UNL     1       9.939  14.758  17.648  0.00  0.00    +0.000 A 
ATOM     21  N   UNL     1      11.146  14.435  17.134  0.00  0.00    +0.000 NA
ATOM     22  C   UNL     1      11.490  13.129  17.128  0.00  0.00    +0.000 A 
ATOM     23  C   UNL     1      10.675  12.128  17.615  0.00  0.00    +0.000 A 
ATOM     24  C   UNL     1       9.436  12.490  18.140  0.00  0.00    +0.000 A 
ATOM     25  C   UNL     1       9.033  13.816  18.173  0.00  0.00    +0.000 A 
ATOM     26  N   UNL     1       7.827  14.139  18.687  0.00  0.00    +0.000 NA
ENDBRANCH  16  17
ENDBRANCH   9  14
BRANCH   1  27
ATOM     27  C   UNL     1      -0.957  12.058  19.918  0.00  0.00    +0.000 C 
BRANCH  27  31
ATOM     28  C   UNL     1      -4.596  11.761  17.568  0.00  0.00    +0.000 A 
ATOM     29  C   UNL     1      -4.658  11.989  18.953  0.00  0.00    +0.000 A 
ATOM     30  C   UNL     1      -3.498  12.085  19.725  0.00  0.00    +0.000 A 
ATOM     31  C   UNL     1      -2.251  11.922  19.135  0.00  0.00    +0.000 A 
ATOM     32  C   UNL     1      -2.201  11.542  17.784  0.00  0.00    +0.000 A 
ATOM     33  C   UNL     1      -3.354  11.470  16.984  0.00  0.00    +0.000 A 
BRANCH  28  35
ATOM     34  C   UNL     1      -6.604  12.906  17.094  0.00  0.00    +0.000 C 
ATOM     35  O   UNL     1      -5.726  11.812  16.795  0.00  0.00    +0.000 OA
ENDBRANCH  28  35
BRANCH  33  36
ATOM     36  O   UNL     1      -3.055  11.124  15.695  0.00  0.00    +0.000 OA
ATOM     37  C   UNL     1      -3.306   9.807  15.244  0.00  0.00    +0.000 C 
ENDBRANCH  33  36
ENDBRANCH  27  31
ENDBRANCH   1  27
TORSDOF 6
ENDMDL
