MODEL 1
REMARK VINA RESULT:      -7.9      0.000      0.000
REMARK  Name = 
REMARK  4 active torsions:
REMARK  status: ('A' for Active; 'I' for Inactive)
REMARK    1  A    between atoms: C_1  and  C_2
REMARK    2  A    between atoms: C_8  and  N_9
REMARK    3  A    between atoms: N_12  and  C_13
REMARK    4  A    between atoms: C_18  and  C_19
REMARK                            x       y       z     vdW  Elec       q    Type
REMARK                         _______ _______ _______ _____ _____    ______ ____
ROOT
ATOM      1  N   UNL     1       4.221   2.862  17.499  0.00  0.00    +0.000 N 
ATOM      2  C   UNL     1       4.660   3.640  16.437  0.00  0.00    +0.000 C 
ATOM      3  O   UNL     1       4.142   4.687  16.064  0.00  0.00    +0.000 OA
ATOM      4  N   UNL     1       5.747   3.084  15.779  0.00  0.00    +0.000 N 
ATOM      5  H   UNL     1       4.724   2.002  17.657  0.00  0.00    +0.000 HD
ATOM      6  H   UNL     1       5.726   2.067  15.698  0.00  0.00    +0.000 HD
ENDROOT
BRANCH   1  14
ATOM      7  C   UNL     1       4.216   5.165  19.314  0.00  0.00    +0.000 C 
ATOM      8  C   UNL     1       3.050   4.215  19.205  0.00  0.00    +0.000 A 
ATOM      9  C   UNL     1       1.892   4.409  19.999  0.00  0.00    +0.000 A 
ATOM     10 CL   UNL     1       1.743   5.713  21.129  0.00  0.00    +0.000 Cl
ATOM     11  C   UNL     1       0.798   3.543  19.916  0.00  0.00    +0.000 A 
ATOM     12  C   UNL     1       0.817   2.492  19.018  0.00  0.00    +0.000 A 
ATOM     13  C   UNL     1       1.936   2.299  18.212  0.00  0.00    +0.000 A 
ATOM     14  C   UNL     1       3.069   3.125  18.298  0.00  0.00    +0.000 A 
ENDBRANCH   1  14
BRANCH   4  15
ATOM     15  C   UNL     1       6.311   3.747  14.647  0.00  0.00    +0.000 A 
ATOM     16  C   UNL     1       6.014   3.289  13.353  0.00  0.00    +0.000 A 
ATOM     17  C   UNL     1       6.595   3.885  12.233  0.00  0.00    +0.000 A 
ATOM     18  C   UNL     1       7.472   4.954  12.388  0.00  0.00    +0.000 A 
ATOM     19  C   UNL     1       7.765   5.434  13.667  0.00  0.00    +0.000 A 
ATOM     20  C   UNL     1       7.195   4.835  14.802  0.00  0.00    +0.000 A 
BRANCH  20  21
ATOM     21  C   UNL     1       7.579   5.294  16.164  0.00  0.00    +0.000 C 
ATOM     22  N   UNL     1       7.464   6.631  16.436  0.00  0.00    +0.000 N 
ATOM     23  O   UNL     1       8.052   4.522  16.988  0.00  0.00    +0.000 OA
ATOM     24  H   UNL     1       7.373   7.320  15.702  0.00  0.00    +0.000 HD
ATOM     25  H   UNL     1       7.860   6.943  17.314  0.00  0.00    +0.000 HD
ENDBRANCH  20  21
ENDBRANCH   4  15
TORSDOF 3
ENDMDL
MODEL 2
REMARK VINA RESULT:      -7.7      1.119      1.190
REMARK  Name = 
REMARK  4 active torsions:
REMARK  status: ('A' for Active; 'I' for Inactive)
REMARK    1  A    between atoms: C_1  and  C_2
REMARK    2  A    between atoms: C_8  and  N_9
REMARK    3  A    between atoms: N_12  and  C_13
REMARK    4  A    between atoms: C_18  and  C_19
REMARK                            x       y       z     vdW  Elec       q    Type
REMARK                         _______ _______ _______ _____ _____    ______ ____
ROOT
ATOM      1  N   UNL     1       4.292   2.712  17.384  0.00  0.00    +0.000 N 
ATOM      2  C   UNL     1       4.743   3.568  16.389  0.00  0.00    +0.000 C 
ATOM      3  O   UNL     1       4.259   4.663  16.125  0.00  0.00    +0.000 OA
ATOM      4  N   UNL     1       5.797   3.036  15.660  0.00  0.00    +0.000 N 
ATOM      5  H   UNL     1       4.765   1.823  17.451  0.00  0.00    +0.000 HD
ATOM      6  H   UNL     1       5.735   2.032  15.487  0.00  0.00    +0.000 HD
ENDROOT
BRANCH   1  14
ATOM      7  C   UNL     1       4.499   2.150  20.254  0.00  0.00    +0.000 C 
ATOM      8  C   UNL     1       3.228   2.652  19.614  0.00  0.00    +0.000 A 
ATOM      9  C   UNL     1       2.068   2.868  20.399  0.00  0.00    +0.000 A 
ATOM     10 CL   UNL     1       2.026   2.567  22.105  0.00  0.00    +0.000 Cl
ATOM     11  C   UNL     1       0.880   3.334  19.831  0.00  0.00    +0.000 A 
ATOM     12  C   UNL     1       0.831   3.630  18.481  0.00  0.00    +0.000 A 
ATOM     13  C   UNL     1       1.967   3.447  17.698  0.00  0.00    +0.000 A 
ATOM     14  C   UNL     1       3.166   2.942  18.228  0.00  0.00    +0.000 A 
ENDBRANCH   1  14
BRANCH   4  15
ATOM     15  C   UNL     1       6.366   3.780  14.583  0.00  0.00    +0.000 A 
ATOM     16  C   UNL     1       6.101   3.398  13.257  0.00  0.00    +0.000 A 
ATOM     17  C   UNL     1       6.689   4.074  12.187  0.00  0.00    +0.000 A 
ATOM     18  C   UNL     1       7.540   5.149  12.426  0.00  0.00    +0.000 A 
ATOM     19  C   UNL     1       7.801   5.553  13.737  0.00  0.00    +0.000 A 
ATOM     20  C   UNL     1       7.224   4.872  14.822  0.00  0.00    +0.000 A 
BRANCH  20  21
ATOM     21  C   UNL     1       7.575   5.253  16.216  0.00  0.00    +0.000 C 
ATOM     22  N   UNL     1       7.445   6.571  16.563  0.00  0.00    +0.000 N 
ATOM     23  O   UNL     1       8.033   4.436  17.004  0.00  0.00    +0.000 OA
ATOM     24  H   UNL     1       7.366   7.302  15.870  0.00  0.00    +0.000 HD
ATOM     25  H   UNL     1       7.819   6.833  17.467  0.00  0.00    +0.000 HD
ENDBRANCH  20  21
ENDBRANCH   4  15
TORSDOF 3
ENDMDL
MODEL 3
REMARK VINA RESULT:      -7.3      4.759      6.874
REMARK  Name = 
REMARK  4 active torsions:
REMARK  status: ('A' for Active; 'I' for Inactive)
REMARK    1  A    between atoms: C_1  and  C_2
REMARK    2  A    between atoms: C_8  and  N_9
REMARK    3  A    between atoms: N_12  and  C_13
REMARK    4  A    between atoms: C_18  and  C_19
REMARK                            x       y       z     vdW  Elec       q    Type
REMARK                         _______ _______ _______ _____ _____    ______ ____
ROOT
ATOM      1  N   UNL     1       1.845   8.009  20.741  0.00  0.00    +0.000 N 
ATOM      2  C   UNL     1       2.206   7.032  19.823  0.00  0.00    +0.000 C 
ATOM      3  O   UNL     1       1.908   7.032  18.635  0.00  0.00    +0.000 OA
ATOM      4  N   UNL     1       2.920   5.992  20.401  0.00  0.00    +0.000 N 
ATOM      5  H   UNL     1       2.128   7.847  21.696  0.00  0.00    +0.000 HD
ATOM      6  H   UNL     1       2.614   5.730  21.339  0.00  0.00    +0.000 HD
ENDROOT
BRANCH   1  14
ATOM      7  C   UNL     1       0.339   9.270  22.917  0.00  0.00    +0.000 C 
ATOM      8  C   UNL     1       0.268   9.758  21.491  0.00  0.00    +0.000 A 
ATOM      9  C   UNL     1      -0.552  10.863  21.152  0.00  0.00    +0.000 A 
ATOM     10 CL   UNL     1      -1.515  11.704  22.322  0.00  0.00    +0.000 Cl
ATOM     11  C   UNL     1      -0.636  11.334  19.840  0.00  0.00    +0.000 A 
ATOM     12  C   UNL     1       0.122  10.742  18.845  0.00  0.00    +0.000 A 
ATOM     13  C   UNL     1       0.952   9.670  19.163  0.00  0.00    +0.000 A 
ATOM     14  C   UNL     1       1.029   9.145  20.464  0.00  0.00    +0.000 A 
ENDBRANCH   1  14
BRANCH   4  15
ATOM     15  C   UNL     1       3.351   4.892  19.600  0.00  0.00    +0.000 A 
ATOM     16  C   UNL     1       4.255   5.111  18.547  0.00  0.00    +0.000 A 
ATOM     17  C   UNL     1       4.650   4.062  17.715  0.00  0.00    +0.000 A 
ATOM     18  C   UNL     1       4.157   2.779  17.928  0.00  0.00    +0.000 A 
ATOM     19  C   UNL     1       3.271   2.540  18.981  0.00  0.00    +0.000 A 
ATOM     20  C   UNL     1       2.858   3.590  19.819  0.00  0.00    +0.000 A 
BRANCH  20  21
ATOM     21  C   UNL     1       1.847   3.344  20.882  0.00  0.00    +0.000 C 
ATOM     22  N   UNL     1       0.546   3.177  20.491  0.00  0.00    +0.000 N 
ATOM     23  O   UNL     1       2.151   3.364  22.068  0.00  0.00    +0.000 OA
ATOM     24  H   UNL     1       0.223   3.454  19.574  0.00  0.00    +0.000 HD
ATOM     25  H   UNL     1      -0.143   3.152  21.233  0.00  0.00    +0.000 HD
ENDBRANCH  20  21
ENDBRANCH   4  15
TORSDOF 3
ENDMDL
MODEL 4
REMARK VINA RESULT:      -7.3      4.307      6.474
REMARK  Name = 
REMARK  4 active torsions:
REMARK  status: ('A' for Active; 'I' for Inactive)
REMARK    1  A    between atoms: C_1  and  C_2
REMARK    2  A    between atoms: C_8  and  N_9
REMARK    3  A    between atoms: N_12  and  C_13
REMARK    4  A    between atoms: C_18  and  C_19
REMARK                            x       y       z     vdW  Elec       q    Type
REMARK                         _______ _______ _______ _____ _____    ______ ____
ROOT
ATOM      1  N   UNL     1       2.408   7.395  20.536  0.00  0.00    +0.000 N 
ATOM      2  C   UNL     1       2.341   6.238  19.773  0.00  0.00    +0.000 C 
ATOM      3  O   UNL     1       1.413   5.929  19.034  0.00  0.00    +0.000 OA
ATOM      4  N   UNL     1       3.437   5.406  19.963  0.00  0.00    +0.000 N 
ATOM      5  H   UNL     1       3.217   7.487  21.131  0.00  0.00    +0.000 HD
ATOM      6  H   UNL     1       3.789   5.373  20.920  0.00  0.00    +0.000 HD
ENDROOT
BRANCH   1  14
ATOM      7  C   UNL     1       1.951   9.203  18.274  0.00  0.00    +0.000 C 
ATOM      8  C   UNL     1       1.164   9.294  19.558  0.00  0.00    +0.000 A 
ATOM      9  C   UNL     1       0.161  10.282  19.714  0.00  0.00    +0.000 A 
ATOM     10 CL   UNL     1      -0.216  11.433  18.476  0.00  0.00    +0.000 Cl
ATOM     11  C   UNL     1      -0.582  10.387  20.893  0.00  0.00    +0.000 A 
ATOM     12  C   UNL     1      -0.369   9.490  21.924  0.00  0.00    +0.000 A 
ATOM     13  C   UNL     1       0.596   8.497  21.780  0.00  0.00    +0.000 A 
ATOM     14  C   UNL     1       1.389   8.388  20.625  0.00  0.00    +0.000 A 
ENDBRANCH   1  14
BRANCH   4  15
ATOM     15  C   UNL     1       3.516   4.162  19.267  0.00  0.00    +0.000 A 
ATOM     16  C   UNL     1       4.218   4.088  18.052  0.00  0.00    +0.000 A 
ATOM     17  C   UNL     1       4.265   2.898  17.325  0.00  0.00    +0.000 A 
ATOM     18  C   UNL     1       3.622   1.762  17.807  0.00  0.00    +0.000 A 
ATOM     19  C   UNL     1       2.935   1.812  19.021  0.00  0.00    +0.000 A 
ATOM     20  C   UNL     1       2.871   3.008  19.756  0.00  0.00    +0.000 A 
BRANCH  20  21
ATOM     21  C   UNL     1       2.065   3.077  21.005  0.00  0.00    +0.000 C 
ATOM     22  N   UNL     1       0.713   3.245  20.874  0.00  0.00    +0.000 N 
ATOM     23  O   UNL     1       2.594   3.059  22.108  0.00  0.00    +0.000 OA
ATOM     24  H   UNL     1       0.293   3.564  20.012  0.00  0.00    +0.000 HD
ATOM     25  H   UNL     1       0.202   3.430  21.729  0.00  0.00    +0.000 HD
ENDBRANCH  20  21
ENDBRANCH   4  15
TORSDOF 3
ENDMDL
MODEL 5
REMARK VINA RESULT:      -7.1      3.774      4.717
REMARK  Name = 
REMARK  4 active torsions:
REMARK  status: ('A' for Active; 'I' for Inactive)
REMARK    1  A    between atoms: C_1  and  C_2
REMARK    2  A    between atoms: C_8  and  N_9
REMARK    3  A    between atoms: N_12  and  C_13
REMARK    4  A    between atoms: C_18  and  C_19
REMARK                            x       y       z     vdW  Elec       q    Type
REMARK                         _______ _______ _______ _____ _____    ______ ____
ROOT
ATOM      1  N   UNL     1       2.297   7.219  18.364  0.00  0.00    +0.000 N 
ATOM      2  C   UNL     1       3.547   7.016  17.797  0.00  0.00    +0.000 C 
ATOM      3  O   UNL     1       4.413   7.874  17.663  0.00  0.00    +0.000 OA
ATOM      4  N   UNL     1       3.721   5.719  17.333  0.00  0.00    +0.000 N 
ATOM      5  H   UNL     1       1.675   6.425  18.363  0.00  0.00    +0.000 HD
ATOM      6  H   UNL     1       2.891   5.298  16.915  0.00  0.00    +0.000 HD
ENDROOT
BRANCH   1  14
ATOM      7  C   UNL     1       1.363   7.443  21.134  0.00  0.00    +0.000 C 
ATOM      8  C   UNL     1       1.311   8.597  20.164  0.00  0.00    +0.000 A 
ATOM      9  C   UNL     1       0.793   9.852  20.571  0.00  0.00    +0.000 A 
ATOM     10 CL   UNL     1       0.188  10.137  22.169  0.00  0.00    +0.000 Cl
ATOM     11  C   UNL     1       0.735  10.936  19.692  0.00  0.00    +0.000 A 
ATOM     12  C   UNL     1       1.225  10.808  18.405  0.00  0.00    +0.000 A 
ATOM     13  C   UNL     1       1.759   9.589  17.994  0.00  0.00    +0.000 A 
ATOM     14  C   UNL     1       1.796   8.467  18.838  0.00  0.00    +0.000 A 
ENDBRANCH   1  14
BRANCH   4  15
ATOM     15  C   UNL     1       4.945   5.346  16.702  0.00  0.00    +0.000 A 
ATOM     16  C   UNL     1       5.086   5.497  15.312  0.00  0.00    +0.000 A 
ATOM     17  C   UNL     1       6.252   5.089  14.663  0.00  0.00    +0.000 A 
ATOM     18  C   UNL     1       7.299   4.536  15.393  0.00  0.00    +0.000 A 
ATOM     19  C   UNL     1       7.184   4.394  16.777  0.00  0.00    +0.000 A 
ATOM     20  C   UNL     1       6.010   4.791  17.440  0.00  0.00    +0.000 A 
BRANCH  20  21
ATOM     21  C   UNL     1       5.861   4.556  18.902  0.00  0.00    +0.000 C 
ATOM     22  N   UNL     1       5.423   3.323  19.302  0.00  0.00    +0.000 N 
ATOM     23  O   UNL     1       6.050   5.452  19.714  0.00  0.00    +0.000 OA
ATOM     24  H   UNL     1       4.976   2.680  18.663  0.00  0.00    +0.000 HD
ATOM     25  H   UNL     1       5.194   3.228  20.284  0.00  0.00    +0.000 HD
ENDBRANCH  20  21
ENDBRANCH   4  15
TORSDOF 3
ENDMDL
MODEL 6
REMARK VINA RESULT:      -7.1      5.363      8.307
REMARK  Name = 
REMARK  4 active torsions:
REMARK  status: ('A' for Active; 'I' for Inactive)
REMARK    1  A    between atoms: C_1  and  C_2
REMARK    2  A    between atoms: C_8  and  N_9
REMARK    3  A    between atoms: N_12  and  C_13
REMARK    4  A    between atoms: C_18  and  C_19
REMARK                            x       y       z     vdW  Elec       q    Type
REMARK                         _______ _______ _______ _____ _____    ______ ____
ROOT
ATOM      1  N   UNL     1       2.387   6.484  20.607  0.00  0.00    +0.000 N 
ATOM      2  C   UNL     1       1.336   7.330  20.930  0.00  0.00    +0.000 C 
ATOM      3  O   UNL     1       0.166   6.987  21.064  0.00  0.00    +0.000 OA
ATOM      4  N   UNL     1       1.730   8.655  21.046  0.00  0.00    +0.000 N 
ATOM      5  H   UNL     1       3.288   6.922  20.487  0.00  0.00    +0.000 HD
ATOM      6  H   UNL     1       2.443   8.951  20.378  0.00  0.00    +0.000 HD
ENDROOT
BRANCH   1  14
ATOM      7  C   UNL     1       2.845   5.513  17.879  0.00  0.00    +0.000 C 
ATOM      8  C   UNL     1       2.462   4.596  19.013  0.00  0.00    +0.000 A 
ATOM      9  C   UNL     1       2.304   3.206  18.788  0.00  0.00    +0.000 A 
ATOM     10 CL   UNL     1       2.524   2.482  17.229  0.00  0.00    +0.000 Cl
ATOM     11  C   UNL     1       1.950   2.335  19.821  0.00  0.00    +0.000 A 
ATOM     12  C   UNL     1       1.784   2.821  21.106  0.00  0.00    +0.000 A 
ATOM     13  C   UNL     1       1.958   4.180  21.352  0.00  0.00    +0.000 A 
ATOM     14  C   UNL     1       2.273   5.090  20.328  0.00  0.00    +0.000 A 
ENDBRANCH   1  14
BRANCH   4  15
ATOM     15  C   UNL     1       0.766   9.662  21.355  0.00  0.00    +0.000 A 
ATOM     16  C   UNL     1       0.200   9.712  22.639  0.00  0.00    +0.000 A 
ATOM     17  C   UNL     1      -0.784  10.651  22.951  0.00  0.00    +0.000 A 
ATOM     18  C   UNL     1      -1.209  11.561  21.987  0.00  0.00    +0.000 A 
ATOM     19  C   UNL     1      -0.644  11.537  20.711  0.00  0.00    +0.000 A 
ATOM     20  C   UNL     1       0.339  10.589  20.382  0.00  0.00    +0.000 A 
BRANCH  20  21
ATOM     21  C   UNL     1       0.873  10.513  18.996  0.00  0.00    +0.000 C 
ATOM     22  N   UNL     1       1.483  11.629  18.492  0.00  0.00    +0.000 N 
ATOM     23  O   UNL     1       0.708   9.517  18.303  0.00  0.00    +0.000 OA
ATOM     24  H   UNL     1       1.365  12.541  18.913  0.00  0.00    +0.000 HD
ATOM     25  H   UNL     1       1.712  11.606  17.505  0.00  0.00    +0.000 HD
ENDBRANCH  20  21
ENDBRANCH   4  15
TORSDOF 3
ENDMDL
MODEL 7
REMARK VINA RESULT:      -7.0      4.234      6.013
REMARK  Name = 
REMARK  4 active torsions:
REMARK  status: ('A' for Active; 'I' for Inactive)
REMARK    1  A    between atoms: C_1  and  C_2
REMARK    2  A    between atoms: C_8  and  N_9
REMARK    3  A    between atoms: N_12  and  C_13
REMARK    4  A    between atoms: C_18  and  C_19
REMARK                            x       y       z     vdW  Elec       q    Type
REMARK                         _______ _______ _______ _____ _____    ______ ____
ROOT
ATOM      1  N   UNL     1       2.065   7.797  19.376  0.00  0.00    +0.000 N 
ATOM      2  C   UNL     1       2.071   6.410  19.416  0.00  0.00    +0.000 C 
ATOM      3  O   UNL     1       1.434   5.721  20.206  0.00  0.00    +0.000 OA
ATOM      4  N   UNL     1       2.930   5.850  18.481  0.00  0.00    +0.000 N 
ATOM      5  H   UNL     1       2.678   8.223  18.697  0.00  0.00    +0.000 HD
ATOM      6  H   UNL     1       3.799   6.364  18.334  0.00  0.00    +0.000 HD
ENDROOT
BRANCH   1  14
ATOM      7  C   UNL     1       0.370   9.936  18.308  0.00  0.00    +0.000 C 
ATOM      8  C   UNL     1       0.554   9.709  19.788  0.00  0.00    +0.000 A 
ATOM      9  C   UNL     1      -0.098  10.545  20.728  0.00  0.00    +0.000 A 
ATOM     10 CL   UNL     1      -1.119  11.862  20.254  0.00  0.00    +0.000 Cl
ATOM     11  C   UNL     1       0.056  10.356  22.103  0.00  0.00    +0.000 A 
ATOM     12  C   UNL     1       0.829   9.309  22.572  0.00  0.00    +0.000 A 
ATOM     13  C   UNL     1       1.459   8.462  21.664  0.00  0.00    +0.000 A 
ATOM     14  C   UNL     1       1.359   8.649  20.275  0.00  0.00    +0.000 A 
ENDBRANCH   1  14
BRANCH   4  15
ATOM     15  C   UNL     1       3.072   4.431  18.402  0.00  0.00    +0.000 A 
ATOM     16  C   UNL     1       1.941   3.632  18.164  0.00  0.00    +0.000 A 
ATOM     17  C   UNL     1       2.043   2.240  18.137  0.00  0.00    +0.000 A 
ATOM     18  C   UNL     1       3.276   1.628  18.335  0.00  0.00    +0.000 A 
ATOM     19  C   UNL     1       4.413   2.407  18.556  0.00  0.00    +0.000 A 
ATOM     20  C   UNL     1       4.321   3.809  18.597  0.00  0.00    +0.000 A 
BRANCH  20  21
ATOM     21  C   UNL     1       5.520   4.629  18.920  0.00  0.00    +0.000 C 
ATOM     22  N   UNL     1       6.702   4.279  18.326  0.00  0.00    +0.000 N 
ATOM     23  O   UNL     1       5.471   5.535  19.741  0.00  0.00    +0.000 OA
ATOM     24  H   UNL     1       6.839   3.374  17.896  0.00  0.00    +0.000 HD
ATOM     25  H   UNL     1       7.530   4.757  18.663  0.00  0.00    +0.000 HD
ENDBRANCH  20  21
ENDBRANCH   4  15
TORSDOF 3
ENDMDL
MODEL 8
REMARK VINA RESULT:      -6.9      4.514      6.026
REMARK  Name = 
REMARK  4 active torsions:
REMARK  status: ('A' for Active; 'I' for Inactive)
REMARK    1  A    between atoms: C_1  and  C_2
REMARK    2  A    between atoms: C_8  and  N_9
REMARK    3  A    between atoms: N_12  and  C_13
REMARK    4  A    between atoms: C_18  and  C_19
REMARK                            x       y       z     vdW  Elec       q    Type
REMARK                         _______ _______ _______ _____ _____    ______ ____
ROOT
ATOM      1  N   UNL     1       1.800   8.056  19.830  0.00  0.00    +0.000 N 
ATOM      2  C   UNL     1       2.523   7.627  18.726  0.00  0.00    +0.000 C 
ATOM      3  O   UNL     1       2.555   8.192  17.638  0.00  0.00    +0.000 OA
ATOM      4  N   UNL     1       3.193   6.433  18.954  0.00  0.00    +0.000 N 
ATOM      5  H   UNL     1       1.837   7.459  20.643  0.00  0.00    +0.000 HD
ATOM      6  H   UNL     1       2.687   5.761  19.531  0.00  0.00    +0.000 HD
ENDROOT
BRANCH   1  14
ATOM      7  C   UNL     1       1.007   9.184  22.417  0.00  0.00    +0.000 C 
ATOM      8  C   UNL     1       0.516   9.741  21.104  0.00  0.00    +0.000 A 
ATOM      9  C   UNL     1      -0.367  10.849  21.081  0.00  0.00    +0.000 A 
ATOM     10 CL   UNL     1      -0.939  11.616  22.525  0.00  0.00    +0.000 Cl
ATOM     11  C   UNL     1      -0.835  11.384  19.878  0.00  0.00    +0.000 A 
ATOM     12  C   UNL     1      -0.406  10.853  18.674  0.00  0.00    +0.000 A 
ATOM     13  C   UNL     1       0.480   9.779  18.676  0.00  0.00    +0.000 A 
ATOM     14  C   UNL     1       0.938   9.191  19.867  0.00  0.00    +0.000 A 
ENDBRANCH   1  14
BRANCH   4  15
ATOM     15  C   UNL     1       3.969   5.842  17.913  0.00  0.00    +0.000 A 
ATOM     16  C   UNL     1       5.096   6.517  17.416  0.00  0.00    +0.000 A 
ATOM     17  C   UNL     1       5.841   5.986  16.361  0.00  0.00    +0.000 A 
ATOM     18  C   UNL     1       5.477   4.768  15.795  0.00  0.00    +0.000 A 
ATOM     19  C   UNL     1       4.370   4.075  16.289  0.00  0.00    +0.000 A 
ATOM     20  C   UNL     1       3.606   4.605  17.343  0.00  0.00    +0.000 A 
BRANCH  20  21
ATOM     21  C   UNL     1       2.378   3.903  17.804  0.00  0.00    +0.000 C 
ATOM     22  N   UNL     1       2.542   2.769  18.551  0.00  0.00    +0.000 N 
ATOM     23  O   UNL     1       1.264   4.281  17.467  0.00  0.00    +0.000 OA
ATOM     24  H   UNL     1       3.422   2.272  18.586  0.00  0.00    +0.000 HD
ATOM     25  H   UNL     1       1.704   2.231  18.736  0.00  0.00    +0.000 HD
ENDBRANCH  20  21
ENDBRANCH   4  15
TORSDOF 3
ENDMDL
MODEL 9
REMARK VINA RESULT:      -6.9      4.366      6.302
REMARK  Name = 
REMARK  4 active torsions:
REMARK  status: ('A' for Active; 'I' for Inactive)
REMARK    1  A    between atoms: C_1  and  C_2
REMARK    2  A    between atoms: C_8  and  N_9
REMARK    3  A    between atoms: N_12  and  C_13
REMARK    4  A    between atoms: C_18  and  C_19
REMARK                            x       y       z     vdW  Elec       q    Type
REMARK                         _______ _______ _______ _____ _____    ______ ____
ROOT
ATOM      1  N   UNL     1       1.948   7.682  20.679  0.00  0.00    +0.000 N 
ATOM      2  C   UNL     1       2.153   6.614  19.817  0.00  0.00    +0.000 C 
ATOM      3  O   UNL     1       1.858   6.597  18.628  0.00  0.00    +0.000 OA
ATOM      4  N   UNL     1       2.697   5.507  20.455  0.00  0.00    +0.000 N 
ATOM      5  H   UNL     1       2.202   7.529  21.644  0.00  0.00    +0.000 HD
ATOM      6  H   UNL     1       2.354   5.346  21.403  0.00  0.00    +0.000 HD
ENDROOT
BRANCH   1  14
ATOM      7  C   UNL     1       0.585   9.234  22.759  0.00  0.00    +0.000 C 
ATOM      8  C   UNL     1       0.627   9.672  21.316  0.00  0.00    +0.000 A 
ATOM      9  C   UNL     1      -0.009  10.872  20.912  0.00  0.00    +0.000 A 
ATOM     10 CL   UNL     1      -0.869  11.890  22.019  0.00  0.00    +0.000 Cl
ATOM     11  C   UNL     1       0.015  11.299  19.582  0.00  0.00    +0.000 A 
ATOM     12  C   UNL     1       0.705  10.564  18.635  0.00  0.00    +0.000 A 
ATOM     13  C   UNL     1       1.356   9.394  19.017  0.00  0.00    +0.000 A 
ATOM     14  C   UNL     1       1.318   8.914  20.337  0.00  0.00    +0.000 A 
ENDBRANCH   1  14
BRANCH   4  15
ATOM     15  C   UNL     1       2.952   4.313  19.716  0.00  0.00    +0.000 A 
ATOM     16  C   UNL     1       2.052   3.237  19.800  0.00  0.00    +0.000 A 
ATOM     17  C   UNL     1       2.306   2.039  19.131  0.00  0.00    +0.000 A 
ATOM     18  C   UNL     1       3.455   1.901  18.360  0.00  0.00    +0.000 A 
ATOM     19  C   UNL     1       4.352   2.966  18.251  0.00  0.00    +0.000 A 
ATOM     20  C   UNL     1       4.113   4.173  18.929  0.00  0.00    +0.000 A 
BRANCH  20  21
ATOM     21  C   UNL     1       5.116   5.271  18.879  0.00  0.00    +0.000 C 
ATOM     22  N   UNL     1       5.055   6.134  17.819  0.00  0.00    +0.000 N 
ATOM     23  O   UNL     1       6.008   5.358  19.713  0.00  0.00    +0.000 OA
ATOM     24  H   UNL     1       4.540   5.914  16.977  0.00  0.00    +0.000 HD
ATOM     25  H   UNL     1       5.826   6.785  17.728  0.00  0.00    +0.000 HD
ENDBRANCH  20  21
ENDBRANCH   4  15
TORSDOF 3
ENDMDL
