MODEL 1
REMARK VINA RESULT:      -8.6      0.000      0.000
REMARK  Name = 
REMARK  7 active torsions:
REMARK  status: ('A' for Active; 'I' for Inactive)
REMARK    1  A    between atoms: C_1  and  C_2
REMARK    2  A    between atoms: C_3  and  S_4
REMARK    3  A    between atoms: S_4  and  N_7
REMARK    4  A    between atoms: N_7  and  C_8
REMARK    5  A    between atoms: N_14  and  C_15
REMARK    6  A    between atoms: C_15  and  C_16
REMARK    7  A    between atoms: C_16  and  N_17
REMARK                            x       y       z     vdW  Elec       q    Type
REMARK                         _______ _______ _______ _____ _____    ______ ____
ROOT
ATOM      1  N   UNL     1       2.449   5.854  21.048  0.00  0.00    +0.000 N 
ATOM      2  H   UNL     1       3.315   5.923  21.575  0.00  0.00    +0.000 HD
ENDROOT
BRANCH   1   3
ATOM      3  C   UNL     1       2.015   7.035  20.384  0.00  0.00    +0.000 A 
ATOM      4  C   UNL     1       2.408   7.272  19.071  0.00  0.00    +0.000 A 
ATOM      5  C   UNL     1       1.992   8.431  18.402  0.00  0.00    +0.000 A 
ATOM      6  C   UNL     1       1.200   9.381  19.072  0.00  0.00    +0.000 A 
ATOM      7  C   UNL     1       0.626  10.609  18.688  0.00  0.00    +0.000 A 
ATOM      8  C   UNL     1      -0.070  11.110  19.771  0.00  0.00    +0.000 A 
ATOM      9  N   UNL     1       0.069  10.220  20.803  0.00  0.00    +0.000 N 
ATOM     10  C   UNL     1       0.825   9.128  20.400  0.00  0.00    +0.000 A 
ATOM     11  C   UNL     1       1.216   7.955  21.067  0.00  0.00    +0.000 A 
BRANCH   9  12
ATOM     12  C   UNL     1      -0.547  10.389  22.115  0.00  0.00    +0.000 C 
BRANCH  12  13
ATOM     13  C   UNL     1      -0.928  11.842  22.407  0.00  0.00    +0.000 C 
BRANCH  13  14
ATOM     14  N   UNL     1      -2.378  12.125  22.313  0.00  0.00    +0.000 NA
ATOM     15  C   UNL     1      -2.559  13.447  21.697  0.00  0.00    +0.000 C 
ATOM     16  C   UNL     1      -2.535  14.379  22.884  0.00  0.00    +0.000 C 
ATOM     17  C   UNL     1      -3.263  13.680  23.977  0.00  0.00    +0.000 C 
ATOM     18  C   UNL     1      -3.070  12.219  23.620  0.00  0.00    +0.000 C 
ENDBRANCH  13  14
ENDBRANCH  12  13
ENDBRANCH   9  12
ENDBRANCH   1   3
BRANCH   1  19
ATOM     19  S   UNL     1       2.351   4.383  20.226  0.00  0.00    +0.000 S 
ATOM     20  O   UNL     1       1.068   4.242  19.614  0.00  0.00    +0.000 OA
ATOM     21  O   UNL     1       2.842   3.377  21.176  0.00  0.00    +0.000 OA
BRANCH  19  24
ATOM     22  C   UNL     1       2.214   3.484  16.874  0.00  0.00    +0.000 C 
ATOM     23  C   UNL     1       3.448   4.012  17.532  0.00  0.00    +0.000 A 
ATOM     24  C   UNL     1       3.540   4.390  18.868  0.00  0.00    +0.000 A 
ATOM     25  S   UNL     1       5.106   4.946  19.261  0.00  0.00    +0.000 S 
ATOM     26  C   UNL     1       5.727   4.586  17.698  0.00  0.00    +0.000 A 
ATOM     27  C   UNL     1       7.048   4.807  17.241  0.00  0.00    +0.000 A 
ATOM     28  C   UNL     1       7.334   4.647  15.878  0.00  0.00    +0.000 A 
ATOM     29  C   UNL     1       6.354   4.188  15.013  0.00  0.00    +0.000 A 
ATOM     30 CL   UNL     1       6.704   4.050  13.332  0.00  0.00    +0.000 Cl
ATOM     31  C   UNL     1       5.059   3.927  15.477  0.00  0.00    +0.000 A 
ATOM     32  C   UNL     1       4.717   4.147  16.840  0.00  0.00    +0.000 A 
ENDBRANCH  19  24
ENDBRANCH   1  19
TORSDOF 6
ENDMDL
MODEL 2
REMARK VINA RESULT:      -8.3      4.595      9.946
REMARK  Name = 
REMARK  7 active torsions:
REMARK  status: ('A' for Active; 'I' for Inactive)
REMARK    1  A    between atoms: C_1  and  C_2
REMARK    2  A    between atoms: C_3  and  S_4
REMARK    3  A    between atoms: S_4  and  N_7
REMARK    4  A    between atoms: N_7  and  C_8
REMARK    5  A    between atoms: N_14  and  C_15
REMARK    6  A    between atoms: C_15  and  C_16
REMARK    7  A    between atoms: C_16  and  N_17
REMARK                            x       y       z     vdW  Elec       q    Type
REMARK                         _______ _______ _______ _____ _____    ______ ____
ROOT
ATOM      1  N   UNL     1       0.563   9.172  20.445  0.00  0.00    +0.000 N 
ATOM      2  H   UNL     1      -0.363   8.757  20.491  0.00  0.00    +0.000 HD
ENDROOT
BRANCH   1   3
ATOM      3  C   UNL     1       1.486   8.564  19.549  0.00  0.00    +0.000 A 
ATOM      4  C   UNL     1       1.756   9.165  18.324  0.00  0.00    +0.000 A 
ATOM      5  C   UNL     1       2.661   8.579  17.428  0.00  0.00    +0.000 A 
ATOM      6  C   UNL     1       3.276   7.356  17.752  0.00  0.00    +0.000 A 
ATOM      7  C   UNL     1       4.211   6.536  17.091  0.00  0.00    +0.000 A 
ATOM      8  C   UNL     1       4.466   5.445  17.900  0.00  0.00    +0.000 A 
ATOM      9  N   UNL     1       3.707   5.580  19.032  0.00  0.00    +0.000 N 
ATOM     10  C   UNL     1       2.979   6.761  18.988  0.00  0.00    +0.000 A 
ATOM     11  C   UNL     1       2.094   7.357  19.901  0.00  0.00    +0.000 A 
BRANCH   9  12
ATOM     12  C   UNL     1       3.721   4.632  20.142  0.00  0.00    +0.000 C 
BRANCH  12  13
ATOM     13  C   UNL     1       4.323   3.279  19.756  0.00  0.00    +0.000 C 
BRANCH  13  14
ATOM     14  N   UNL     1       3.350   2.164  19.722  0.00  0.00    +0.000 NA
ATOM     15  C   UNL     1       3.394   1.543  18.391  0.00  0.00    +0.000 C 
ATOM     16  C   UNL     1       2.383   2.345  17.610  0.00  0.00    +0.000 C 
ATOM     17  C   UNL     1       1.258   2.621  18.545  0.00  0.00    +0.000 C 
ATOM     18  C   UNL     1       1.938   2.577  19.899  0.00  0.00    +0.000 C 
ENDBRANCH  13  14
ENDBRANCH  12  13
ENDBRANCH   9  12
ENDBRANCH   1   3
BRANCH   1  19
ATOM     19  S   UNL     1       0.479  10.857  20.497  0.00  0.00    +0.000 S 
ATOM     20  O   UNL     1       1.327  11.427  19.498  0.00  0.00    +0.000 OA
ATOM     21  O   UNL     1       0.649  11.208  21.912  0.00  0.00    +0.000 OA
BRANCH  19  24
ATOM     22  C   UNL     1      -1.651  10.213  17.831  0.00  0.00    +0.000 C 
ATOM     23  C   UNL     1      -2.017  11.100  18.977  0.00  0.00    +0.000 A 
ATOM     24  C   UNL     1      -1.195  11.374  20.067  0.00  0.00    +0.000 A 
ATOM     25  S   UNL     1      -1.952  12.425  21.179  0.00  0.00    +0.000 S 
ATOM     26  C   UNL     1      -3.339  12.633  20.183  0.00  0.00    +0.000 A 
ATOM     27  C   UNL     1      -4.483  13.412  20.476  0.00  0.00    +0.000 A 
ATOM     28  C   UNL     1      -5.610  13.309  19.648  0.00  0.00    +0.000 A 
ATOM     29  C   UNL     1      -5.564  12.523  18.509  0.00  0.00    +0.000 A 
ATOM     30 CL   UNL     1      -6.974  12.360  17.533  0.00  0.00    +0.000 Cl
ATOM     31  C   UNL     1      -4.414  11.787  18.197  0.00  0.00    +0.000 A 
ATOM     32  C   UNL     1      -3.279  11.813  19.054  0.00  0.00    +0.000 A 
ENDBRANCH  19  24
ENDBRANCH   1  19
TORSDOF 6
ENDMDL
MODEL 3
REMARK VINA RESULT:      -8.2      4.685     10.333
REMARK  Name = 
REMARK  7 active torsions:
REMARK  status: ('A' for Active; 'I' for Inactive)
REMARK    1  A    between atoms: C_1  and  C_2
REMARK    2  A    between atoms: C_3  and  S_4
REMARK    3  A    between atoms: S_4  and  N_7
REMARK    4  A    between atoms: N_7  and  C_8
REMARK    5  A    between atoms: N_14  and  C_15
REMARK    6  A    between atoms: C_15  and  C_16
REMARK    7  A    between atoms: C_16  and  N_17
REMARK                            x       y       z     vdW  Elec       q    Type
REMARK                         _______ _______ _______ _____ _____    ______ ____
ROOT
ATOM      1  N   UNL     1      -0.168   9.195  21.003  0.00  0.00    +0.000 N 
ATOM      2  H   UNL     1      -1.143   9.127  20.728  0.00  0.00    +0.000 HD
ENDROOT
BRANCH   1   3
ATOM      3  C   UNL     1       0.795   8.831  20.021  0.00  0.00    +0.000 A 
ATOM      4  C   UNL     1       0.960   9.625  18.891  0.00  0.00    +0.000 A 
ATOM      5  C   UNL     1       1.902   9.281  17.912  0.00  0.00    +0.000 A 
ATOM      6  C   UNL     1       2.663   8.106  18.052  0.00  0.00    +0.000 A 
ATOM      7  C   UNL     1       3.669   7.503  17.272  0.00  0.00    +0.000 A 
ATOM      8  C   UNL     1       4.070   6.347  17.915  0.00  0.00    +0.000 A 
ATOM      9  N   UNL     1       3.332   6.232  19.063  0.00  0.00    +0.000 N 
ATOM     10  C   UNL     1       2.471   7.313  19.195  0.00  0.00    +0.000 A 
ATOM     11  C   UNL     1       1.548   7.667  20.192  0.00  0.00    +0.000 A 
BRANCH   9  12
ATOM     12  C   UNL     1       3.485   5.147  20.027  0.00  0.00    +0.000 C 
BRANCH  12  13
ATOM     13  C   UNL     1       4.018   3.862  19.390  0.00  0.00    +0.000 C 
BRANCH  13  14
ATOM     14  N   UNL     1       3.286   2.636  19.781  0.00  0.00    +0.000 NA
ATOM     15  C   UNL     1       2.757   1.998  18.567  0.00  0.00    +0.000 C 
ATOM     16  C   UNL     1       1.409   2.656  18.400  0.00  0.00    +0.000 C 
ATOM     17  C   UNL     1       0.848   2.812  19.770  0.00  0.00    +0.000 C 
ATOM     18  C   UNL     1       2.095   2.878  20.630  0.00  0.00    +0.000 C 
ENDBRANCH  13  14
ENDBRANCH  12  13
ENDBRANCH   9  12
ENDBRANCH   1   3
BRANCH   1  19
ATOM     19  S   UNL     1       0.108  10.577  21.932  0.00  0.00    +0.000 S 
ATOM     20  O   UNL     1       1.164  11.354  21.363  0.00  0.00    +0.000 OA
ATOM     21  O   UNL     1       0.193  10.100  23.318  0.00  0.00    +0.000 OA
BRANCH  19  24
ATOM     22  C   UNL     1      -1.556  12.274  19.399  0.00  0.00    +0.000 C 
ATOM     23  C   UNL     1      -1.992  12.301  20.828  0.00  0.00    +0.000 A 
ATOM     24  C   UNL     1      -1.358  11.628  21.869  0.00  0.00    +0.000 A 
ATOM     25  S   UNL     1      -2.142  11.891  23.362  0.00  0.00    +0.000 S 
ATOM     26  C   UNL     1      -3.269  12.998  22.682  0.00  0.00    +0.000 A 
ATOM     27  C   UNL     1      -4.316  13.665  23.360  0.00  0.00    +0.000 A 
ATOM     28  C   UNL     1      -5.269  14.374  22.616  0.00  0.00    +0.000 A 
ATOM     29  C   UNL     1      -5.130  14.492  21.243  0.00  0.00    +0.000 A 
ATOM     30 CL   UNL     1      -6.339  15.318  20.336  0.00  0.00    +0.000 Cl
ATOM     31  C   UNL     1      -4.067  13.868  20.579  0.00  0.00    +0.000 A 
ATOM     32  C   UNL     1      -3.122  13.082  21.295  0.00  0.00    +0.000 A 
ENDBRANCH  19  24
ENDBRANCH   1  19
TORSDOF 6
ENDMDL
MODEL 4
REMARK VINA RESULT:      -8.1      4.933     10.245
REMARK  Name = 
REMARK  7 active torsions:
REMARK  status: ('A' for Active; 'I' for Inactive)
REMARK    1  A    between atoms: C_1  and  C_2
REMARK    2  A    between atoms: C_3  and  S_4
REMARK    3  A    between atoms: S_4  and  N_7
REMARK    4  A    between atoms: N_7  and  C_8
REMARK    5  A    between atoms: N_14  and  C_15
REMARK    6  A    between atoms: C_15  and  C_16
REMARK    7  A    between atoms: C_16  and  N_17
REMARK                            x       y       z     vdW  Elec       q    Type
REMARK                         _______ _______ _______ _____ _____    ______ ____
ROOT
ATOM      1  N   UNL     1       1.388  10.610  18.092  0.00  0.00    +0.000 N 
ATOM      2  H   UNL     1       2.149  10.874  17.473  0.00  0.00    +0.000 HD
ENDROOT
BRANCH   1   3
ATOM      3  C   UNL     1       1.539   9.383  18.796  0.00  0.00    +0.000 A 
ATOM      4  C   UNL     1       0.951   9.229  20.047  0.00  0.00    +0.000 A 
ATOM      5  C   UNL     1       1.092   8.029  20.756  0.00  0.00    +0.000 A 
ATOM      6  C   UNL     1       1.861   6.981  20.217  0.00  0.00    +0.000 A 
ATOM      7  C   UNL     1       2.180   5.683  20.662  0.00  0.00    +0.000 A 
ATOM      8  C   UNL     1       2.975   5.089  19.702  0.00  0.00    +0.000 A 
ATOM      9  N   UNL     1       3.150   5.992  18.688  0.00  0.00    +0.000 N 
ATOM     10  C   UNL     1       2.455   7.163  18.959  0.00  0.00    +0.000 A 
ATOM     11  C   UNL     1       2.296   8.354  18.231  0.00  0.00    +0.000 A 
BRANCH   9  12
ATOM     12  C   UNL     1       3.916   5.721  17.476  0.00  0.00    +0.000 C 
BRANCH  12  13
ATOM     13  C   UNL     1       5.129   4.823  17.731  0.00  0.00    +0.000 C 
BRANCH  13  14
ATOM     14  N   UNL     1       6.363   5.250  17.033  0.00  0.00    +0.000 NA
ATOM     15  C   UNL     1       7.518   4.640  17.707  0.00  0.00    +0.000 C 
ATOM     16  C   UNL     1       7.863   5.654  18.769  0.00  0.00    +0.000 C 
ATOM     17  C   UNL     1       7.662   6.992  18.150  0.00  0.00    +0.000 C 
ATOM     18  C   UNL     1       6.623   6.708  17.083  0.00  0.00    +0.000 C 
ENDBRANCH  13  14
ENDBRANCH  12  13
ENDBRANCH   9  12
ENDBRANCH   1   3
BRANCH   1  19
ATOM     19  S   UNL     1       0.787  11.950  18.924  0.00  0.00    +0.000 S 
ATOM     20  O   UNL     1       1.155  13.157  18.253  0.00  0.00    +0.000 OA
ATOM     21  O   UNL     1       1.158  11.730  20.327  0.00  0.00    +0.000 OA
BRANCH  19  24
ATOM     22  C   UNL     1      -1.722  13.446  20.804  0.00  0.00    +0.000 C 
ATOM     23  C   UNL     1      -1.994  12.514  19.667  0.00  0.00    +0.000 A 
ATOM     24  C   UNL     1      -1.017  11.903  18.886  0.00  0.00    +0.000 A 
ATOM     25  S   UNL     1      -1.704  10.909  17.680  0.00  0.00    +0.000 S 
ATOM     26  C   UNL     1      -3.307  11.174  18.243  0.00  0.00    +0.000 A 
ATOM     27  C   UNL     1      -4.497  10.648  17.687  0.00  0.00    +0.000 A 
ATOM     28  C   UNL     1      -5.733  11.128  18.142  0.00  0.00    +0.000 A 
ATOM     29  C   UNL     1      -5.783  12.036  19.186  0.00  0.00    +0.000 A 
ATOM     30 CL   UNL     1      -7.306  12.660  19.697  0.00  0.00    +0.000 Cl
ATOM     31  C   UNL     1      -4.604  12.522  19.765  0.00  0.00    +0.000 A 
ATOM     32  C   UNL     1      -3.332  12.110  19.279  0.00  0.00    +0.000 A 
ENDBRANCH  19  24
ENDBRANCH   1  19
TORSDOF 6
ENDMDL
MODEL 5
REMARK VINA RESULT:      -8.1      4.687      9.606
REMARK  Name = 
REMARK  7 active torsions:
REMARK  status: ('A' for Active; 'I' for Inactive)
REMARK    1  A    between atoms: C_1  and  C_2
REMARK    2  A    between atoms: C_3  and  S_4
REMARK    3  A    between atoms: S_4  and  N_7
REMARK    4  A    between atoms: N_7  and  C_8
REMARK    5  A    between atoms: N_14  and  C_15
REMARK    6  A    between atoms: C_15  and  C_16
REMARK    7  A    between atoms: C_16  and  N_17
REMARK                            x       y       z     vdW  Elec       q    Type
REMARK                         _______ _______ _______ _____ _____    ______ ____
ROOT
ATOM      1  N   UNL     1      -0.178   9.577  20.430  0.00  0.00    +0.000 N 
ATOM      2  H   UNL     1      -1.044   9.819  19.958  0.00  0.00    +0.000 HD
ENDROOT
BRANCH   1   3
ATOM      3  C   UNL     1       0.851   9.017  19.622  0.00  0.00    +0.000 A 
ATOM      4  C   UNL     1       1.281   9.696  18.487  0.00  0.00    +0.000 A 
ATOM      5  C   UNL     1       2.291   9.158  17.677  0.00  0.00    +0.000 A 
ATOM      6  C   UNL     1       2.851   7.907  17.993  0.00  0.00    +0.000 A 
ATOM      7  C   UNL     1       3.860   7.119  17.404  0.00  0.00    +0.000 A 
ATOM      8  C   UNL     1       4.000   5.973  18.161  0.00  0.00    +0.000 A 
ATOM      9  N   UNL     1       3.102   6.042  19.192  0.00  0.00    +0.000 N 
ATOM     10  C   UNL     1       2.393   7.234  19.136  0.00  0.00    +0.000 A 
ATOM     11  C   UNL     1       1.400   7.780  19.966  0.00  0.00    +0.000 A 
BRANCH   9  12
ATOM     12  C   UNL     1       2.966   5.021  20.226  0.00  0.00    +0.000 C 
BRANCH  12  13
ATOM     13  C   UNL     1       3.828   3.786  19.955  0.00  0.00    +0.000 C 
BRANCH  13  14
ATOM     14  N   UNL     1       3.086   2.505  19.977  0.00  0.00    +0.000 NA
ATOM     15  C   UNL     1       3.345   1.791  18.720  0.00  0.00    +0.000 C 
ATOM     16  C   UNL     1       2.263   2.311  17.806  0.00  0.00    +0.000 C 
ATOM     17  C   UNL     1       1.040   2.445  18.643  0.00  0.00    +0.000 C 
ATOM     18  C   UNL     1       1.612   2.652  20.032  0.00  0.00    +0.000 C 
ENDBRANCH  13  14
ENDBRANCH  12  13
ENDBRANCH   9  12
ENDBRANCH   1   3
BRANCH   1  19
ATOM     19  S   UNL     1       0.240  10.747  21.573  0.00  0.00    +0.000 S 
ATOM     20  O   UNL     1       1.553  10.498  22.080  0.00  0.00    +0.000 OA
ATOM     21  O   UNL     1      -0.910  10.828  22.481  0.00  0.00    +0.000 OA
BRANCH  19  24
ATOM     22  C   UNL     1      -2.085  12.840  20.064  0.00  0.00    +0.000 C 
ATOM     23  C   UNL     1      -0.628  13.163  20.155  0.00  0.00    +0.000 A 
ATOM     24  C   UNL     1       0.331  12.355  20.759  0.00  0.00    +0.000 A 
ATOM     25  S   UNL     1       1.888  13.052  20.672  0.00  0.00    +0.000 S 
ATOM     26  C   UNL     1       1.342  14.382  19.729  0.00  0.00    +0.000 A 
ATOM     27  C   UNL     1       2.125  15.462  19.255  0.00  0.00    +0.000 A 
ATOM     28  C   UNL     1       1.485  16.566  18.676  0.00  0.00    +0.000 A 
ATOM     29  C   UNL     1       0.112  16.554  18.489  0.00  0.00    +0.000 A 
ATOM     30 CL   UNL     1      -0.667  17.940  17.828  0.00  0.00    +0.000 Cl
ATOM     31  C   UNL     1      -0.655  15.464  18.918  0.00  0.00    +0.000 A 
ATOM     32  C   UNL     1      -0.045  14.358  19.574  0.00  0.00    +0.000 A 
ENDBRANCH  19  24
ENDBRANCH   1  19
TORSDOF 6
ENDMDL
MODEL 6
REMARK VINA RESULT:      -8.1      4.867     10.678
REMARK  Name = 
REMARK  7 active torsions:
REMARK  status: ('A' for Active; 'I' for Inactive)
REMARK    1  A    between atoms: C_1  and  C_2
REMARK    2  A    between atoms: C_3  and  S_4
REMARK    3  A    between atoms: S_4  and  N_7
REMARK    4  A    between atoms: N_7  and  C_8
REMARK    5  A    between atoms: N_14  and  C_15
REMARK    6  A    between atoms: C_15  and  C_16
REMARK    7  A    between atoms: C_16  and  N_17
REMARK                            x       y       z     vdW  Elec       q    Type
REMARK                         _______ _______ _______ _____ _____    ______ ____
ROOT
ATOM      1  N   UNL     1       0.402  10.549  19.086  0.00  0.00    +0.000 N 
ATOM      2  H   UNL     1       0.529  10.881  18.135  0.00  0.00    +0.000 HD
ENDROOT
BRANCH   1   3
ATOM      3  C   UNL     1       0.995   9.296  19.406  0.00  0.00    +0.000 A 
ATOM      4  C   UNL     1       0.644   8.647  20.585  0.00  0.00    +0.000 A 
ATOM      5  C   UNL     1       1.220   7.414  20.917  0.00  0.00    +0.000 A 
ATOM      6  C   UNL     1       2.188   6.841  20.072  0.00  0.00    +0.000 A 
ATOM      7  C   UNL     1       2.928   5.643  20.117  0.00  0.00    +0.000 A 
ATOM      8  C   UNL     1       3.734   5.600  18.995  0.00  0.00    +0.000 A 
ATOM      9  N   UNL     1       3.505   6.741  18.273  0.00  0.00    +0.000 N 
ATOM     10  C   UNL     1       2.537   7.519  18.894  0.00  0.00    +0.000 A 
ATOM     11  C   UNL     1       1.943   8.743  18.542  0.00  0.00    +0.000 A 
BRANCH   9  12
ATOM     12  C   UNL     1       4.155   7.048  17.004  0.00  0.00    +0.000 C 
BRANCH  12  13
ATOM     13  C   UNL     1       4.953   5.867  16.447  0.00  0.00    +0.000 C 
BRANCH  13  14
ATOM     14  N   UNL     1       6.406   6.116  16.318  0.00  0.00    +0.000 NA
ATOM     15  C   UNL     1       7.123   4.858  16.570  0.00  0.00    +0.000 C 
ATOM     16  C   UNL     1       7.331   4.881  18.064  0.00  0.00    +0.000 C 
ATOM     17  C   UNL     1       7.639   6.292  18.421  0.00  0.00    +0.000 C 
ATOM     18  C   UNL     1       6.954   7.069  17.312  0.00  0.00    +0.000 C 
ENDBRANCH  13  14
ENDBRANCH  12  13
ENDBRANCH   9  12
ENDBRANCH   1   3
BRANCH   1  19
ATOM     19  S   UNL     1       0.538  11.814  20.196  0.00  0.00    +0.000 S 
ATOM     20  O   UNL     1       0.864  13.031  19.523  0.00  0.00    +0.000 OA
ATOM     21  O   UNL     1       1.399  11.296  21.266  0.00  0.00    +0.000 OA
BRANCH  19  24
ATOM     22  C   UNL     1      -2.689  12.232  18.982  0.00  0.00    +0.000 C 
ATOM     23  C   UNL     1      -2.349  12.269  20.437  0.00  0.00    +0.000 A 
ATOM     24  C   UNL     1      -1.071  12.097  20.962  0.00  0.00    +0.000 A 
ATOM     25  S   UNL     1      -1.069  12.201  22.666  0.00  0.00    +0.000 S 
ATOM     26  C   UNL     1      -2.742  12.594  22.738  0.00  0.00    +0.000 A 
ATOM     27  C   UNL     1      -3.509  12.825  23.904  0.00  0.00    +0.000 A 
ATOM     28  C   UNL     1      -4.902  12.931  23.796  0.00  0.00    +0.000 A 
ATOM     29  C   UNL     1      -5.505  12.902  22.549  0.00  0.00    +0.000 A 
ATOM     30 CL   UNL     1      -7.222  12.977  22.435  0.00  0.00    +0.000 Cl
ATOM     31  C   UNL     1      -4.739  12.718  21.391  0.00  0.00    +0.000 A 
ATOM     32  C   UNL     1      -3.331  12.535  21.473  0.00  0.00    +0.000 A 
ENDBRANCH  19  24
ENDBRANCH   1  19
TORSDOF 6
ENDMDL
MODEL 7
REMARK VINA RESULT:      -8.0      4.199      9.897
REMARK  Name = 
REMARK  7 active torsions:
REMARK  status: ('A' for Active; 'I' for Inactive)
REMARK    1  A    between atoms: C_1  and  C_2
REMARK    2  A    between atoms: C_3  and  S_4
REMARK    3  A    between atoms: S_4  and  N_7
REMARK    4  A    between atoms: N_7  and  C_8
REMARK    5  A    between atoms: N_14  and  C_15
REMARK    6  A    between atoms: C_15  and  C_16
REMARK    7  A    between atoms: C_16  and  N_17
REMARK                            x       y       z     vdW  Elec       q    Type
REMARK                         _______ _______ _______ _____ _____    ______ ____
ROOT
ATOM      1  N   UNL     1       2.513   8.566  19.206  0.00  0.00    +0.000 N 
ATOM      2  H   UNL     1       2.595   8.937  20.148  0.00  0.00    +0.000 HD
ENDROOT
BRANCH   1   3
ATOM      3  C   UNL     1       2.557   7.149  19.077  0.00  0.00    +0.000 A 
ATOM      4  C   UNL     1       1.840   6.354  19.966  0.00  0.00    +0.000 A 
ATOM      5  C   UNL     1       1.874   4.957  19.856  0.00  0.00    +0.000 A 
ATOM      6  C   UNL     1       2.665   4.350  18.863  0.00  0.00    +0.000 A 
ATOM      7  C   UNL     1       2.900   3.011  18.494  0.00  0.00    +0.000 A 
ATOM      8  C   UNL     1       3.772   3.013  17.423  0.00  0.00    +0.000 A 
ATOM      9  N   UNL     1       4.075   4.317  17.134  0.00  0.00    +0.000 N 
ATOM     10  C   UNL     1       3.390   5.172  17.985  0.00  0.00    +0.000 A 
ATOM     11  C   UNL     1       3.339   6.573  18.074  0.00  0.00    +0.000 A 
BRANCH   9  12
ATOM     12  C   UNL     1       4.953   4.729  16.043  0.00  0.00    +0.000 C 
BRANCH  12  13
ATOM     13  C   UNL     1       5.599   6.095  16.287  0.00  0.00    +0.000 C 
BRANCH  13  14
ATOM     14  N   UNL     1       7.070   6.056  16.447  0.00  0.00    +0.000 NA
ATOM     15  C   UNL     1       7.435   4.807  17.131  0.00  0.00    +0.000 C 
ATOM     16  C   UNL     1       7.365   5.187  18.589  0.00  0.00    +0.000 C 
ATOM     17  C   UNL     1       7.904   6.571  18.686  0.00  0.00    +0.000 C 
ATOM     18  C   UNL     1       7.621   7.131  17.305  0.00  0.00    +0.000 C 
ENDBRANCH  13  14
ENDBRANCH  12  13
ENDBRANCH   9  12
ENDBRANCH   1   3
BRANCH   1  19
ATOM     19  S   UNL     1       1.367   9.423  18.310  0.00  0.00    +0.000 S 
ATOM     20  O   UNL     1       0.563   8.524  17.545  0.00  0.00    +0.000 OA
ATOM     21  O   UNL     1       2.118  10.500  17.654  0.00  0.00    +0.000 OA
BRANCH  19  24
ATOM     22  C   UNL     1      -1.268  11.652  17.920  0.00  0.00    +0.000 C 
ATOM     23  C   UNL     1      -0.814  11.144  19.251  0.00  0.00    +0.000 A 
ATOM     24  C   UNL     1       0.231  10.245  19.447  0.00  0.00    +0.000 A 
ATOM     25  S   UNL     1       0.459   9.893  21.102  0.00  0.00    +0.000 S 
ATOM     26  C   UNL     1      -0.744  11.016  21.602  0.00  0.00    +0.000 A 
ATOM     27  C   UNL     1      -1.153  11.282  22.930  0.00  0.00    +0.000 A 
ATOM     28  C   UNL     1      -2.288  12.075  23.148  0.00  0.00    +0.000 A 
ATOM     29  C   UNL     1      -2.940  12.664  22.077  0.00  0.00    +0.000 A 
ATOM     30 CL   UNL     1      -4.365  13.590  22.356  0.00  0.00    +0.000 Cl
ATOM     31  C   UNL     1      -2.505  12.435  20.766  0.00  0.00    +0.000 A 
ATOM     32  C   UNL     1      -1.400  11.577  20.505  0.00  0.00    +0.000 A 
ENDBRANCH  19  24
ENDBRANCH   1  19
TORSDOF 6
ENDMDL
MODEL 8
REMARK VINA RESULT:      -8.0      4.937     10.761
REMARK  Name = 
REMARK  7 active torsions:
REMARK  status: ('A' for Active; 'I' for Inactive)
REMARK    1  A    between atoms: C_1  and  C_2
REMARK    2  A    between atoms: C_3  and  S_4
REMARK    3  A    between atoms: S_4  and  N_7
REMARK    4  A    between atoms: N_7  and  C_8
REMARK    5  A    between atoms: N_14  and  C_15
REMARK    6  A    between atoms: C_15  and  C_16
REMARK    7  A    between atoms: C_16  and  N_17
REMARK                            x       y       z     vdW  Elec       q    Type
REMARK                         _______ _______ _______ _____ _____    ______ ____
ROOT
ATOM      1  N   UNL     1       0.686  11.211  19.460  0.00  0.00    +0.000 N 
ATOM      2  H   UNL     1       0.971  11.909  20.140  0.00  0.00    +0.000 HD
ENDROOT
BRANCH   1   3
ATOM      3  C   UNL     1       0.971   9.855  19.786  0.00  0.00    +0.000 A 
ATOM      4  C   UNL     1       0.410   9.287  20.926  0.00  0.00    +0.000 A 
ATOM      5  C   UNL     1       0.681   7.955  21.264  0.00  0.00    +0.000 A 
ATOM      6  C   UNL     1       1.556   7.193  20.467  0.00  0.00    +0.000 A 
ATOM      7  C   UNL     1       2.014   5.862  20.530  0.00  0.00    +0.000 A 
ATOM      8  C   UNL     1       2.865   5.656  19.461  0.00  0.00    +0.000 A 
ATOM      9  N   UNL     1       2.937   6.826  18.753  0.00  0.00    +0.000 N 
ATOM     10  C   UNL     1       2.122   7.790  19.330  0.00  0.00    +0.000 A 
ATOM     11  C   UNL     1       1.832   9.117  18.971  0.00  0.00    +0.000 A 
BRANCH   9  12
ATOM     12  C   UNL     1       3.721   6.996  17.535  0.00  0.00    +0.000 C 
BRANCH  12  13
ATOM     13  C   UNL     1       4.463   5.721  17.126  0.00  0.00    +0.000 C 
BRANCH  13  14
ATOM     14  N   UNL     1       5.812   5.953  16.562  0.00  0.00    +0.000 NA
ATOM     15  C   UNL     1       6.643   4.770  16.829  0.00  0.00    +0.000 C 
ATOM     16  C   UNL     1       7.241   5.076  18.179  0.00  0.00    +0.000 C 
ATOM     17  C   UNL     1       7.550   6.531  18.179  0.00  0.00    +0.000 C 
ATOM     18  C   UNL     1       6.550   7.080  17.180  0.00  0.00    +0.000 C 
ENDBRANCH  13  14
ENDBRANCH  12  13
ENDBRANCH   9  12
ENDBRANCH   1   3
BRANCH   1  19
ATOM     19  S   UNL     1      -0.822  11.582  18.799  0.00  0.00    +0.000 S 
ATOM     20  O   UNL     1      -1.418  10.412  18.237  0.00  0.00    +0.000 OA
ATOM     21  O   UNL     1      -0.599  12.777  17.978  0.00  0.00    +0.000 OA
BRANCH  19  24
ATOM     22  C   UNL     1      -4.248  12.097  19.038  0.00  0.00    +0.000 C 
ATOM     23  C   UNL     1      -3.306  12.307  20.179  0.00  0.00    +0.000 A 
ATOM     24  C   UNL     1      -1.930  12.103  20.125  0.00  0.00    +0.000 A 
ATOM     25  S   UNL     1      -1.182  12.442  21.621  0.00  0.00    +0.000 S 
ATOM     26  C   UNL     1      -2.650  12.980  22.339  0.00  0.00    +0.000 A 
ATOM     27  C   UNL     1      -2.826  13.435  23.667  0.00  0.00    +0.000 A 
ATOM     28  C   UNL     1      -4.125  13.642  24.152  0.00  0.00    +0.000 A 
ATOM     29  C   UNL     1      -5.212  13.490  23.307  0.00  0.00    +0.000 A 
ATOM     30 CL   UNL     1      -6.805  13.693  23.931  0.00  0.00    +0.000 Cl
ATOM     31  C   UNL     1      -5.032  13.083  21.980  0.00  0.00    +0.000 A 
ATOM     32  C   UNL     1      -3.733  12.796  21.477  0.00  0.00    +0.000 A 
ENDBRANCH  19  24
ENDBRANCH   1  19
TORSDOF 6
ENDMDL
MODEL 9
REMARK VINA RESULT:      -7.9      4.271      9.454
REMARK  Name = 
REMARK  7 active torsions:
REMARK  status: ('A' for Active; 'I' for Inactive)
REMARK    1  A    between atoms: C_1  and  C_2
REMARK    2  A    between atoms: C_3  and  S_4
REMARK    3  A    between atoms: S_4  and  N_7
REMARK    4  A    between atoms: N_7  and  C_8
REMARK    5  A    between atoms: N_14  and  C_15
REMARK    6  A    between atoms: C_15  and  C_16
REMARK    7  A    between atoms: C_16  and  N_17
REMARK                            x       y       z     vdW  Elec       q    Type
REMARK                         _______ _______ _______ _____ _____    ______ ____
ROOT
ATOM      1  N   UNL     1       2.165   8.039  18.903  0.00  0.00    +0.000 N 
ATOM      2  H   UNL     1       1.548   7.502  19.506  0.00  0.00    +0.000 HD
ENDROOT
BRANCH   1   3
ATOM      3  C   UNL     1       3.073   7.294  18.101  0.00  0.00    +0.000 A 
ATOM      4  C   UNL     1       3.950   7.962  17.252  0.00  0.00    +0.000 A 
ATOM      5  C   UNL     1       4.850   7.244  16.452  0.00  0.00    +0.000 A 
ATOM      6  C   UNL     1       4.846   5.837  16.479  0.00  0.00    +0.000 A 
ATOM      7  C   UNL     1       5.608   4.852  15.822  0.00  0.00    +0.000 A 
ATOM      8  C   UNL     1       5.164   3.616  16.250  0.00  0.00    +0.000 A 
ATOM      9  N   UNL     1       4.151   3.825  17.148  0.00  0.00    +0.000 N 
ATOM     10  C   UNL     1       3.944   5.185  17.334  0.00  0.00    +0.000 A 
ATOM     11  C   UNL     1       3.058   5.899  18.158  0.00  0.00    +0.000 A 
BRANCH   9  12
ATOM     12  C   UNL     1       3.441   2.755  17.841  0.00  0.00    +0.000 C 
BRANCH  12  13
ATOM     13  C   UNL     1       3.863   2.619  19.306  0.00  0.00    +0.000 C 
BRANCH  13  14
ATOM     14  N   UNL     1       2.786   2.163  20.213  0.00  0.00    +0.000 NA
ATOM     15  C   UNL     1       1.557   1.980  19.428  0.00  0.00    +0.000 C 
ATOM     16  C   UNL     1       0.916   3.346  19.481  0.00  0.00    +0.000 C 
ATOM     17  C   UNL     1       1.154   3.865  20.855  0.00  0.00    +0.000 C 
ATOM     18  C   UNL     1       2.419   3.138  21.267  0.00  0.00    +0.000 C 
ENDBRANCH  13  14
ENDBRANCH  12  13
ENDBRANCH   9  12
ENDBRANCH   1   3
BRANCH   1  19
ATOM     19  S   UNL     1       1.351   9.342  18.204  0.00  0.00    +0.000 S 
ATOM     20  O   UNL     1       0.465   8.882  17.182  0.00  0.00    +0.000 OA
ATOM     21  O   UNL     1       2.392  10.331  17.903  0.00  0.00    +0.000 OA
BRANCH  19  24
ATOM     22  C   UNL     1      -0.991  11.907  18.156  0.00  0.00    +0.000 C 
ATOM     23  C   UNL     1      -0.629  11.150  19.393  0.00  0.00    +0.000 A 
ATOM     24  C   UNL     1       0.296  10.111  19.450  0.00  0.00    +0.000 A 
ATOM     25  S   UNL     1       0.446   9.485  21.032  0.00  0.00    +0.000 S 
ATOM     26  C   UNL     1      -0.625  10.655  21.697  0.00  0.00    +0.000 A 
ATOM     27  C   UNL     1      -1.029  10.762  23.048  0.00  0.00    +0.000 A 
ATOM     28  C   UNL     1      -2.065  11.644  23.384  0.00  0.00    +0.000 A 
ATOM     29  C   UNL     1      -2.619  12.465  22.415  0.00  0.00    +0.000 A 
ATOM     30 CL   UNL     1      -3.930  13.502  22.830  0.00  0.00    +0.000 Cl
ATOM     31  C   UNL     1      -2.187  12.389  21.085  0.00  0.00    +0.000 A 
ATOM     32  C   UNL     1      -1.187  11.454  20.698  0.00  0.00    +0.000 A 
ENDBRANCH  19  24
ENDBRANCH   1  19
TORSDOF 6
ENDMDL
