MODEL 1
REMARK VINA RESULT:      -7.7      0.000      0.000
REMARK  Name = 
REMARK  10 active torsions:
REMARK  status: ('A' for Active; 'I' for Inactive)
REMARK    1  A    between atoms: C_1  and  C_2
REMARK    2  A    between atoms: C_2  and  N_3
REMARK    3  A    between atoms: N_3  and  C_4
REMARK    4  A    between atoms: N_3  and  S_6
REMARK    5  A    between atoms: C_4  and  C_5
REMARK    6  A    between atoms: S_6  and  C_9
REMARK    7  A    between atoms: C_13  and  N_14
REMARK    8  A    between atoms: C_15  and  C_17
REMARK    9  A    between atoms: C_19  and  C_20
REMARK   10  A    between atoms: N_26  and  C_27
REMARK                            x       y       z     vdW  Elec       q    Type
REMARK                         _______ _______ _______ _____ _____    ______ ____
ROOT
ATOM      1  N   UNL     1       1.547   8.564  17.829  0.00  0.00    +0.000 N 
ATOM      2  C   UNL     1       2.155   7.639  18.671  0.00  0.00    +0.000 C 
ATOM      3  O   UNL     1       1.983   7.600  19.882  0.00  0.00    +0.000 OA
ATOM      4  H   UNL     1       1.674   8.448  16.829  0.00  0.00    +0.000 HD
ENDROOT
BRANCH   1   9
ATOM      5  C   UNL     1       0.233  11.526  19.641  0.00  0.00    +0.000 A 
ATOM      6  C   UNL     1      -1.052  11.652  19.105  0.00  0.00    +0.000 A 
ATOM      7  C   UNL     1      -1.481  10.742  18.145  0.00  0.00    +0.000 A 
ATOM      8  C   UNL     1      -0.628   9.722  17.729  0.00  0.00    +0.000 A 
ATOM      9  C   UNL     1       0.669   9.593  18.247  0.00  0.00    +0.000 A 
ATOM     10  C   UNL     1       1.094  10.496  19.224  0.00  0.00    +0.000 A 
BRANCH   5  11
ATOM     11  S   UNL     1       0.711  12.570  21.003  0.00  0.00    +0.000 S 
ATOM     12  O   UNL     1       0.121  13.873  20.751  0.00  0.00    +0.000 OA
ATOM     13  O   UNL     1       2.139  12.418  21.198  0.00  0.00    +0.000 OA
BRANCH  11  14
ATOM     14  N   UNL     1      -0.070  11.888  22.385  0.00  0.00    +0.000 NA
BRANCH  14  16
ATOM     15  C   UNL     1      -2.551  12.284  22.692  0.00  0.00    +0.000 C 
ATOM     16  C   UNL     1      -1.136  12.771  22.953  0.00  0.00    +0.000 C 
ENDBRANCH  14  16
BRANCH  14  17
ATOM     17  C   UNL     1      -0.483  10.458  22.177  0.00  0.00    +0.000 C 
ATOM     18  C   UNL     1      -0.012   9.520  23.278  0.00  0.00    +0.000 C 
ENDBRANCH  14  17
ENDBRANCH  11  14
ENDBRANCH   5  11
ENDBRANCH   1   9
BRANCH   2  19
ATOM     19  C   UNL     1       3.018   6.687  18.019  0.00  0.00    +0.000 A 
ATOM     20  C   UNL     1       3.899   6.882  16.973  0.00  0.00    +0.000 A 
ATOM     21  C   UNL     1       4.649   5.696  16.877  0.00  0.00    +0.000 A 
ATOM     22  N   UNL     1       4.289   4.809  17.807  0.00  0.00    +0.000 NA
ATOM     23  N   UNL     1       3.232   5.380  18.452  0.00  0.00    +0.000 N 
BRANCH  23  24
ATOM     24  C   UNL     1       2.491   4.603  19.391  0.00  0.00    +0.000 A 
ATOM     25  C   UNL     1       1.335   3.930  18.969  0.00  0.00    +0.000 A 
ATOM     26  C   UNL     1       0.624   3.131  19.869  0.00  0.00    +0.000 A 
ATOM     27  C   UNL     1       1.041   3.023  21.196  0.00  0.00    +0.000 A 
ATOM     28  C   UNL     1       2.169   3.715  21.628  0.00  0.00    +0.000 A 
ATOM     29  C   UNL     1       2.889   4.508  20.732  0.00  0.00    +0.000 A 
ENDBRANCH  23  24
BRANCH  21  30
ATOM     30  C   UNL     1       5.747   5.430  15.895  0.00  0.00    +0.000 A 
ATOM     31  C   UNL     1       7.044   5.880  16.036  0.00  0.00    +0.000 A 
ATOM     32  C   UNL     1       7.869   5.485  14.943  0.00  0.00    +0.000 A 
ATOM     33  C   UNL     1       7.173   4.753  14.006  0.00  0.00    +0.000 A 
ATOM     34  S   UNL     1       5.544   4.516  14.465  0.00  0.00    +0.000 S 
ENDBRANCH  21  30
ENDBRANCH   2  19
TORSDOF 8
ENDMDL
MODEL 2
REMARK VINA RESULT:      -7.7      2.904      8.787
REMARK  Name = 
REMARK  10 active torsions:
REMARK  status: ('A' for Active; 'I' for Inactive)
REMARK    1  A    between atoms: C_1  and  C_2
REMARK    2  A    between atoms: C_2  and  N_3
REMARK    3  A    between atoms: N_3  and  C_4
REMARK    4  A    between atoms: N_3  and  S_6
REMARK    5  A    between atoms: C_4  and  C_5
REMARK    6  A    between atoms: S_6  and  C_9
REMARK    7  A    between atoms: C_13  and  N_14
REMARK    8  A    between atoms: C_15  and  C_17
REMARK    9  A    between atoms: C_19  and  C_20
REMARK   10  A    between atoms: N_26  and  C_27
REMARK                            x       y       z     vdW  Elec       q    Type
REMARK                         _______ _______ _______ _____ _____    ______ ____
ROOT
ATOM      1  N   UNL     1       1.883   9.042  19.365  0.00  0.00    +0.000 N 
ATOM      2  C   UNL     1       0.815   9.775  19.875  0.00  0.00    +0.000 C 
ATOM      3  O   UNL     1      -0.039   9.311  20.618  0.00  0.00    +0.000 OA
ATOM      4  H   UNL     1       2.593   9.543  18.843  0.00  0.00    +0.000 HD
ENDROOT
BRANCH   1   9
ATOM      5  C   UNL     1       3.351   5.641  19.117  0.00  0.00    +0.000 A 
ATOM      6  C   UNL     1       2.619   4.935  20.078  0.00  0.00    +0.000 A 
ATOM      7  C   UNL     1       1.631   5.594  20.801  0.00  0.00    +0.000 A 
ATOM      8  C   UNL     1       1.384   6.945  20.562  0.00  0.00    +0.000 A 
ATOM      9  C   UNL     1       2.120   7.669  19.613  0.00  0.00    +0.000 A 
ATOM     10  C   UNL     1       3.100   7.003  18.874  0.00  0.00    +0.000 A 
BRANCH   5  11
ATOM     11  S   UNL     1       4.479   4.755  18.062  0.00  0.00    +0.000 S 
ATOM     12  O   UNL     1       3.668   4.095  17.053  0.00  0.00    +0.000 OA
ATOM     13  O   UNL     1       5.381   4.002  18.909  0.00  0.00    +0.000 OA
BRANCH  11  14
ATOM     14  N   UNL     1       5.413   5.978  17.279  0.00  0.00    +0.000 NA
BRANCH  14  16
ATOM     15  C   UNL     1       7.499   7.372  17.620  0.00  0.00    +0.000 C 
ATOM     16  C   UNL     1       6.840   6.007  17.729  0.00  0.00    +0.000 C 
ENDBRANCH  14  16
BRANCH  14  17
ATOM     17  C   UNL     1       5.224   5.995  15.789  0.00  0.00    +0.000 C 
ATOM     18  C   UNL     1       6.187   5.085  15.041  0.00  0.00    +0.000 C 
ENDBRANCH  14  17
ENDBRANCH  11  14
ENDBRANCH   5  11
ENDBRANCH   1   9
BRANCH   2  19
ATOM     19  C   UNL     1       0.776  11.160  19.480  0.00  0.00    +0.000 A 
ATOM     20  C   UNL     1       1.723  12.148  19.668  0.00  0.00    +0.000 A 
ATOM     21  C   UNL     1       1.292  13.244  18.898  0.00  0.00    +0.000 A 
ATOM     22  N   UNL     1       0.158  12.972  18.248  0.00  0.00    +0.000 NA
ATOM     23  N   UNL     1      -0.205  11.729  18.670  0.00  0.00    +0.000 N 
BRANCH  23  24
ATOM     24  C   UNL     1      -1.484  11.217  18.299  0.00  0.00    +0.000 A 
ATOM     25  C   UNL     1      -2.642  11.815  18.814  0.00  0.00    +0.000 A 
ATOM     26  C   UNL     1      -3.902  11.350  18.425  0.00  0.00    +0.000 A 
ATOM     27  C   UNL     1      -4.013  10.271  17.548  0.00  0.00    +0.000 A 
ATOM     28  C   UNL     1      -2.866   9.652  17.059  0.00  0.00    +0.000 A 
ATOM     29  C   UNL     1      -1.605  10.118  17.437  0.00  0.00    +0.000 A 
ENDBRANCH  23  24
BRANCH  21  30
ATOM     30  C   UNL     1       2.001  14.555  18.767  0.00  0.00    +0.000 A 
ATOM     31  C   UNL     1       3.030  14.799  17.882  0.00  0.00    +0.000 A 
ATOM     32  C   UNL     1       3.521  16.134  17.985  0.00  0.00    +0.000 A 
ATOM     33  C   UNL     1       2.852  16.858  18.947  0.00  0.00    +0.000 A 
ATOM     34  S   UNL     1       1.618  15.941  19.692  0.00  0.00    +0.000 S 
ENDBRANCH  21  30
ENDBRANCH   2  19
TORSDOF 8
ENDMDL
MODEL 3
REMARK VINA RESULT:      -7.7      1.486      2.096
REMARK  Name = 
REMARK  10 active torsions:
REMARK  status: ('A' for Active; 'I' for Inactive)
REMARK    1  A    between atoms: C_1  and  C_2
REMARK    2  A    between atoms: C_2  and  N_3
REMARK    3  A    between atoms: N_3  and  C_4
REMARK    4  A    between atoms: N_3  and  S_6
REMARK    5  A    between atoms: C_4  and  C_5
REMARK    6  A    between atoms: S_6  and  C_9
REMARK    7  A    between atoms: C_13  and  N_14
REMARK    8  A    between atoms: C_15  and  C_17
REMARK    9  A    between atoms: C_19  and  C_20
REMARK   10  A    between atoms: N_26  and  C_27
REMARK                            x       y       z     vdW  Elec       q    Type
REMARK                         _______ _______ _______ _____ _____    ______ ____
ROOT
ATOM      1  N   UNL     1       1.811   8.585  17.778  0.00  0.00    +0.000 N 
ATOM      2  C   UNL     1       2.385   7.609  18.587  0.00  0.00    +0.000 C 
ATOM      3  O   UNL     1       2.273   7.578  19.805  0.00  0.00    +0.000 OA
ATOM      4  H   UNL     1       1.875   8.464  16.773  0.00  0.00    +0.000 HD
ENDROOT
BRANCH   1   9
ATOM      5  C   UNL     1       0.942  11.882  19.249  0.00  0.00    +0.000 A 
ATOM      6  C   UNL     1      -0.454  11.875  19.178  0.00  0.00    +0.000 A 
ATOM      7  C   UNL     1      -1.105  10.766  18.648  0.00  0.00    +0.000 A 
ATOM      8  C   UNL     1      -0.359   9.680  18.192  0.00  0.00    +0.000 A 
ATOM      9  C   UNL     1       1.042   9.679  18.243  0.00  0.00    +0.000 A 
ATOM     10  C   UNL     1       1.695  10.786  18.792  0.00  0.00    +0.000 A 
BRANCH   5  11
ATOM     11  S   UNL     1       1.762  13.214  20.100  0.00  0.00    +0.000 S 
ATOM     12  O   UNL     1       2.573  13.900  19.109  0.00  0.00    +0.000 OA
ATOM     13  O   UNL     1       2.351  12.673  21.307  0.00  0.00    +0.000 OA
BRANCH  11  14
ATOM     14  N   UNL     1       0.494  14.283  20.584  0.00  0.00    +0.000 NA
BRANCH  14  16
ATOM     15  C   UNL     1      -0.810  13.333  22.535  0.00  0.00    +0.000 C 
ATOM     16  C   UNL     1       0.267  14.295  22.062  0.00  0.00    +0.000 C 
ENDBRANCH  14  16
BRANCH  14  17
ATOM     17  C   UNL     1       0.602  15.642  19.953  0.00  0.00    +0.000 C 
ATOM     18  C   UNL     1      -0.280  15.819  18.727  0.00  0.00    +0.000 C 
ENDBRANCH  14  17
ENDBRANCH  11  14
ENDBRANCH   5  11
ENDBRANCH   1   9
BRANCH   2  19
ATOM     19  C   UNL     1       3.132   6.594  17.890  0.00  0.00    +0.000 A 
ATOM     20  C   UNL     1       3.968   6.721  16.797  0.00  0.00    +0.000 A 
ATOM     21  C   UNL     1       4.615   5.479  16.662  0.00  0.00    +0.000 A 
ATOM     22  N   UNL     1       4.236   4.621  17.611  0.00  0.00    +0.000 NA
ATOM     23  N   UNL     1       3.265   5.273  18.312  0.00  0.00    +0.000 N 
BRANCH  23  24
ATOM     24  C   UNL     1       2.516   4.553  19.290  0.00  0.00    +0.000 A 
ATOM     25  C   UNL     1       1.342   3.888  18.909  0.00  0.00    +0.000 A 
ATOM     26  C   UNL     1       0.622   3.145  19.850  0.00  0.00    +0.000 A 
ATOM     27  C   UNL     1       1.050   3.086  21.176  0.00  0.00    +0.000 A 
ATOM     28  C   UNL     1       2.197   3.772  21.567  0.00  0.00    +0.000 A 
ATOM     29  C   UNL     1       2.925   4.509  20.631  0.00  0.00    +0.000 A 
ENDBRANCH  23  24
BRANCH  21  30
ATOM     30  C   UNL     1       5.633   5.130  15.622  0.00  0.00    +0.000 A 
ATOM     31  C   UNL     1       5.348   4.479  14.440  0.00  0.00    +0.000 A 
ATOM     32  C   UNL     1       6.515   4.270  13.648  0.00  0.00    +0.000 A 
ATOM     33  C   UNL     1       7.648   4.764  14.256  0.00  0.00    +0.000 A 
ATOM     34  S   UNL     1       7.295   5.506  15.754  0.00  0.00    +0.000 S 
ENDBRANCH  21  30
ENDBRANCH   2  19
TORSDOF 8
ENDMDL
MODEL 4
REMARK VINA RESULT:      -7.6      2.906      9.624
REMARK  Name = 
REMARK  10 active torsions:
REMARK  status: ('A' for Active; 'I' for Inactive)
REMARK    1  A    between atoms: C_1  and  C_2
REMARK    2  A    between atoms: C_2  and  N_3
REMARK    3  A    between atoms: N_3  and  C_4
REMARK    4  A    between atoms: N_3  and  S_6
REMARK    5  A    between atoms: C_4  and  C_5
REMARK    6  A    between atoms: S_6  and  C_9
REMARK    7  A    between atoms: C_13  and  N_14
REMARK    8  A    between atoms: C_15  and  C_17
REMARK    9  A    between atoms: C_19  and  C_20
REMARK   10  A    between atoms: N_26  and  C_27
REMARK                            x       y       z     vdW  Elec       q    Type
REMARK                         _______ _______ _______ _____ _____    ______ ____
ROOT
ATOM      1  N   UNL     1       1.347   8.753  18.451  0.00  0.00    +0.000 N 
ATOM      2  C   UNL     1       0.906   9.599  19.464  0.00  0.00    +0.000 C 
ATOM      3  O   UNL     1       1.349   9.591  20.604  0.00  0.00    +0.000 OA
ATOM      4  H   UNL     1       0.989   8.909  17.515  0.00  0.00    +0.000 HD
ENDROOT
BRANCH   1   9
ATOM      5  C   UNL     1       4.375   6.707  17.791  0.00  0.00    +0.000 A 
ATOM      6  C   UNL     1       4.353   5.800  18.855  0.00  0.00    +0.000 A 
ATOM      7  C   UNL     1       3.323   5.867  19.787  0.00  0.00    +0.000 A 
ATOM      8  C   UNL     1       2.330   6.836  19.651  0.00  0.00    +0.000 A 
ATOM      9  C   UNL     1       2.347   7.761  18.597  0.00  0.00    +0.000 A 
ATOM     10  C   UNL     1       3.371   7.682  17.651  0.00  0.00    +0.000 A 
BRANCH   5  11
ATOM     11  S   UNL     1       5.581   6.499  16.498  0.00  0.00    +0.000 S 
ATOM     12  O   UNL     1       6.826   7.050  17.002  0.00  0.00    +0.000 OA
ATOM     13  O   UNL     1       4.995   6.979  15.263  0.00  0.00    +0.000 OA
BRANCH  11  14
ATOM     14  N   UNL     1       5.778   4.790  16.340  0.00  0.00    +0.000 NA
BRANCH  14  16
ATOM     15  C   UNL     1       4.201   2.987  17.160  0.00  0.00    +0.000 C 
ATOM     16  C   UNL     1       4.486   4.066  16.128  0.00  0.00    +0.000 C 
ENDBRANCH  14  16
BRANCH  14  17
ATOM     17  C   UNL     1       6.873   4.413  15.384  0.00  0.00    +0.000 C 
ATOM     18  C   UNL     1       6.368   3.972  14.019  0.00  0.00    +0.000 C 
ENDBRANCH  14  17
ENDBRANCH  11  14
ENDBRANCH   5  11
ENDBRANCH   1   9
BRANCH   2  19
ATOM     19  C   UNL     1      -0.128  10.527  19.082  0.00  0.00    +0.000 A 
ATOM     20  C   UNL     1      -1.441  10.275  18.733  0.00  0.00    +0.000 A 
ATOM     21  C   UNL     1      -2.071  11.532  18.677  0.00  0.00    +0.000 A 
ATOM     22  N   UNL     1      -1.228  12.519  18.987  0.00  0.00    +0.000 NA
ATOM     23  N   UNL     1      -0.018  11.914  19.151  0.00  0.00    +0.000 N 
BRANCH  23  24
ATOM     24  C   UNL     1       1.145  12.725  19.310  0.00  0.00    +0.000 A 
ATOM     25  C   UNL     1       1.489  13.195  20.586  0.00  0.00    +0.000 A 
ATOM     26  C   UNL     1       2.650  13.954  20.761  0.00  0.00    +0.000 A 
ATOM     27  C   UNL     1       3.454  14.274  19.667  0.00  0.00    +0.000 A 
ATOM     28  C   UNL     1       3.099  13.838  18.393  0.00  0.00    +0.000 A 
ATOM     29  C   UNL     1       1.946  13.072  18.213  0.00  0.00    +0.000 A 
ENDBRANCH  23  24
BRANCH  21  30
ATOM     30  C   UNL     1      -3.511  11.776  18.351  0.00  0.00    +0.000 A 
ATOM     31  C   UNL     1      -4.084  11.533  17.120  0.00  0.00    +0.000 A 
ATOM     32  C   UNL     1      -5.469  11.870  17.096  0.00  0.00    +0.000 A 
ATOM     33  C   UNL     1      -5.902  12.361  18.308  0.00  0.00    +0.000 A 
ATOM     34  S   UNL     1      -4.652  12.381  19.472  0.00  0.00    +0.000 S 
ENDBRANCH  21  30
ENDBRANCH   2  19
TORSDOF 8
ENDMDL
MODEL 5
REMARK VINA RESULT:      -7.6      3.116      9.317
REMARK  Name = 
REMARK  10 active torsions:
REMARK  status: ('A' for Active; 'I' for Inactive)
REMARK    1  A    between atoms: C_1  and  C_2
REMARK    2  A    between atoms: C_2  and  N_3
REMARK    3  A    between atoms: N_3  and  C_4
REMARK    4  A    between atoms: N_3  and  S_6
REMARK    5  A    between atoms: C_4  and  C_5
REMARK    6  A    between atoms: S_6  and  C_9
REMARK    7  A    between atoms: C_13  and  N_14
REMARK    8  A    between atoms: C_15  and  C_17
REMARK    9  A    between atoms: C_19  and  C_20
REMARK   10  A    between atoms: N_26  and  C_27
REMARK                            x       y       z     vdW  Elec       q    Type
REMARK                         _______ _______ _______ _____ _____    ______ ____
ROOT
ATOM      1  N   UNL     1       1.275   8.480  18.723  0.00  0.00    +0.000 N 
ATOM      2  C   UNL     1       1.428   9.721  18.112  0.00  0.00    +0.000 C 
ATOM      3  O   UNL     1       2.446  10.078  17.536  0.00  0.00    +0.000 OA
ATOM      4  H   UNL     1       0.358   8.240  19.084  0.00  0.00    +0.000 HD
ENDROOT
BRANCH   1   9
ATOM      5  C   UNL     1       4.198   6.384  17.798  0.00  0.00    +0.000 A 
ATOM      6  C   UNL     1       4.261   5.483  18.866  0.00  0.00    +0.000 A 
ATOM      7  C   UNL     1       3.323   5.571  19.889  0.00  0.00    +0.000 A 
ATOM      8  C   UNL     1       2.336   6.554  19.839  0.00  0.00    +0.000 A 
ATOM      9  C   UNL     1       2.269   7.473  18.782  0.00  0.00    +0.000 A 
ATOM     10  C   UNL     1       3.200   7.374  17.746  0.00  0.00    +0.000 A 
BRANCH   5  11
ATOM     11  S   UNL     1       5.276   6.152  16.401  0.00  0.00    +0.000 S 
ATOM     12  O   UNL     1       4.877   7.131  15.405  0.00  0.00    +0.000 OA
ATOM     13  O   UNL     1       5.303   4.737  16.092  0.00  0.00    +0.000 OA
BRANCH  11  14
ATOM     14  N   UNL     1       6.848   6.582  16.972  0.00  0.00    +0.000 NA
BRANCH  14  16
ATOM     15  C   UNL     1       8.107   8.700  17.552  0.00  0.00    +0.000 C 
ATOM     16  C   UNL     1       6.861   7.855  17.757  0.00  0.00    +0.000 C 
ENDBRANCH  14  16
BRANCH  14  17
ATOM     17  C   UNL     1       7.567   5.435  17.624  0.00  0.00    +0.000 C 
ATOM     18  C   UNL     1       7.812   5.633  19.112  0.00  0.00    +0.000 C 
ENDBRANCH  14  17
ENDBRANCH  11  14
ENDBRANCH   5  11
ENDBRANCH   1   9
BRANCH   2  19
ATOM     19  C   UNL     1       0.279  10.587  18.185  0.00  0.00    +0.000 A 
ATOM     20  C   UNL     1      -1.040  10.315  17.877  0.00  0.00    +0.000 A 
ATOM     21  C   UNL     1      -1.777  11.421  18.338  0.00  0.00    +0.000 A 
ATOM     22  N   UNL     1      -0.990  12.330  18.918  0.00  0.00    +0.000 NA
ATOM     23  N   UNL     1       0.278  11.862  18.748  0.00  0.00    +0.000 N 
BRANCH  23  24
ATOM     24  C   UNL     1       1.378  12.701  19.096  0.00  0.00    +0.000 A 
ATOM     25  C   UNL     1       1.725  12.859  20.445  0.00  0.00    +0.000 A 
ATOM     26  C   UNL     1       2.827  13.645  20.797  0.00  0.00    +0.000 A 
ATOM     27  C   UNL     1       3.567  14.298  19.812  0.00  0.00    +0.000 A 
ATOM     28  C   UNL     1       3.208  14.171  18.473  0.00  0.00    +0.000 A 
ATOM     29  C   UNL     1       2.113  13.381  18.115  0.00  0.00    +0.000 A 
ENDBRANCH  23  24
BRANCH  21  30
ATOM     30  C   UNL     1      -3.262  11.584  18.245  0.00  0.00    +0.000 A 
ATOM     31  C   UNL     1      -4.056  12.086  19.255  0.00  0.00    +0.000 A 
ATOM     32  C   UNL     1      -5.434  12.116  18.890  0.00  0.00    +0.000 A 
ATOM     33  C   UNL     1      -5.642  11.633  17.617  0.00  0.00    +0.000 A 
ATOM     34  S   UNL     1      -4.179  11.180  16.860  0.00  0.00    +0.000 S 
ENDBRANCH  21  30
ENDBRANCH   2  19
TORSDOF 8
ENDMDL
MODEL 6
REMARK VINA RESULT:      -7.5      2.936      9.079
REMARK  Name = 
REMARK  10 active torsions:
REMARK  status: ('A' for Active; 'I' for Inactive)
REMARK    1  A    between atoms: C_1  and  C_2
REMARK    2  A    between atoms: C_2  and  N_3
REMARK    3  A    between atoms: N_3  and  C_4
REMARK    4  A    between atoms: N_3  and  S_6
REMARK    5  A    between atoms: C_4  and  C_5
REMARK    6  A    between atoms: S_6  and  C_9
REMARK    7  A    between atoms: C_13  and  N_14
REMARK    8  A    between atoms: C_15  and  C_17
REMARK    9  A    between atoms: C_19  and  C_20
REMARK   10  A    between atoms: N_26  and  C_27
REMARK                            x       y       z     vdW  Elec       q    Type
REMARK                         _______ _______ _______ _____ _____    ______ ____
ROOT
ATOM      1  N   UNL     1       1.419   8.788  17.686  0.00  0.00    +0.000 N 
ATOM      2  C   UNL     1       1.000   9.457  18.833  0.00  0.00    +0.000 C 
ATOM      3  O   UNL     1       1.490   9.287  19.940  0.00  0.00    +0.000 OA
ATOM      4  H   UNL     1       1.020   9.075  16.799  0.00  0.00    +0.000 HD
ENDROOT
BRANCH   1   9
ATOM      5  C   UNL     1       3.126   5.492  17.790  0.00  0.00    +0.000 A 
ATOM      6  C   UNL     1       4.459   5.846  17.558  0.00  0.00    +0.000 A 
ATOM      7  C   UNL     1       4.788   7.185  17.377  0.00  0.00    +0.000 A 
ATOM      8  C   UNL     1       3.787   8.155  17.425  0.00  0.00    +0.000 A 
ATOM      9  C   UNL     1       2.445   7.814  17.641  0.00  0.00    +0.000 A 
ATOM     10  C   UNL     1       2.117   6.470  17.841  0.00  0.00    +0.000 A 
BRANCH   5  11
ATOM     11  S   UNL     1       2.735   3.807  18.211  0.00  0.00    +0.000 S 
ATOM     12  O   UNL     1       3.995   3.157  18.525  0.00  0.00    +0.000 OA
ATOM     13  O   UNL     1       1.858   3.285  17.183  0.00  0.00    +0.000 OA
BRANCH  11  14
ATOM     14  N   UNL     1       1.812   3.913  19.667  0.00  0.00    +0.000 NA
BRANCH  14  16
ATOM     15  C   UNL     1       1.535   2.450  21.715  0.00  0.00    +0.000 C 
ATOM     16  C   UNL     1       1.408   2.576  20.206  0.00  0.00    +0.000 C 
ENDBRANCH  14  16
BRANCH  14  17
ATOM     17  C   UNL     1       2.421   4.840  20.680  0.00  0.00    +0.000 C 
ATOM     18  C   UNL     1       1.542   6.034  21.022  0.00  0.00    +0.000 C 
ENDBRANCH  14  17
ENDBRANCH  11  14
ENDBRANCH   5  11
ENDBRANCH   1   9
BRANCH   2  19
ATOM     19  C   UNL     1      -0.068  10.403  18.636  0.00  0.00    +0.000 A 
ATOM     20  C   UNL     1      -1.387  10.172  18.294  0.00  0.00    +0.000 A 
ATOM     21  C   UNL     1      -2.047  11.403  18.458  0.00  0.00    +0.000 A 
ATOM     22  N   UNL     1      -1.217  12.353  18.894  0.00  0.00    +0.000 NA
ATOM     23  N   UNL     1       0.012  11.765  18.921  0.00  0.00    +0.000 N 
BRANCH  23  24
ATOM     24  C   UNL     1       1.162  12.573  19.168  0.00  0.00    +0.000 A 
ATOM     25  C   UNL     1       1.483  12.930  20.486  0.00  0.00    +0.000 A 
ATOM     26  C   UNL     1       2.630  13.686  20.745  0.00  0.00    +0.000 A 
ATOM     27  C   UNL     1       3.442  14.115  19.696  0.00  0.00    +0.000 A 
ATOM     28  C   UNL     1       3.110  13.792  18.383  0.00  0.00    +0.000 A 
ATOM     29  C   UNL     1       1.970  13.029  18.118  0.00  0.00    +0.000 A 
ENDBRANCH  23  24
BRANCH  21  30
ATOM     30  C   UNL     1      -3.504  11.655  18.222  0.00  0.00    +0.000 A 
ATOM     31  C   UNL     1      -4.371  12.161  19.168  0.00  0.00    +0.000 A 
ATOM     32  C   UNL     1      -5.699  12.284  18.666  0.00  0.00    +0.000 A 
ATOM     33  C   UNL     1      -5.799  11.864  17.357  0.00  0.00    +0.000 A 
ATOM     34  S   UNL     1      -4.291  11.359  16.733  0.00  0.00    +0.000 S 
ENDBRANCH  21  30
ENDBRANCH   2  19
TORSDOF 8
ENDMDL
MODEL 7
REMARK VINA RESULT:      -7.5      1.872      2.864
REMARK  Name = 
REMARK  10 active torsions:
REMARK  status: ('A' for Active; 'I' for Inactive)
REMARK    1  A    between atoms: C_1  and  C_2
REMARK    2  A    between atoms: C_2  and  N_3
REMARK    3  A    between atoms: N_3  and  C_4
REMARK    4  A    between atoms: N_3  and  S_6
REMARK    5  A    between atoms: C_4  and  C_5
REMARK    6  A    between atoms: S_6  and  C_9
REMARK    7  A    between atoms: C_13  and  N_14
REMARK    8  A    between atoms: C_15  and  C_17
REMARK    9  A    between atoms: C_19  and  C_20
REMARK   10  A    between atoms: N_26  and  C_27
REMARK                            x       y       z     vdW  Elec       q    Type
REMARK                         _______ _______ _______ _____ _____    ______ ____
ROOT
ATOM      1  N   UNL     1       2.589   7.118  18.196  0.00  0.00    +0.000 N 
ATOM      2  C   UNL     1       3.785   6.427  18.365  0.00  0.00    +0.000 C 
ATOM      3  O   UNL     1       4.443   6.442  19.396  0.00  0.00    +0.000 OA
ATOM      4  H   UNL     1       2.068   6.958  17.341  0.00  0.00    +0.000 HD
ENDROOT
BRANCH   1   9
ATOM      5  C   UNL     1       0.946  10.052  19.771  0.00  0.00    +0.000 A 
ATOM      6  C   UNL     1       0.765   9.615  21.087  0.00  0.00    +0.000 A 
ATOM      7  C   UNL     1       1.200   8.344  21.449  0.00  0.00    +0.000 A 
ATOM      8  C   UNL     1       1.806   7.525  20.498  0.00  0.00    +0.000 A 
ATOM      9  C   UNL     1       1.981   7.944  19.172  0.00  0.00    +0.000 A 
ATOM     10  C   UNL     1       1.560   9.227  18.813  0.00  0.00    +0.000 A 
BRANCH   5  11
ATOM     11  S   UNL     1       0.565  11.742  19.357  0.00  0.00    +0.000 S 
ATOM     12  O   UNL     1       1.141  11.986  18.047  0.00  0.00    +0.000 OA
ATOM     13  O   UNL     1       0.914  12.567  20.496  0.00  0.00    +0.000 OA
BRANCH  11  14
ATOM     14  N   UNL     1      -1.155  11.787  19.201  0.00  0.00    +0.000 NA
BRANCH  14  16
ATOM     15  C   UNL     1      -3.293  12.710  20.194  0.00  0.00    +0.000 C 
ATOM     16  C   UNL     1      -1.791  12.867  20.018  0.00  0.00    +0.000 C 
ENDBRANCH  14  16
BRANCH  14  17
ATOM     17  C   UNL     1      -1.614  11.727  17.772  0.00  0.00    +0.000 C 
ATOM     18  C   UNL     1      -1.941  10.320  17.294  0.00  0.00    +0.000 C 
ENDBRANCH  14  17
ENDBRANCH  11  14
ENDBRANCH   5  11
ENDBRANCH   1   9
BRANCH   2  19
ATOM     19  C   UNL     1       4.215   5.654  17.228  0.00  0.00    +0.000 A 
ATOM     20  C   UNL     1       5.039   6.025  16.183  0.00  0.00    +0.000 A 
ATOM     21  C   UNL     1       5.318   4.840  15.476  0.00  0.00    +0.000 A 
ATOM     22  N   UNL     1       4.730   3.782  16.038  0.00  0.00    +0.000 NA
ATOM     23  N   UNL     1       3.984   4.291  17.059  0.00  0.00    +0.000 N 
BRANCH  23  24
ATOM     24  C   UNL     1       3.079   3.431  17.751  0.00  0.00    +0.000 A 
ATOM     25  C   UNL     1       3.566   2.268  18.364  0.00  0.00    +0.000 A 
ATOM     26  C   UNL     1       2.696   1.439  19.081  0.00  0.00    +0.000 A 
ATOM     27  C   UNL     1       1.339   1.749  19.164  0.00  0.00    +0.000 A 
ATOM     28  C   UNL     1       0.845   2.885  18.529  0.00  0.00    +0.000 A 
ATOM     29  C   UNL     1       1.709   3.721  17.819  0.00  0.00    +0.000 A 
ENDBRANCH  23  24
BRANCH  21  30
ATOM     30  C   UNL     1       6.187   4.728  14.263  0.00  0.00    +0.000 A 
ATOM     31  C   UNL     1       7.363   5.425  14.080  0.00  0.00    +0.000 A 
ATOM     32  C   UNL     1       7.974   5.127  12.827  0.00  0.00    +0.000 A 
ATOM     33  C   UNL     1       7.240   4.217  12.098  0.00  0.00    +0.000 A 
ATOM     34  S   UNL     1       5.845   3.702  12.939  0.00  0.00    +0.000 S 
ENDBRANCH  21  30
ENDBRANCH   2  19
TORSDOF 8
ENDMDL
MODEL 8
REMARK VINA RESULT:      -7.5      2.951      9.539
REMARK  Name = 
REMARK  10 active torsions:
REMARK  status: ('A' for Active; 'I' for Inactive)
REMARK    1  A    between atoms: C_1  and  C_2
REMARK    2  A    between atoms: C_2  and  N_3
REMARK    3  A    between atoms: N_3  and  C_4
REMARK    4  A    between atoms: N_3  and  S_6
REMARK    5  A    between atoms: C_4  and  C_5
REMARK    6  A    between atoms: S_6  and  C_9
REMARK    7  A    between atoms: C_13  and  N_14
REMARK    8  A    between atoms: C_15  and  C_17
REMARK    9  A    between atoms: C_19  and  C_20
REMARK   10  A    between atoms: N_26  and  C_27
REMARK                            x       y       z     vdW  Elec       q    Type
REMARK                         _______ _______ _______ _____ _____    ______ ____
ROOT
ATOM      1  N   UNL     1       1.302   8.743  18.408  0.00  0.00    +0.000 N 
ATOM      2  C   UNL     1       0.817   9.529  19.449  0.00  0.00    +0.000 C 
ATOM      3  O   UNL     1       1.209   9.449  20.605  0.00  0.00    +0.000 OA
ATOM      4  H   UNL     1       0.987   8.957  17.468  0.00  0.00    +0.000 HD
ENDROOT
BRANCH   1   9
ATOM      5  C   UNL     1       4.428   6.814  17.864  0.00  0.00    +0.000 A 
ATOM      6  C   UNL     1       4.282   5.759  18.770  0.00  0.00    +0.000 A 
ATOM      7  C   UNL     1       3.137   5.687  19.555  0.00  0.00    +0.000 A 
ATOM      8  C   UNL     1       2.152   6.667  19.432  0.00  0.00    +0.000 A 
ATOM      9  C   UNL     1       2.292   7.739  18.538  0.00  0.00    +0.000 A 
ATOM     10  C   UNL     1       3.434   7.800  17.737  0.00  0.00    +0.000 A 
BRANCH   5  11
ATOM     11  S   UNL     1       5.799   6.800  16.728  0.00  0.00    +0.000 S 
ATOM     12  O   UNL     1       6.679   7.883  17.130  0.00  0.00    +0.000 OA
ATOM     13  O   UNL     1       5.262   6.729  15.385  0.00  0.00    +0.000 OA
BRANCH  11  14
ATOM     14  N   UNL     1       6.616   5.308  17.032  0.00  0.00    +0.000 NA
BRANCH  14  16
ATOM     15  C   UNL     1       5.727   3.453  15.557  0.00  0.00    +0.000 C 
ATOM     16  C   UNL     1       6.816   4.485  15.799  0.00  0.00    +0.000 C 
ENDBRANCH  14  16
BRANCH  14  17
ATOM     17  C   UNL     1       7.844   5.476  17.881  0.00  0.00    +0.000 C 
ATOM     18  C   UNL     1       7.549   5.578  19.370  0.00  0.00    +0.000 C 
ENDBRANCH  14  17
ENDBRANCH  11  14
ENDBRANCH   5  11
ENDBRANCH   1   9
BRANCH   2  19
ATOM     19  C   UNL     1      -0.196  10.483  19.078  0.00  0.00    +0.000 A 
ATOM     20  C   UNL     1      -1.516  10.264  18.730  0.00  0.00    +0.000 A 
ATOM     21  C   UNL     1      -2.117  11.535  18.687  0.00  0.00    +0.000 A 
ATOM     22  N   UNL     1      -1.251  12.500  19.003  0.00  0.00    +0.000 NA
ATOM     23  N   UNL     1      -0.054  11.866  19.159  0.00  0.00    +0.000 N 
BRANCH  23  24
ATOM     24  C   UNL     1       1.128  12.649  19.321  0.00  0.00    +0.000 A 
ATOM     25  C   UNL     1       1.496  13.084  20.602  0.00  0.00    +0.000 A 
ATOM     26  C   UNL     1       2.675  13.816  20.780  0.00  0.00    +0.000 A 
ATOM     27  C   UNL     1       3.472  14.142  19.683  0.00  0.00    +0.000 A 
ATOM     28  C   UNL     1       3.094  13.741  18.405  0.00  0.00    +0.000 A 
ATOM     29  C   UNL     1       1.923  13.002  18.222  0.00  0.00    +0.000 A 
ENDBRANCH  23  24
BRANCH  21  30
ATOM     30  C   UNL     1      -3.552  11.815  18.367  0.00  0.00    +0.000 A 
ATOM     31  C   UNL     1      -4.132  11.598  17.135  0.00  0.00    +0.000 A 
ATOM     32  C   UNL     1      -5.510  11.966  17.119  0.00  0.00    +0.000 A 
ATOM     33  C   UNL     1      -5.929  12.453  18.337  0.00  0.00    +0.000 A 
ATOM     34  S   UNL     1      -4.676  12.432  19.498  0.00  0.00    +0.000 S 
ENDBRANCH  21  30
ENDBRANCH   2  19
TORSDOF 8
ENDMDL
MODEL 9
REMARK VINA RESULT:      -7.5      1.928      3.052
REMARK  Name = 
REMARK  10 active torsions:
REMARK  status: ('A' for Active; 'I' for Inactive)
REMARK    1  A    between atoms: C_1  and  C_2
REMARK    2  A    between atoms: C_2  and  N_3
REMARK    3  A    between atoms: N_3  and  C_4
REMARK    4  A    between atoms: N_3  and  S_6
REMARK    5  A    between atoms: C_4  and  C_5
REMARK    6  A    between atoms: S_6  and  C_9
REMARK    7  A    between atoms: C_13  and  N_14
REMARK    8  A    between atoms: C_15  and  C_17
REMARK    9  A    between atoms: C_19  and  C_20
REMARK   10  A    between atoms: N_26  and  C_27
REMARK                            x       y       z     vdW  Elec       q    Type
REMARK                         _______ _______ _______ _____ _____    ______ ____
ROOT
ATOM      1  N   UNL     1       2.695   6.819  18.094  0.00  0.00    +0.000 N 
ATOM      2  C   UNL     1       4.063   6.727  17.853  0.00  0.00    +0.000 C 
ATOM      3  O   UNL     1       4.908   7.373  18.457  0.00  0.00    +0.000 OA
ATOM      4  H   UNL     1       2.086   6.166  17.613  0.00  0.00    +0.000 HD
ENDROOT
BRANCH   1   9
ATOM      5  C   UNL     1       1.206   9.855  19.626  0.00  0.00    +0.000 A 
ATOM      6  C   UNL     1       0.891   9.410  20.914  0.00  0.00    +0.000 A 
ATOM      7  C   UNL     1       1.185   8.098  21.272  0.00  0.00    +0.000 A 
ATOM      8  C   UNL     1       1.785   7.247  20.345  0.00  0.00    +0.000 A 
ATOM      9  C   UNL     1       2.092   7.675  19.046  0.00  0.00    +0.000 A 
ATOM     10  C   UNL     1       1.813   8.998  18.692  0.00  0.00    +0.000 A 
BRANCH   5  11
ATOM     11  S   UNL     1       1.006  11.580  19.232  0.00  0.00    +0.000 S 
ATOM     12  O   UNL     1       1.941  11.869  18.159  0.00  0.00    +0.000 OA
ATOM     13  O   UNL     1       1.036  12.326  20.473  0.00  0.00    +0.000 OA
BRANCH  11  14
ATOM     14  N   UNL     1      -0.594  11.711  18.594  0.00  0.00    +0.000 NA
BRANCH  14  16
ATOM     15  C   UNL     1      -1.764   9.969  17.178  0.00  0.00    +0.000 C 
ATOM     16  C   UNL     1      -1.324  10.405  18.566  0.00  0.00    +0.000 C 
ENDBRANCH  14  16
BRANCH  14  17
ATOM     17  C   UNL     1      -1.369  12.852  19.189  0.00  0.00    +0.000 C 
ATOM     18  C   UNL     1      -2.655  12.422  19.880  0.00  0.00    +0.000 C 
ENDBRANCH  14  17
ENDBRANCH  11  14
ENDBRANCH   5  11
ENDBRANCH   1   9
BRANCH   2  19
ATOM     19  C   UNL     1       4.445   5.788  16.829  0.00  0.00    +0.000 A 
ATOM     20  C   UNL     1       5.125   6.015  15.648  0.00  0.00    +0.000 A 
ATOM     21  C   UNL     1       5.437   4.742  15.135  0.00  0.00    +0.000 A 
ATOM     22  N   UNL     1       5.005   3.768  15.939  0.00  0.00    +0.000 NA
ATOM     23  N   UNL     1       4.322   4.404  16.932  0.00  0.00    +0.000 N 
BRANCH  23  24
ATOM     24  C   UNL     1       3.571   3.627  17.864  0.00  0.00    +0.000 A 
ATOM     25  C   UNL     1       2.250   3.269  17.556  0.00  0.00    +0.000 A 
ATOM     26  C   UNL     1       1.518   2.472  18.442  0.00  0.00    +0.000 A 
ATOM     27  C   UNL     1       2.084   2.056  19.646  0.00  0.00    +0.000 A 
ATOM     28  C   UNL     1       3.384   2.437  19.972  0.00  0.00    +0.000 A 
ATOM     29  C   UNL     1       4.123   3.225  19.088  0.00  0.00    +0.000 A 
ENDBRANCH  23  24
BRANCH  21  30
ATOM     30  C   UNL     1       6.188   4.468  13.870  0.00  0.00    +0.000 A 
ATOM     31  C   UNL     1       7.365   5.091  13.512  0.00  0.00    +0.000 A 
ATOM     32  C   UNL     1       7.849   4.639  12.249  0.00  0.00    +0.000 A 
ATOM     33  C   UNL     1       7.021   3.691  11.688  0.00  0.00    +0.000 A 
ATOM     34  S   UNL     1       5.692   3.327  12.697  0.00  0.00    +0.000 S 
ENDBRANCH  21  30
ENDBRANCH   2  19
TORSDOF 8
ENDMDL
