MODEL 1
REMARK VINA RESULT:      -8.0      0.000      0.000
REMARK  Name = 
REMARK  7 active torsions:
REMARK  status: ('A' for Active; 'I' for Inactive)
REMARK    1  A    between atoms: C_1  and  O_2
REMARK    2  A    between atoms: O_2  and  C_3
REMARK    3  A    between atoms: C_9  and  C_10
REMARK    4  A    between atoms: C_11  and  C_12
REMARK    5  A    between atoms: N_14  and  C_15
REMARK    6  A    between atoms: C_15  and  C_16
REMARK    7  A    between atoms: C_16  and  C_17
REMARK                            x       y       z     vdW  Elec       q    Type
REMARK                         _______ _______ _______ _____ _____    ______ ____
ROOT
ATOM      1  C   UNL     1       2.508   7.376  18.401  0.00  0.00    +0.000 C 
ATOM      2  C   UNL     1       3.656   7.563  17.728  0.00  0.00    +0.000 C 
ENDROOT
BRANCH   1   9
ATOM      3  C   UNL     1      -0.753  11.399  22.431  0.00  0.00    +0.000 A 
ATOM      4  C   UNL     1      -0.607  10.183  23.102  0.00  0.00    +0.000 A 
ATOM      5  C   UNL     1       0.042   9.116  22.481  0.00  0.00    +0.000 A 
ATOM      6  C   UNL     1       0.537   9.263  21.184  0.00  0.00    +0.000 A 
ATOM      7  C   UNL     1       1.242   8.148  20.536  0.00  0.00    +0.000 A 
ATOM      8  O   UNL     1       1.373   7.091  21.143  0.00  0.00    +0.000 OA
ATOM      9  C   UNL     1       1.765   8.382  19.154  0.00  0.00    +0.000 A 
ATOM     10  C   UNL     1       1.513   9.595  18.631  0.00  0.00    +0.000 A 
ATOM     11  O   UNL     1       0.839  10.640  19.223  0.00  0.00    +0.000 OA
ATOM     12  C   UNL     1       0.373  10.460  20.500  0.00  0.00    +0.000 A 
ATOM     13  C   UNL     1      -0.281  11.528  21.119  0.00  0.00    +0.000 A 
BRANCH   3  15
ATOM     14  C   UNL     1      -1.315  13.675  22.141  0.00  0.00    +0.000 C 
ATOM     15  O   UNL     1      -1.367  12.505  22.955  0.00  0.00    +0.000 OA
ENDBRANCH   3  15
ENDBRANCH   1   9
BRANCH   2  16
ATOM     16  C   UNL     1       4.309   6.451  16.993  0.00  0.00    +0.000 C 
ATOM     17  O   UNL     1       4.918   6.621  15.945  0.00  0.00    +0.000 OA
ATOM     18  N   UNL     1       4.153   5.235  17.615  0.00  0.00    +0.000 N 
ATOM     19  H   UNL     1       3.633   5.175  18.480  0.00  0.00    +0.000 HD
BRANCH  18  20
ATOM     20  C   UNL     1       4.718   4.027  17.040  0.00  0.00    +0.000 C 
BRANCH  20  21
ATOM     21  C   UNL     1       3.806   2.811  17.214  0.00  0.00    +0.000 C 
BRANCH  21  22
ATOM     22  C   UNL     1       2.911   2.944  18.421  0.00  0.00    +0.000 A 
ATOM     23  C   UNL     1       1.617   3.474  18.298  0.00  0.00    +0.000 A 
ATOM     24  C   UNL     1       0.797   3.623  19.421  0.00  0.00    +0.000 A 
ATOM     25  C   UNL     1       1.265   3.247  20.679  0.00  0.00    +0.000 A 
ATOM     26  C   UNL     1       2.546   2.724  20.802  0.00  0.00    +0.000 A 
ATOM     27  F   UNL     1       2.996   2.363  22.012  0.00  0.00    +0.000 F 
ATOM     28  C   UNL     1       3.371   2.570  19.692  0.00  0.00    +0.000 A 
ENDBRANCH  21  22
ENDBRANCH  20  21
ENDBRANCH  18  20
ENDBRANCH   2  16
TORSDOF 6
ENDMDL
MODEL 2
REMARK VINA RESULT:      -8.0      6.833      8.088
REMARK  Name = 
REMARK  7 active torsions:
REMARK  status: ('A' for Active; 'I' for Inactive)
REMARK    1  A    between atoms: C_1  and  O_2
REMARK    2  A    between atoms: O_2  and  C_3
REMARK    3  A    between atoms: C_9  and  C_10
REMARK    4  A    between atoms: C_11  and  C_12
REMARK    5  A    between atoms: N_14  and  C_15
REMARK    6  A    between atoms: C_15  and  C_16
REMARK    7  A    between atoms: C_16  and  C_17
REMARK                            x       y       z     vdW  Elec       q    Type
REMARK                         _______ _______ _______ _____ _____    ______ ____
ROOT
ATOM      1  C   UNL     1       8.677   9.432  18.608  0.00  0.00    +0.000 C 
ATOM      2  C   UNL     1       8.108   8.723  17.619  0.00  0.00    +0.000 C 
ENDROOT
BRANCH   1   9
ATOM      3  C   UNL     1      10.923  15.591  18.923  0.00  0.00    +0.000 A 
ATOM      4  C   UNL     1      11.624  14.853  19.880  0.00  0.00    +0.000 A 
ATOM      5  C   UNL     1      11.349  13.497  20.057  0.00  0.00    +0.000 A 
ATOM      6  C   UNL     1      10.364  12.881  19.282  0.00  0.00    +0.000 A 
ATOM      7  C   UNL     1      10.089  11.447  19.450  0.00  0.00    +0.000 A 
ATOM      8  O   UNL     1      10.722  10.811  20.284  0.00  0.00    +0.000 OA
ATOM      9  C   UNL     1       9.036  10.847  18.572  0.00  0.00    +0.000 A 
ATOM     10  C   UNL     1       8.426  11.696  17.726  0.00  0.00    +0.000 A 
ATOM     11  O   UNL     1       8.666  13.044  17.573  0.00  0.00    +0.000 OA
ATOM     12  C   UNL     1       9.644  13.612  18.347  0.00  0.00    +0.000 A 
ATOM     13  C   UNL     1       9.916  14.971  18.172  0.00  0.00    +0.000 A 
BRANCH   3  15
ATOM     14  C   UNL     1       9.946  17.668  18.367  0.00  0.00    +0.000 C 
ATOM     15  O   UNL     1      11.122  16.921  18.670  0.00  0.00    +0.000 OA
ENDBRANCH   3  15
ENDBRANCH   1   9
BRANCH   2  16
ATOM     16  C   UNL     1       7.786   7.284  17.789  0.00  0.00    +0.000 C 
ATOM     17  O   UNL     1       7.904   6.703  18.860  0.00  0.00    +0.000 OA
ATOM     18  N   UNL     1       7.347   6.694  16.627  0.00  0.00    +0.000 N 
ATOM     19  H   UNL     1       7.278   7.241  15.779  0.00  0.00    +0.000 HD
BRANCH  18  20
ATOM     20  C   UNL     1       6.991   5.287  16.596  0.00  0.00    +0.000 C 
BRANCH  20  21
ATOM     21  C   UNL     1       5.714   5.021  15.796  0.00  0.00    +0.000 C 
BRANCH  21  22
ATOM     22  C   UNL     1       4.512   4.847  16.691  0.00  0.00    +0.000 A 
ATOM     23  C   UNL     1       3.963   5.943  17.373  0.00  0.00    +0.000 A 
ATOM     24  C   UNL     1       2.866   5.778  18.225  0.00  0.00    +0.000 A 
ATOM     25  C   UNL     1       2.311   4.512  18.406  0.00  0.00    +0.000 A 
ATOM     26  C   UNL     1       2.855   3.426  17.732  0.00  0.00    +0.000 A 
ATOM     27  F   UNL     1       2.321   2.209  17.907  0.00  0.00    +0.000 F 
ATOM     28  C   UNL     1       3.946   3.578  16.882  0.00  0.00    +0.000 A 
ENDBRANCH  21  22
ENDBRANCH  20  21
ENDBRANCH  18  20
ENDBRANCH   2  16
TORSDOF 6
ENDMDL
MODEL 3
REMARK VINA RESULT:      -8.0      6.956      7.939
REMARK  Name = 
REMARK  7 active torsions:
REMARK  status: ('A' for Active; 'I' for Inactive)
REMARK    1  A    between atoms: C_1  and  O_2
REMARK    2  A    between atoms: O_2  and  C_3
REMARK    3  A    between atoms: C_9  and  C_10
REMARK    4  A    between atoms: C_11  and  C_12
REMARK    5  A    between atoms: N_14  and  C_15
REMARK    6  A    between atoms: C_15  and  C_16
REMARK    7  A    between atoms: C_16  and  C_17
REMARK                            x       y       z     vdW  Elec       q    Type
REMARK                         _______ _______ _______ _____ _____    ______ ____
ROOT
ATOM      1  C   UNL     1       8.924   9.355  18.856  0.00  0.00    +0.000 C 
ATOM      2  C   UNL     1       8.198   8.864  17.838  0.00  0.00    +0.000 C 
ENDROOT
BRANCH   1   9
ATOM      3  C   UNL     1      11.014  15.404  20.311  0.00  0.00    +0.000 A 
ATOM      4  C   UNL     1      10.471  14.869  21.481  0.00  0.00    +0.000 A 
ATOM      5  C   UNL     1       9.927  13.585  21.476  0.00  0.00    +0.000 A 
ATOM      6  C   UNL     1       9.918  12.838  20.296  0.00  0.00    +0.000 A 
ATOM      7  C   UNL     1       9.367  11.476  20.294  0.00  0.00    +0.000 A 
ATOM      8  O   UNL     1       8.906  11.016  21.332  0.00  0.00    +0.000 OA
ATOM      9  C   UNL     1       9.409  10.725  19.001  0.00  0.00    +0.000 A 
ATOM     10  C   UNL     1       9.931  11.390  17.955  0.00  0.00    +0.000 A 
ATOM     11  O   UNL     1      10.435  12.672  17.943  0.00  0.00    +0.000 OA
ATOM     12  C   UNL     1      10.432  13.371  19.122  0.00  0.00    +0.000 A 
ATOM     13  C   UNL     1      10.973  14.659  19.125  0.00  0.00    +0.000 A 
BRANCH   3  15
ATOM     14  C   UNL     1      10.745  17.649  19.627  0.00  0.00    +0.000 C 
ATOM     15  O   UNL     1      11.575  16.648  20.214  0.00  0.00    +0.000 OA
ENDBRANCH   3  15
ENDBRANCH   1   9
BRANCH   2  16
ATOM     16  C   UNL     1       7.761   7.445  17.816  0.00  0.00    +0.000 C 
ATOM     17  O   UNL     1       7.981   6.673  18.740  0.00  0.00    +0.000 OA
ATOM     18  N   UNL     1       7.093   7.110  16.662  0.00  0.00    +0.000 N 
ATOM     19  H   UNL     1       6.952   7.806  15.941  0.00  0.00    +0.000 HD
BRANCH  18  20
ATOM     20  C   UNL     1       6.595   5.762  16.457  0.00  0.00    +0.000 C 
BRANCH  20  21
ATOM     21  C   UNL     1       5.077   5.719  16.268  0.00  0.00    +0.000 C 
BRANCH  21  22
ATOM     22  C   UNL     1       4.366   5.245  17.512  0.00  0.00    +0.000 A 
ATOM     23  C   UNL     1       3.243   5.931  18.000  0.00  0.00    +0.000 A 
ATOM     24  C   UNL     1       2.601   5.509  19.168  0.00  0.00    +0.000 A 
ATOM     25  C   UNL     1       3.078   4.399  19.862  0.00  0.00    +0.000 A 
ATOM     26  C   UNL     1       4.190   3.720  19.381  0.00  0.00    +0.000 A 
ATOM     27  F   UNL     1       4.649   2.652  20.049  0.00  0.00    +0.000 F 
ATOM     28  C   UNL     1       4.838   4.130  18.220  0.00  0.00    +0.000 A 
ENDBRANCH  21  22
ENDBRANCH  20  21
ENDBRANCH  18  20
ENDBRANCH   2  16
TORSDOF 6
ENDMDL
MODEL 4
REMARK VINA RESULT:      -7.9      7.139      8.126
REMARK  Name = 
REMARK  7 active torsions:
REMARK  status: ('A' for Active; 'I' for Inactive)
REMARK    1  A    between atoms: C_1  and  O_2
REMARK    2  A    between atoms: O_2  and  C_3
REMARK    3  A    between atoms: C_9  and  C_10
REMARK    4  A    between atoms: C_11  and  C_12
REMARK    5  A    between atoms: N_14  and  C_15
REMARK    6  A    between atoms: C_15  and  C_16
REMARK    7  A    between atoms: C_16  and  C_17
REMARK                            x       y       z     vdW  Elec       q    Type
REMARK                         _______ _______ _______ _____ _____    ______ ____
ROOT
ATOM      1  C   UNL     1       8.953   9.584  18.970  0.00  0.00    +0.000 C 
ATOM      2  C   UNL     1       8.332   9.038  17.911  0.00  0.00    +0.000 C 
ENDROOT
BRANCH   1   9
ATOM      3  C   UNL     1      11.168  15.630  20.236  0.00  0.00    +0.000 A 
ATOM      4  C   UNL     1      10.596  15.152  21.416  0.00  0.00    +0.000 A 
ATOM      5  C   UNL     1      10.020  13.882  21.450  0.00  0.00    +0.000 A 
ATOM      6  C   UNL     1      10.011  13.093  20.298  0.00  0.00    +0.000 A 
ATOM      7  C   UNL     1       9.426  11.745  20.336  0.00  0.00    +0.000 A 
ATOM      8  O   UNL     1       8.940  11.334  21.384  0.00  0.00    +0.000 OA
ATOM      9  C   UNL     1       9.469  10.946  19.072  0.00  0.00    +0.000 A 
ATOM     10  C   UNL     1      10.022  11.559  18.011  0.00  0.00    +0.000 A 
ATOM     11  O   UNL     1      10.556  12.828  17.960  0.00  0.00    +0.000 OA
ATOM     12  C   UNL     1      10.554  13.570  19.113  0.00  0.00    +0.000 A 
ATOM     13  C   UNL     1      11.126  14.844  19.077  0.00  0.00    +0.000 A 
BRANCH   3  15
ATOM     14  C   UNL     1      10.862  17.958  19.970  0.00  0.00    +0.000 C 
ATOM     15  O   UNL     1      11.760  16.857  20.102  0.00  0.00    +0.000 OA
ENDBRANCH   3  15
ENDBRANCH   1   9
BRANCH   2  16
ATOM     16  C   UNL     1       7.847   7.635  17.939  0.00  0.00    +0.000 C 
ATOM     17  O   UNL     1       8.206   6.831  18.790  0.00  0.00    +0.000 OA
ATOM     18  N   UNL     1       6.967   7.353  16.921  0.00  0.00    +0.000 N 
ATOM     19  H   UNL     1       6.721   8.073  16.255  0.00  0.00    +0.000 HD
BRANCH  18  20
ATOM     20  C   UNL     1       6.392   6.028  16.782  0.00  0.00    +0.000 C 
BRANCH  20  21
ATOM     21  C   UNL     1       4.946   6.064  16.283  0.00  0.00    +0.000 C 
BRANCH  21  22
ATOM     22  C   UNL     1       4.005   5.351  17.222  0.00  0.00    +0.000 A 
ATOM     23  C   UNL     1       3.757   3.977  17.079  0.00  0.00    +0.000 A 
ATOM     24  C   UNL     1       2.864   3.321  17.932  0.00  0.00    +0.000 A 
ATOM     25  C   UNL     1       2.207   4.033  18.934  0.00  0.00    +0.000 A 
ATOM     26  C   UNL     1       2.451   5.393  19.076  0.00  0.00    +0.000 A 
ATOM     27  F   UNL     1       1.819   6.078  20.039  0.00  0.00    +0.000 F 
ATOM     28  C   UNL     1       3.338   6.057  18.233  0.00  0.00    +0.000 A 
ENDBRANCH  21  22
ENDBRANCH  20  21
ENDBRANCH  18  20
ENDBRANCH   2  16
TORSDOF 6
ENDMDL
MODEL 5
REMARK VINA RESULT:      -7.9      2.722      3.967
REMARK  Name = 
REMARK  7 active torsions:
REMARK  status: ('A' for Active; 'I' for Inactive)
REMARK    1  A    between atoms: C_1  and  O_2
REMARK    2  A    between atoms: O_2  and  C_3
REMARK    3  A    between atoms: C_9  and  C_10
REMARK    4  A    between atoms: C_11  and  C_12
REMARK    5  A    between atoms: N_14  and  C_15
REMARK    6  A    between atoms: C_15  and  C_16
REMARK    7  A    between atoms: C_16  and  C_17
REMARK                            x       y       z     vdW  Elec       q    Type
REMARK                         _______ _______ _______ _____ _____    ______ ____
ROOT
ATOM      1  C   UNL     1       2.953   6.732  18.318  0.00  0.00    +0.000 C 
ATOM      2  C   UNL     1       2.527   5.458  18.293  0.00  0.00    +0.000 C 
ENDROOT
BRANCH   1   9
ATOM      3  C   UNL     1      -0.333  11.544  21.336  0.00  0.00    +0.000 A 
ATOM      4  C   UNL     1      -0.301  10.460  22.216  0.00  0.00    +0.000 A 
ATOM      5  C   UNL     1       0.325   9.272  21.839  0.00  0.00    +0.000 A 
ATOM      6  C   UNL     1       0.913   9.166  20.577  0.00  0.00    +0.000 A 
ATOM      7  C   UNL     1       1.594   7.924  20.186  0.00  0.00    +0.000 A 
ATOM      8  O   UNL     1       1.625   6.986  20.975  0.00  0.00    +0.000 OA
ATOM      9  C   UNL     1       2.221   7.887  18.828  0.00  0.00    +0.000 A 
ATOM     10  C   UNL     1       2.074   8.999  18.086  0.00  0.00    +0.000 A 
ATOM     11  O   UNL     1       1.423  10.161  18.436  0.00  0.00    +0.000 OA
ATOM     12  C   UNL     1       0.864  10.230  19.686  0.00  0.00    +0.000 A 
ATOM     13  C   UNL     1       0.232  11.418  20.060  0.00  0.00    +0.000 A 
BRANCH   3  15
ATOM     14  C   UNL     1      -0.010  13.824  21.865  0.00  0.00    +0.000 C 
ATOM     15  O   UNL     1      -0.916  12.751  21.613  0.00  0.00    +0.000 OA
ENDBRANCH   3  15
ENDBRANCH   1   9
BRANCH   2  16
ATOM     16  C   UNL     1       3.379   4.370  17.750  0.00  0.00    +0.000 C 
ATOM     17  O   UNL     1       3.343   3.226  18.184  0.00  0.00    +0.000 OA
ATOM     18  N   UNL     1       4.192   4.790  16.724  0.00  0.00    +0.000 N 
ATOM     19  H   UNL     1       4.165   5.755  16.423  0.00  0.00    +0.000 HD
BRANCH  18  20
ATOM     20  C   UNL     1       5.102   3.866  16.072  0.00  0.00    +0.000 C 
BRANCH  20  21
ATOM     21  C   UNL     1       6.400   4.540  15.620  0.00  0.00    +0.000 C 
BRANCH  21  22
ATOM     22  C   UNL     1       7.026   5.357  16.723  0.00  0.00    +0.000 A 
ATOM     23  C   UNL     1       7.518   4.736  17.882  0.00  0.00    +0.000 A 
ATOM     24  C   UNL     1       8.073   5.496  18.917  0.00  0.00    +0.000 A 
ATOM     25  C   UNL     1       8.138   6.883  18.805  0.00  0.00    +0.000 A 
ATOM     26  C   UNL     1       7.651   7.498  17.658  0.00  0.00    +0.000 A 
ATOM     27  F   UNL     1       7.714   8.833  17.551  0.00  0.00    +0.000 F 
ATOM     28  C   UNL     1       7.096   6.753  16.622  0.00  0.00    +0.000 A 
ENDBRANCH  21  22
ENDBRANCH  20  21
ENDBRANCH  18  20
ENDBRANCH   2  16
TORSDOF 6
ENDMDL
MODEL 6
REMARK VINA RESULT:      -7.8      6.521      7.930
REMARK  Name = 
REMARK  7 active torsions:
REMARK  status: ('A' for Active; 'I' for Inactive)
REMARK    1  A    between atoms: C_1  and  O_2
REMARK    2  A    between atoms: O_2  and  C_3
REMARK    3  A    between atoms: C_9  and  C_10
REMARK    4  A    between atoms: C_11  and  C_12
REMARK    5  A    between atoms: N_14  and  C_15
REMARK    6  A    between atoms: C_15  and  C_16
REMARK    7  A    between atoms: C_16  and  C_17
REMARK                            x       y       z     vdW  Elec       q    Type
REMARK                         _______ _______ _______ _____ _____    ______ ____
ROOT
ATOM      1  C   UNL     1       7.830   9.424  17.852  0.00  0.00    +0.000 C 
ATOM      2  C   UNL     1       8.131   8.119  17.965  0.00  0.00    +0.000 C 
ENDROOT
BRANCH   1   9
ATOM      3  C   UNL     1      10.995  14.958  19.411  0.00  0.00    +0.000 A 
ATOM      4  C   UNL     1      10.056  15.289  18.431  0.00  0.00    +0.000 A 
ATOM      5  C   UNL     1       9.235  14.301  17.888  0.00  0.00    +0.000 A 
ATOM      6  C   UNL     1       9.359  12.979  18.319  0.00  0.00    +0.000 A 
ATOM      7  C   UNL     1       8.479  11.940  17.765  0.00  0.00    +0.000 A 
ATOM      8  O   UNL     1       7.651  12.249  16.916  0.00  0.00    +0.000 OA
ATOM      9  C   UNL     1       8.652  10.549  18.288  0.00  0.00    +0.000 A 
ATOM     10  C   UNL     1       9.623  10.385  19.205  0.00  0.00    +0.000 A 
ATOM     11  O   UNL     1      10.464  11.348  19.717  0.00  0.00    +0.000 OA
ATOM     12  C   UNL     1      10.307  12.636  19.274  0.00  0.00    +0.000 A 
ATOM     13  C   UNL     1      11.134  13.624  19.815  0.00  0.00    +0.000 A 
BRANCH   3  15
ATOM     14  C   UNL     1      11.386  16.389  21.249  0.00  0.00    +0.000 C 
ATOM     15  O   UNL     1      11.841  15.852  20.008  0.00  0.00    +0.000 OA
ENDBRANCH   3  15
ENDBRANCH   1   9
BRANCH   2  16
ATOM     16  C   UNL     1       7.205   7.069  17.471  0.00  0.00    +0.000 C 
ATOM     17  O   UNL     1       7.600   6.001  17.021  0.00  0.00    +0.000 OA
ATOM     18  N   UNL     1       5.883   7.429  17.577  0.00  0.00    +0.000 N 
ATOM     19  H   UNL     1       5.636   8.333  17.958  0.00  0.00    +0.000 HD
BRANCH  18  20
ATOM     20  C   UNL     1       4.830   6.532  17.136  0.00  0.00    +0.000 C 
BRANCH  20  21
ATOM     21  C   UNL     1       3.435   7.029  17.520  0.00  0.00    +0.000 C 
BRANCH  21  22
ATOM     22  C   UNL     1       2.704   6.042  18.397  0.00  0.00    +0.000 A 
ATOM     23  C   UNL     1       2.616   6.245  19.783  0.00  0.00    +0.000 A 
ATOM     24  C   UNL     1       1.963   5.317  20.600  0.00  0.00    +0.000 A 
ATOM     25  C   UNL     1       1.395   4.174  20.039  0.00  0.00    +0.000 A 
ATOM     26  C   UNL     1       1.484   3.971  18.667  0.00  0.00    +0.000 A 
ATOM     27  F   UNL     1       0.939   2.872  18.128  0.00  0.00    +0.000 F 
ATOM     28  C   UNL     1       2.131   4.888  17.844  0.00  0.00    +0.000 A 
ENDBRANCH  21  22
ENDBRANCH  20  21
ENDBRANCH  18  20
ENDBRANCH   2  16
TORSDOF 6
ENDMDL
MODEL 7
REMARK VINA RESULT:      -7.8      7.471      8.693
REMARK  Name = 
REMARK  7 active torsions:
REMARK  status: ('A' for Active; 'I' for Inactive)
REMARK    1  A    between atoms: C_1  and  O_2
REMARK    2  A    between atoms: O_2  and  C_3
REMARK    3  A    between atoms: C_9  and  C_10
REMARK    4  A    between atoms: C_11  and  C_12
REMARK    5  A    between atoms: N_14  and  C_15
REMARK    6  A    between atoms: C_15  and  C_16
REMARK    7  A    between atoms: C_16  and  C_17
REMARK                            x       y       z     vdW  Elec       q    Type
REMARK                         _______ _______ _______ _____ _____    ______ ____
ROOT
ATOM      1  C   UNL     1       9.049   9.684  19.206  0.00  0.00    +0.000 C 
ATOM      2  C   UNL     1       8.364   9.383  18.090  0.00  0.00    +0.000 C 
ENDROOT
BRANCH   1   9
ATOM      3  C   UNL     1      11.623  15.651  20.118  0.00  0.00    +0.000 A 
ATOM      4  C   UNL     1      12.023  15.226  18.849  0.00  0.00    +0.000 A 
ATOM      5  C   UNL     1      11.636  13.971  18.378  0.00  0.00    +0.000 A 
ATOM      6  C   UNL     1      10.854  13.138  19.181  0.00  0.00    +0.000 A 
ATOM      7  C   UNL     1      10.425  11.825  18.678  0.00  0.00    +0.000 A 
ATOM      8  O   UNL     1      10.774  11.472  17.558  0.00  0.00    +0.000 OA
ATOM      9  C   UNL     1       9.572  10.994  19.583  0.00  0.00    +0.000 A 
ATOM     10  C   UNL     1       9.301  11.528  20.787  0.00  0.00    +0.000 A 
ATOM     11  O   UNL     1       9.713  12.749  21.274  0.00  0.00    +0.000 OA
ATOM     12  C   UNL     1      10.473  13.542  20.454  0.00  0.00    +0.000 A 
ATOM     13  C   UNL     1      10.865  14.796  20.928  0.00  0.00    +0.000 A 
BRANCH   3  15
ATOM     14  C   UNL     1      11.344  17.140  21.931  0.00  0.00    +0.000 C 
ATOM     15  O   UNL     1      11.945  16.863  20.667  0.00  0.00    +0.000 OA
ENDBRANCH   3  15
ENDBRANCH   1   9
BRANCH   2  16
ATOM     16  C   UNL     1       7.880   8.004  17.829  0.00  0.00    +0.000 C 
ATOM     17  O   UNL     1       7.205   7.716  16.849  0.00  0.00    +0.000 OA
ATOM     18  N   UNL     1       8.272   7.109  18.796  0.00  0.00    +0.000 N 
ATOM     19  H   UNL     1       8.829   7.425  19.579  0.00  0.00    +0.000 HD
BRANCH  18  20
ATOM     20  C   UNL     1       7.888   5.711  18.714  0.00  0.00    +0.000 C 
BRANCH  20  21
ATOM     21  C   UNL     1       6.627   5.401  19.525  0.00  0.00    +0.000 C 
BRANCH  21  22
ATOM     22  C   UNL     1       5.516   4.863  18.657  0.00  0.00    +0.000 A 
ATOM     23  C   UNL     1       4.282   4.501  19.218  0.00  0.00    +0.000 A 
ATOM     24  C   UNL     1       3.261   3.976  18.419  0.00  0.00    +0.000 A 
ATOM     25  C   UNL     1       3.466   3.805  17.051  0.00  0.00    +0.000 A 
ATOM     26  C   UNL     1       4.688   4.162  16.495  0.00  0.00    +0.000 A 
ATOM     27  F   UNL     1       4.885   3.996  15.180  0.00  0.00    +0.000 F 
ATOM     28  C   UNL     1       5.711   4.685  17.280  0.00  0.00    +0.000 A 
ENDBRANCH  21  22
ENDBRANCH  20  21
ENDBRANCH  18  20
ENDBRANCH   2  16
TORSDOF 6
ENDMDL
MODEL 8
REMARK VINA RESULT:      -7.8      3.282      4.996
REMARK  Name = 
REMARK  7 active torsions:
REMARK  status: ('A' for Active; 'I' for Inactive)
REMARK    1  A    between atoms: C_1  and  O_2
REMARK    2  A    between atoms: O_2  and  C_3
REMARK    3  A    between atoms: C_9  and  C_10
REMARK    4  A    between atoms: C_11  and  C_12
REMARK    5  A    between atoms: N_14  and  C_15
REMARK    6  A    between atoms: C_15  and  C_16
REMARK    7  A    between atoms: C_16  and  C_17
REMARK                            x       y       z     vdW  Elec       q    Type
REMARK                         _______ _______ _______ _____ _____    ______ ____
ROOT
ATOM      1  C   UNL     1       3.012   6.631  18.587  0.00  0.00    +0.000 C 
ATOM      2  C   UNL     1       2.611   5.479  18.023  0.00  0.00    +0.000 C 
ENDROOT
BRANCH   1   9
ATOM      3  C   UNL     1      -0.880  11.438  20.781  0.00  0.00    +0.000 A 
ATOM      4  C   UNL     1      -0.512  11.777  19.477  0.00  0.00    +0.000 A 
ATOM      5  C   UNL     1       0.336  10.940  18.750  0.00  0.00    +0.000 A 
ATOM      6  C   UNL     1       0.823   9.768  19.333  0.00  0.00    +0.000 A 
ATOM      7  C   UNL     1       1.697   8.873  18.561  0.00  0.00    +0.000 A 
ATOM      8  O   UNL     1       2.001   9.178  17.414  0.00  0.00    +0.000 OA
ATOM      9  C   UNL     1       2.164   7.624  19.239  0.00  0.00    +0.000 A 
ATOM     10  C   UNL     1       1.751   7.458  20.509  0.00  0.00    +0.000 A 
ATOM     11  O   UNL     1       0.946   8.299  21.245  0.00  0.00    +0.000 OA
ATOM     12  C   UNL     1       0.483   9.436  20.637  0.00  0.00    +0.000 A 
ATOM     13  C   UNL     1      -0.362  10.276  21.367  0.00  0.00    +0.000 A 
BRANCH   3  15
ATOM     14  C   UNL     1      -1.726  11.826  22.952  0.00  0.00    +0.000 C 
ATOM     15  O   UNL     1      -1.708  12.187  21.572  0.00  0.00    +0.000 OA
ENDBRANCH   3  15
ENDBRANCH   1   9
BRANCH   2  16
ATOM     16  C   UNL     1       3.582   4.548  17.395  0.00  0.00    +0.000 C 
ATOM     17  O   UNL     1       3.266   3.434  17.000  0.00  0.00    +0.000 OA
ATOM     18  N   UNL     1       4.849   5.075  17.311  0.00  0.00    +0.000 N 
ATOM     19  H   UNL     1       5.032   6.005  17.663  0.00  0.00    +0.000 HD
BRANCH  18  20
ATOM     20  C   UNL     1       5.937   4.307  16.732  0.00  0.00    +0.000 C 
BRANCH  20  21
ATOM     21  C   UNL     1       6.911   5.176  15.934  0.00  0.00    +0.000 C 
BRANCH  21  22
ATOM     22  C   UNL     1       6.936   4.802  14.473  0.00  0.00    +0.000 A 
ATOM     23  C   UNL     1       7.810   5.446  13.584  0.00  0.00    +0.000 A 
ATOM     24  C   UNL     1       7.815   5.118  12.224  0.00  0.00    +0.000 A 
ATOM     25  C   UNL     1       6.941   4.146  11.739  0.00  0.00    +0.000 A 
ATOM     26  C   UNL     1       6.074   3.509  12.618  0.00  0.00    +0.000 A 
ATOM     27  F   UNL     1       5.234   2.575  12.152  0.00  0.00    +0.000 F 
ATOM     28  C   UNL     1       6.061   3.826  13.973  0.00  0.00    +0.000 A 
ENDBRANCH  21  22
ENDBRANCH  20  21
ENDBRANCH  18  20
ENDBRANCH   2  16
TORSDOF 6
ENDMDL
MODEL 9
REMARK VINA RESULT:      -7.8      6.577      7.991
REMARK  Name = 
REMARK  7 active torsions:
REMARK  status: ('A' for Active; 'I' for Inactive)
REMARK    1  A    between atoms: C_1  and  O_2
REMARK    2  A    between atoms: O_2  and  C_3
REMARK    3  A    between atoms: C_9  and  C_10
REMARK    4  A    between atoms: C_11  and  C_12
REMARK    5  A    between atoms: N_14  and  C_15
REMARK    6  A    between atoms: C_15  and  C_16
REMARK    7  A    between atoms: C_16  and  C_17
REMARK                            x       y       z     vdW  Elec       q    Type
REMARK                         _______ _______ _______ _____ _____    ______ ____
ROOT
ATOM      1  C   UNL     1       8.246   9.260  18.001  0.00  0.00    +0.000 C 
ATOM      2  C   UNL     1       8.397   8.062  18.590  0.00  0.00    +0.000 C 
ENDROOT
BRANCH   1   9
ATOM      3  C   UNL     1      10.579  15.252  19.313  0.00  0.00    +0.000 A 
ATOM      4  C   UNL     1       9.583  15.407  18.346  0.00  0.00    +0.000 A 
ATOM      5  C   UNL     1       8.908  14.290  17.853  0.00  0.00    +0.000 A 
ATOM      6  C   UNL     1       9.236  13.016  18.322  0.00  0.00    +0.000 A 
ATOM      7  C   UNL     1       8.510  11.841  17.822  0.00  0.00    +0.000 A 
ATOM      8  O   UNL     1       7.629  11.994  16.984  0.00  0.00    +0.000 OA
ATOM      9  C   UNL     1       8.899  10.509  18.383  0.00  0.00    +0.000 A 
ATOM     10  C   UNL     1       9.901  10.522  19.280  0.00  0.00    +0.000 A 
ATOM     11  O   UNL     1      10.598  11.617  19.742  0.00  0.00    +0.000 OA
ATOM     12  C   UNL     1      10.242  12.850  19.263  0.00  0.00    +0.000 A 
ATOM     13  C   UNL     1      10.923  13.968  19.754  0.00  0.00    +0.000 A 
BRANCH   3  15
ATOM     14  C   UNL     1      11.118  17.551  19.234  0.00  0.00    +0.000 C 
ATOM     15  O   UNL     1      11.293  16.282  19.862  0.00  0.00    +0.000 OA
ENDBRANCH   3  15
ENDBRANCH   1   9
BRANCH   2  16
ATOM     16  C   UNL     1       7.676   6.862  18.096  0.00  0.00    +0.000 C 
ATOM     17  O   UNL     1       7.256   5.991  18.845  0.00  0.00    +0.000 OA
ATOM     18  N   UNL     1       7.539   6.848  16.728  0.00  0.00    +0.000 N 
ATOM     19  H   UNL     1       7.917   7.606  16.176  0.00  0.00    +0.000 HD
BRANCH  18  20
ATOM     20  C   UNL     1       6.866   5.748  16.060  0.00  0.00    +0.000 C 
BRANCH  20  21
ATOM     21  C   UNL     1       5.425   6.088  15.673  0.00  0.00    +0.000 C 
BRANCH  21  22
ATOM     22  C   UNL     1       4.459   5.817  16.800  0.00  0.00    +0.000 A 
ATOM     23  C   UNL     1       3.923   6.874  17.552  0.00  0.00    +0.000 A 
ATOM     24  C   UNL     1       3.048   6.622  18.614  0.00  0.00    +0.000 A 
ATOM     25  C   UNL     1       2.705   5.310  18.937  0.00  0.00    +0.000 A 
ATOM     26  C   UNL     1       3.236   4.264  18.193  0.00  0.00    +0.000 A 
ATOM     27  F   UNL     1       2.907   3.003  18.504  0.00  0.00    +0.000 F 
ATOM     28  C   UNL     1       4.107   4.502  17.134  0.00  0.00    +0.000 A 
ENDBRANCH  21  22
ENDBRANCH  20  21
ENDBRANCH  18  20
ENDBRANCH   2  16
TORSDOF 6
ENDMDL
