MODEL 1
REMARK VINA RESULT:      -6.6      0.000      0.000
REMARK  Name = 
REMARK  10 active torsions:
REMARK  status: ('A' for Active; 'I' for Inactive)
REMARK    1  A    between atoms: C_1  and  O_2
REMARK    2  A    between atoms: O_2  and  C_3
REMARK    3  A    between atoms: C_7  and  C_8
REMARK    4  A    between atoms: C_8  and  C_9
REMARK    5  A    between atoms: C_8  and  N_17
REMARK    6  A    between atoms: N_11  and  C_12
REMARK    7  A    between atoms: N_17  and  C_25
REMARK    8  A    between atoms: C_18  and  C_20
REMARK    9  A    between atoms: C_32  and  O_33
REMARK   10  A    between atoms: O_33  and  C_34
REMARK                            x       y       z     vdW  Elec       q    Type
REMARK                         _______ _______ _______ _____ _____    ______ ____
ROOT
ATOM      1  C   UNL     1       0.996  13.602  20.558  0.00  0.00    +0.000 C 
ENDROOT
BRANCH   1   6
ATOM      2  C   UNL     1       3.295  15.427  18.107  0.00  0.00    +0.000 A 
ATOM      3  C   UNL     1       2.747  16.713  18.141  0.00  0.00    +0.000 A 
ATOM      4  C   UNL     1       1.590  16.975  18.870  0.00  0.00    +0.000 A 
ATOM      5  C   UNL     1       0.975  15.953  19.581  0.00  0.00    +0.000 A 
ATOM      6  C   UNL     1       1.455  14.631  19.504  0.00  0.00    +0.000 A 
ATOM      7  C   UNL     1       2.595  14.362  18.703  0.00  0.00    +0.000 A 
BRANCH   2   9
ATOM      8  C   UNL     1       5.662  15.472  18.336  0.00  0.00    +0.000 C 
ATOM      9  O   UNL     1       4.515  15.178  17.534  0.00  0.00    +0.000 OA
ENDBRANCH   2   9
BRANCH   7  10
ATOM     10  O   UNL     1       3.130  13.093  18.785  0.00  0.00    +0.000 OA
ATOM     11  C   UNL     1       2.655  12.192  17.779  0.00  0.00    +0.000 C 
ENDBRANCH   7  10
ENDBRANCH   1   6
BRANCH   1  12
ATOM     12  C   UNL     1       0.785  14.538  21.851  0.00  0.00    +0.000 C 
ATOM     13  O   UNL     1       1.712  14.933  22.557  0.00  0.00    +0.000 OA
ATOM     14  N   UNL     1      -0.562  14.740  22.196  0.00  0.00    +0.000 N 
ATOM     15  H   UNL     1      -1.254  14.282  21.611  0.00  0.00    +0.000 HD
BRANCH  14  16
ATOM     16  C   UNL     1      -1.025  15.223  23.495  0.00  0.00    +0.000 C 
ATOM     17  C   UNL     1      -1.636  16.622  23.409  0.00  0.00    +0.000 C 
ATOM     18  C   UNL     1      -2.388  16.782  24.726  0.00  0.00    +0.000 C 
ATOM     19  C   UNL     1      -2.863  15.378  25.093  0.00  0.00    +0.000 C 
ATOM     20  C   UNL     1      -2.212  14.432  24.074  0.00  0.00    +0.000 C 
ENDBRANCH  14  16
ENDBRANCH   1  12
BRANCH   1  21
ATOM     21  N   UNL     1      -0.156  12.630  20.250  0.00  0.00    +0.000 N 
ATOM     22  C   UNL     1      -0.862  12.668  19.010  0.00  0.00    +0.000 C 
ATOM     23  O   UNL     1      -0.611  13.568  18.208  0.00  0.00    +0.000 OA
BRANCH  21  24
ATOM     24  C   UNL     1      -0.210  11.480  21.119  0.00  0.00    +0.000 A 
ATOM     25  C   UNL     1      -1.010  11.499  22.267  0.00  0.00    +0.000 A 
ATOM     26  C   UNL     1      -1.016  10.415  23.156  0.00  0.00    +0.000 A 
ATOM     27  C   UNL     1      -0.211   9.300  22.925  0.00  0.00    +0.000 A 
ATOM     28  C   UNL     1       0.593   9.261  21.792  0.00  0.00    +0.000 A 
ATOM     29  C   UNL     1       0.588  10.339  20.904  0.00  0.00    +0.000 A 
ATOM     30  F   UNL     1       1.343  10.223  19.801  0.00  0.00    +0.000 F 
ENDBRANCH  21  24
BRANCH  22  31
ATOM     31  C   UNL     1      -1.886  11.698  18.557  0.00  0.00    +0.000 A 
ATOM     32  C   UNL     1      -1.641  10.458  17.944  0.00  0.00    +0.000 A 
ATOM     33  C   UNL     1      -2.879   9.847  17.675  0.00  0.00    +0.000 A 
ATOM     34  C   UNL     1      -3.829  10.735  18.121  0.00  0.00    +0.000 A 
ATOM     35  O   UNL     1      -3.244  11.838  18.670  0.00  0.00    +0.000 OA
ENDBRANCH  22  31
ENDBRANCH   1  21
TORSDOF 8
ENDMDL
MODEL 2
REMARK VINA RESULT:      -6.6      0.970      1.272
REMARK  Name = 
REMARK  10 active torsions:
REMARK  status: ('A' for Active; 'I' for Inactive)
REMARK    1  A    between atoms: C_1  and  O_2
REMARK    2  A    between atoms: O_2  and  C_3
REMARK    3  A    between atoms: C_7  and  C_8
REMARK    4  A    between atoms: C_8  and  C_9
REMARK    5  A    between atoms: C_8  and  N_17
REMARK    6  A    between atoms: N_11  and  C_12
REMARK    7  A    between atoms: N_17  and  C_25
REMARK    8  A    between atoms: C_18  and  C_20
REMARK    9  A    between atoms: C_32  and  O_33
REMARK   10  A    between atoms: O_33  and  C_34
REMARK                            x       y       z     vdW  Elec       q    Type
REMARK                         _______ _______ _______ _____ _____    ______ ____
ROOT
ATOM      1  C   UNL     1       0.958  13.912  20.762  0.00  0.00    +0.000 C 
ENDROOT
BRANCH   1   6
ATOM      2  C   UNL     1       3.416  15.380  18.227  0.00  0.00    +0.000 A 
ATOM      3  C   UNL     1       3.002  16.716  18.203  0.00  0.00    +0.000 A 
ATOM      4  C   UNL     1       1.882  17.126  18.921  0.00  0.00    +0.000 A 
ATOM      5  C   UNL     1       1.171  16.206  19.678  0.00  0.00    +0.000 A 
ATOM      6  C   UNL     1       1.513  14.839  19.661  0.00  0.00    +0.000 A 
ATOM      7  C   UNL     1       2.615  14.420  18.872  0.00  0.00    +0.000 A 
BRANCH   2   9
ATOM      8  C   UNL     1       5.792  15.409  18.330  0.00  0.00    +0.000 C 
ATOM      9  O   UNL     1       4.601  14.982  17.664  0.00  0.00    +0.000 OA
ENDBRANCH   2   9
BRANCH   7  10
ATOM     10  O   UNL     1       3.018  13.108  19.011  0.00  0.00    +0.000 OA
ATOM     11  C   UNL     1       2.545  12.238  17.978  0.00  0.00    +0.000 C 
ENDBRANCH   7  10
ENDBRANCH   1   6
BRANCH   1  12
ATOM     12  C   UNL     1       0.555  14.972  21.904  0.00  0.00    +0.000 C 
ATOM     13  O   UNL     1       1.370  15.474  22.678  0.00  0.00    +0.000 OA
ATOM     14  N   UNL     1      -0.829  15.162  22.045  0.00  0.00    +0.000 N 
ATOM     15  H   UNL     1      -1.427  14.619  21.428  0.00  0.00    +0.000 HD
BRANCH  14  16
ATOM     16  C   UNL     1      -1.473  15.764  23.211  0.00  0.00    +0.000 C 
ATOM     17  C   UNL     1      -2.995  15.828  23.063  0.00  0.00    +0.000 C 
ATOM     18  C   UNL     1      -3.494  16.105  24.477  0.00  0.00    +0.000 C 
ATOM     19  C   UNL     1      -2.491  15.419  25.402  0.00  0.00    +0.000 C 
ATOM     20  C   UNL     1      -1.350  14.930  24.498  0.00  0.00    +0.000 C 
ENDBRANCH  14  16
ENDBRANCH   1  12
BRANCH   1  21
ATOM     21  N   UNL     1      -0.114  12.859  20.428  0.00  0.00    +0.000 N 
ATOM     22  C   UNL     1      -0.822  12.873  19.189  0.00  0.00    +0.000 C 
ATOM     23  O   UNL     1      -0.644  13.810  18.410  0.00  0.00    +0.000 OA
BRANCH  21  24
ATOM     24  C   UNL     1      -0.075  11.687  21.268  0.00  0.00    +0.000 A 
ATOM     25  C   UNL     1       0.874  10.685  21.036  0.00  0.00    +0.000 A 
ATOM     26  C   UNL     1       0.876   9.508  21.800  0.00  0.00    +0.000 A 
ATOM     27  C   UNL     1      -0.077   9.304  22.797  0.00  0.00    +0.000 A 
ATOM     28  C   UNL     1      -1.030  10.287  23.042  0.00  0.00    +0.000 A 
ATOM     29  C   UNL     1      -1.023  11.460  22.285  0.00  0.00    +0.000 A 
ATOM     30  F   UNL     1      -1.931  12.395  22.602  0.00  0.00    +0.000 F 
ENDBRANCH  21  24
BRANCH  22  31
ATOM     31  C   UNL     1      -1.767  11.836  18.712  0.00  0.00    +0.000 A 
ATOM     32  C   UNL     1      -1.423  10.616  18.107  0.00  0.00    +0.000 A 
ATOM     33  C   UNL     1      -2.610   9.923  17.806  0.00  0.00    +0.000 A 
ATOM     34  C   UNL     1      -3.628  10.745  18.226  0.00  0.00    +0.000 A 
ATOM     35  O   UNL     1      -3.133  11.885  18.789  0.00  0.00    +0.000 OA
ENDBRANCH  22  31
ENDBRANCH   1  21
TORSDOF 8
ENDMDL
MODEL 3
REMARK VINA RESULT:      -6.3      2.773      6.172
REMARK  Name = 
REMARK  10 active torsions:
REMARK  status: ('A' for Active; 'I' for Inactive)
REMARK    1  A    between atoms: C_1  and  O_2
REMARK    2  A    between atoms: O_2  and  C_3
REMARK    3  A    between atoms: C_7  and  C_8
REMARK    4  A    between atoms: C_8  and  C_9
REMARK    5  A    between atoms: C_8  and  N_17
REMARK    6  A    between atoms: N_11  and  C_12
REMARK    7  A    between atoms: N_17  and  C_25
REMARK    8  A    between atoms: C_18  and  C_20
REMARK    9  A    between atoms: C_32  and  O_33
REMARK   10  A    between atoms: O_33  and  C_34
REMARK                            x       y       z     vdW  Elec       q    Type
REMARK                         _______ _______ _______ _____ _____    ______ ____
ROOT
ATOM      1  C   UNL     1       0.921  10.950  19.815  0.00  0.00    +0.000 C 
ENDROOT
BRANCH   1   6
ATOM      2  C   UNL     1       2.113   7.317  19.717  0.00  0.00    +0.000 A 
ATOM      3  C   UNL     1       2.519   7.210  18.384  0.00  0.00    +0.000 A 
ATOM      4  C   UNL     1       2.324   8.263  17.494  0.00  0.00    +0.000 A 
ATOM      5  C   UNL     1       1.730   9.438  17.933  0.00  0.00    +0.000 A 
ATOM      6  C   UNL     1       1.238   9.550  19.248  0.00  0.00    +0.000 A 
ATOM      7  C   UNL     1       1.381   8.446  20.127  0.00  0.00    +0.000 A 
BRANCH   2   9
ATOM      8  C   UNL     1       1.719   5.131  20.565  0.00  0.00    +0.000 C 
ATOM      9  O   UNL     1       2.437   6.365  20.649  0.00  0.00    +0.000 OA
ENDBRANCH   2   9
BRANCH   7  10
ATOM     10  O   UNL     1       1.037   8.653  21.448  0.00  0.00    +0.000 OA
ATOM     11  C   UNL     1      -0.309   8.286  21.767  0.00  0.00    +0.000 C 
ENDBRANCH   7  10
ENDBRANCH   1   6
BRANCH   1  12
ATOM     12  C   UNL     1       1.798  11.895  18.851  0.00  0.00    +0.000 C 
ATOM     13  O   UNL     1       2.571  11.458  18.000  0.00  0.00    +0.000 OA
ATOM     14  N   UNL     1       1.723  13.261  19.169  0.00  0.00    +0.000 N 
ATOM     15  H   UNL     1       1.138  13.512  19.960  0.00  0.00    +0.000 HD
BRANCH  14  16
ATOM     16  C   UNL     1       2.672  14.275  18.714  0.00  0.00    +0.000 C 
ATOM     17  C   UNL     1       2.025  15.655  18.577  0.00  0.00    +0.000 C 
ATOM     18  C   UNL     1       3.208  16.612  18.484  0.00  0.00    +0.000 C 
ATOM     19  C   UNL     1       4.311  15.976  19.326  0.00  0.00    +0.000 C 
ATOM     20  C   UNL     1       3.791  14.587  19.723  0.00  0.00    +0.000 C 
ENDBRANCH  14  16
ENDBRANCH   1  12
BRANCH   1  21
ATOM     21  N   UNL     1      -0.538  11.393  20.026  0.00  0.00    +0.000 N 
ATOM     22  C   UNL     1      -0.904  12.309  21.058  0.00  0.00    +0.000 C 
ATOM     23  O   UNL     1      -0.048  12.675  21.863  0.00  0.00    +0.000 OA
BRANCH  21  24
ATOM     24  C   UNL     1      -1.408  11.120  18.909  0.00  0.00    +0.000 A 
ATOM     25  C   UNL     1      -2.105   9.908  18.837  0.00  0.00    +0.000 A 
ATOM     26  C   UNL     1      -2.898   9.602  17.722  0.00  0.00    +0.000 A 
ATOM     27  C   UNL     1      -2.997  10.491  16.652  0.00  0.00    +0.000 A 
ATOM     28  C   UNL     1      -2.311  11.699  16.702  0.00  0.00    +0.000 A 
ATOM     29  C   UNL     1      -1.530  12.003  17.819  0.00  0.00    +0.000 A 
ATOM     30  F   UNL     1      -0.935  13.206  17.836  0.00  0.00    +0.000 F 
ENDBRANCH  21  24
BRANCH  22  31
ATOM     31  C   UNL     1      -2.245  12.905  21.261  0.00  0.00    +0.000 A 
ATOM     32  C   UNL     1      -3.162  12.561  22.268  0.00  0.00    +0.000 A 
ATOM     33  C   UNL     1      -4.309  13.360  22.112  0.00  0.00    +0.000 A 
ATOM     34  C   UNL     1      -4.057  14.150  21.016  0.00  0.00    +0.000 A 
ATOM     35  O   UNL     1      -2.815  13.899  20.511  0.00  0.00    +0.000 OA
ENDBRANCH  22  31
ENDBRANCH   1  21
TORSDOF 8
ENDMDL
MODEL 4
REMARK VINA RESULT:      -6.3      2.759      6.929
REMARK  Name = 
REMARK  10 active torsions:
REMARK  status: ('A' for Active; 'I' for Inactive)
REMARK    1  A    between atoms: C_1  and  O_2
REMARK    2  A    between atoms: O_2  and  C_3
REMARK    3  A    between atoms: C_7  and  C_8
REMARK    4  A    between atoms: C_8  and  C_9
REMARK    5  A    between atoms: C_8  and  N_17
REMARK    6  A    between atoms: N_11  and  C_12
REMARK    7  A    between atoms: N_17  and  C_25
REMARK    8  A    between atoms: C_18  and  C_20
REMARK    9  A    between atoms: C_32  and  O_33
REMARK   10  A    between atoms: O_33  and  C_34
REMARK                            x       y       z     vdW  Elec       q    Type
REMARK                         _______ _______ _______ _____ _____    ______ ____
ROOT
ATOM      1  C   UNL     1      -3.242  12.815  21.006  0.00  0.00    +0.000 C 
ENDROOT
BRANCH   1   6
ATOM      2  C   UNL     1      -5.132  15.488  22.982  0.00  0.00    +0.000 A 
ATOM      3  C   UNL     1      -5.854  16.110  21.958  0.00  0.00    +0.000 A 
ATOM      4  C   UNL     1      -5.667  15.740  20.629  0.00  0.00    +0.000 A 
ATOM      5  C   UNL     1      -4.761  14.737  20.312  0.00  0.00    +0.000 A 
ATOM      6  C   UNL     1      -3.960  14.146  21.309  0.00  0.00    +0.000 A 
ATOM      7  C   UNL     1      -4.111  14.578  22.652  0.00  0.00    +0.000 A 
BRANCH   2   9
ATOM      8  C   UNL     1      -5.124  17.030  24.792  0.00  0.00    +0.000 C 
ATOM      9  O   UNL     1      -5.412  15.717  24.304  0.00  0.00    +0.000 OA
ENDBRANCH   2   9
BRANCH   7  10
ATOM     10  O   UNL     1      -3.431  13.864  23.617  0.00  0.00    +0.000 OA
ATOM     11  C   UNL     1      -2.253  14.513  24.106  0.00  0.00    +0.000 C 
ENDBRANCH   7  10
ENDBRANCH   1   6
BRANCH   1  12
ATOM     12  C   UNL     1      -4.032  12.314  19.695  0.00  0.00    +0.000 C 
ATOM     13  O   UNL     1      -5.217  11.984  19.707  0.00  0.00    +0.000 OA
ATOM     14  N   UNL     1      -3.213  12.136  18.568  0.00  0.00    +0.000 N 
ATOM     15  H   UNL     1      -2.224  12.334  18.689  0.00  0.00    +0.000 HD
BRANCH  14  16
ATOM     16  C   UNL     1      -3.582  11.361  17.385  0.00  0.00    +0.000 C 
ATOM     17  C   UNL     1      -2.682  11.670  16.187  0.00  0.00    +0.000 C 
ATOM     18  C   UNL     1      -2.953  10.527  15.214  0.00  0.00    +0.000 C 
ATOM     19  C   UNL     1      -3.270   9.317  16.089  0.00  0.00    +0.000 C 
ATOM     20  C   UNL     1      -3.351   9.847  17.528  0.00  0.00    +0.000 C 
ENDBRANCH  14  16
ENDBRANCH   1  12
BRANCH   1  21
ATOM     21  N   UNL     1      -1.707  12.760  20.914  0.00  0.00    +0.000 N 
ATOM     22  C   UNL     1      -0.922  13.936  20.714  0.00  0.00    +0.000 C 
ATOM     23  O   UNL     1      -1.494  15.007  20.508  0.00  0.00    +0.000 OA
BRANCH  21  24
ATOM     24  C   UNL     1      -1.127  11.535  21.407  0.00  0.00    +0.000 A 
ATOM     25  C   UNL     1      -1.150  11.245  22.776  0.00  0.00    +0.000 A 
ATOM     26  C   UNL     1      -0.527  10.092  23.276  0.00  0.00    +0.000 A 
ATOM     27  C   UNL     1       0.144   9.218  22.422  0.00  0.00    +0.000 A 
ATOM     28  C   UNL     1       0.180   9.488  21.059  0.00  0.00    +0.000 A 
ATOM     29  C   UNL     1      -0.449  10.633  20.565  0.00  0.00    +0.000 A 
ATOM     30  F   UNL     1      -0.428  10.814  19.235  0.00  0.00    +0.000 F 
ENDBRANCH  21  24
BRANCH  22  31
ATOM     31  C   UNL     1       0.557  14.016  20.749  0.00  0.00    +0.000 A 
ATOM     32  C   UNL     1       1.334  14.558  21.786  0.00  0.00    +0.000 A 
ATOM     33  C   UNL     1       2.690  14.438  21.429  0.00  0.00    +0.000 A 
ATOM     34  C   UNL     1       2.690  13.840  20.192  0.00  0.00    +0.000 A 
ATOM     35  O   UNL     1       1.417  13.564  19.785  0.00  0.00    +0.000 OA
ENDBRANCH  22  31
ENDBRANCH   1  21
TORSDOF 8
ENDMDL
MODEL 5
REMARK VINA RESULT:      -6.2      2.784      5.722
REMARK  Name = 
REMARK  10 active torsions:
REMARK  status: ('A' for Active; 'I' for Inactive)
REMARK    1  A    between atoms: C_1  and  O_2
REMARK    2  A    between atoms: O_2  and  C_3
REMARK    3  A    between atoms: C_7  and  C_8
REMARK    4  A    between atoms: C_8  and  C_9
REMARK    5  A    between atoms: C_8  and  N_17
REMARK    6  A    between atoms: N_11  and  C_12
REMARK    7  A    between atoms: N_17  and  C_25
REMARK    8  A    between atoms: C_18  and  C_20
REMARK    9  A    between atoms: C_32  and  O_33
REMARK   10  A    between atoms: O_33  and  C_34
REMARK                            x       y       z     vdW  Elec       q    Type
REMARK                         _______ _______ _______ _____ _____    ______ ____
ROOT
ATOM      1  C   UNL     1       0.057  11.198  20.410  0.00  0.00    +0.000 C 
ENDROOT
BRANCH   1   6
ATOM      2  C   UNL     1       1.881   7.950  19.542  0.00  0.00    +0.000 A 
ATOM      3  C   UNL     1       2.431   8.282  18.300  0.00  0.00    +0.000 A 
ATOM      4  C   UNL     1       2.142   9.503  17.697  0.00  0.00    +0.000 A 
ATOM      5  C   UNL     1       1.307  10.409  18.336  0.00  0.00    +0.000 A 
ATOM      6  C   UNL     1       0.674  10.075  19.550  0.00  0.00    +0.000 A 
ATOM      7  C   UNL     1       0.922   8.801  20.122  0.00  0.00    +0.000 A 
BRANCH   2   9
ATOM      8  C   UNL     1       3.089   5.902  19.510  0.00  0.00    +0.000 C 
ATOM      9  O   UNL     1       2.275   6.831  20.230  0.00  0.00    +0.000 OA
ENDBRANCH   2   9
BRANCH   7  10
ATOM     10  O   UNL     1       0.417   8.576  21.387  0.00  0.00    +0.000 OA
ATOM     11  C   UNL     1       1.247   9.067  22.444  0.00  0.00    +0.000 C 
ENDBRANCH   7  10
ENDBRANCH   1   6
BRANCH   1  12
ATOM     12  C   UNL     1       1.183  12.344  20.299  0.00  0.00    +0.000 C 
ATOM     13  O   UNL     1       2.151  12.414  21.055  0.00  0.00    +0.000 OA
ATOM     14  N   UNL     1       0.885  13.349  19.364  0.00  0.00    +0.000 N 
ATOM     15  H   UNL     1       0.005  13.257  18.863  0.00  0.00    +0.000 HD
BRANCH  14  16
ATOM     16  C   UNL     1       1.524  14.663  19.321  0.00  0.00    +0.000 C 
ATOM     17  C   UNL     1       2.652  14.725  18.290  0.00  0.00    +0.000 C 
ATOM     18  C   UNL     1       2.917  16.216  18.118  0.00  0.00    +0.000 C 
ATOM     19  C   UNL     1       1.567  16.895  18.337  0.00  0.00    +0.000 C 
ATOM     20  C   UNL     1       0.611  15.790  18.808  0.00  0.00    +0.000 C 
ENDBRANCH  14  16
ENDBRANCH   1  12
BRANCH   1  21
ATOM     21  N   UNL     1      -1.389  11.665  20.163  0.00  0.00    +0.000 N 
ATOM     22  C   UNL     1      -1.974  12.731  20.910  0.00  0.00    +0.000 C 
ATOM     23  O   UNL     1      -1.340  13.222  21.845  0.00  0.00    +0.000 OA
BRANCH  21  24
ATOM     24  C   UNL     1      -1.950  11.216  18.912  0.00  0.00    +0.000 A 
ATOM     25  C   UNL     1      -2.645  10.003  18.846  0.00  0.00    +0.000 A 
ATOM     26  C   UNL     1      -3.134   9.522  17.622  0.00  0.00    +0.000 A 
ATOM     27  C   UNL     1      -2.925  10.235  16.442  0.00  0.00    +0.000 A 
ATOM     28  C   UNL     1      -2.235  11.441  16.486  0.00  0.00    +0.000 A 
ATOM     29  C   UNL     1      -1.758  11.920  17.708  0.00  0.00    +0.000 A 
ATOM     30  F   UNL     1      -1.148  13.115  17.697  0.00  0.00    +0.000 F 
ENDBRANCH  21  24
BRANCH  22  31
ATOM     31  C   UNL     1      -3.298  13.347  20.662  0.00  0.00    +0.000 A 
ATOM     32  C   UNL     1      -4.467  12.673  20.272  0.00  0.00    +0.000 A 
ATOM     33  C   UNL     1      -5.500  13.620  20.147  0.00  0.00    +0.000 A 
ATOM     34  C   UNL     1      -4.926  14.830  20.452  0.00  0.00    +0.000 A 
ATOM     35  O   UNL     1      -3.611  14.675  20.782  0.00  0.00    +0.000 OA
ENDBRANCH  22  31
ENDBRANCH   1  21
TORSDOF 8
ENDMDL
MODEL 6
REMARK VINA RESULT:      -6.2      3.056      7.113
REMARK  Name = 
REMARK  10 active torsions:
REMARK  status: ('A' for Active; 'I' for Inactive)
REMARK    1  A    between atoms: C_1  and  O_2
REMARK    2  A    between atoms: O_2  and  C_3
REMARK    3  A    between atoms: C_7  and  C_8
REMARK    4  A    between atoms: C_8  and  C_9
REMARK    5  A    between atoms: C_8  and  N_17
REMARK    6  A    between atoms: N_11  and  C_12
REMARK    7  A    between atoms: N_17  and  C_25
REMARK    8  A    between atoms: C_18  and  C_20
REMARK    9  A    between atoms: C_32  and  O_33
REMARK   10  A    between atoms: O_33  and  C_34
REMARK                            x       y       z     vdW  Elec       q    Type
REMARK                         _______ _______ _______ _____ _____    ______ ____
ROOT
ATOM      1  C   UNL     1      -2.027  13.615  21.662  0.00  0.00    +0.000 C 
ENDROOT
BRANCH   1   6
ATOM      2  C   UNL     1      -0.379  10.354  20.534  0.00  0.00    +0.000 A 
ATOM      3  C   UNL     1      -0.298   9.666  21.749  0.00  0.00    +0.000 A 
ATOM      4  C   UNL     1      -0.681  10.278  22.939  0.00  0.00    +0.000 A 
ATOM      5  C   UNL     1      -1.158  11.582  22.925  0.00  0.00    +0.000 A 
ATOM      6  C   UNL     1      -1.176  12.329  21.731  0.00  0.00    +0.000 A 
ATOM      7  C   UNL     1      -0.720  11.718  20.534  0.00  0.00    +0.000 A 
BRANCH   2   9
ATOM      8  C   UNL     1       1.202   9.513  18.969  0.00  0.00    +0.000 C 
ATOM      9  O   UNL     1      -0.164   9.726  19.334  0.00  0.00    +0.000 OA
ENDBRANCH   2   9
BRANCH   7  10
ATOM     10  O   UNL     1      -0.908  12.423  19.363  0.00  0.00    +0.000 OA
ATOM     11  C   UNL     1       0.246  13.145  18.922  0.00  0.00    +0.000 C 
ENDBRANCH   7  10
ENDBRANCH   1   6
BRANCH   1  12
ATOM     12  C   UNL     1      -3.513  13.011  21.524  0.00  0.00    +0.000 C 
ATOM     13  O   UNL     1      -4.078  12.395  22.426  0.00  0.00    +0.000 OA
ATOM     14  N   UNL     1      -4.053  13.114  20.231  0.00  0.00    +0.000 N 
ATOM     15  H   UNL     1      -3.463  13.547  19.525  0.00  0.00    +0.000 HD
BRANCH  14  16
ATOM     16  C   UNL     1      -5.195  12.345  19.742  0.00  0.00    +0.000 C 
ATOM     17  C   UNL     1      -6.491  13.157  19.758  0.00  0.00    +0.000 C 
ATOM     18  C   UNL     1      -7.444  12.355  18.879  0.00  0.00    +0.000 C 
ATOM     19  C   UNL     1      -6.560  11.684  17.830  0.00  0.00    +0.000 C 
ATOM     20  C   UNL     1      -5.112  11.975  18.250  0.00  0.00    +0.000 C 
ENDBRANCH  14  16
ENDBRANCH   1  12
BRANCH   1  21
ATOM     21  N   UNL     1      -1.858  14.719  22.721  0.00  0.00    +0.000 N 
ATOM     22  C   UNL     1      -0.571  15.202  23.106  0.00  0.00    +0.000 C 
ATOM     23  O   UNL     1       0.433  14.650  22.654  0.00  0.00    +0.000 OA
BRANCH  21  24
ATOM     24  C   UNL     1      -3.062  15.462  23.001  0.00  0.00    +0.000 A 
ATOM     25  C   UNL     1      -3.549  16.390  22.073  0.00  0.00    +0.000 A 
ATOM     26  C   UNL     1      -4.679  17.169  22.363  0.00  0.00    +0.000 A 
ATOM     27  C   UNL     1      -5.331  17.048  23.590  0.00  0.00    +0.000 A 
ATOM     28  C   UNL     1      -4.863  16.134  24.526  0.00  0.00    +0.000 A 
ATOM     29  C   UNL     1      -3.743  15.354  24.228  0.00  0.00    +0.000 A 
ATOM     30  F   UNL     1      -3.368  14.451  25.147  0.00  0.00    +0.000 F 
ENDBRANCH  21  24
BRANCH  22  31
ATOM     31  C   UNL     1      -0.301  16.348  24.005  0.00  0.00    +0.000 A 
ATOM     32  C   UNL     1      -0.269  17.703  23.636  0.00  0.00    +0.000 A 
ATOM     33  C   UNL     1       0.019  18.466  24.783  0.00  0.00    +0.000 A 
ATOM     34  C   UNL     1       0.161  17.554  25.801  0.00  0.00    +0.000 A 
ATOM     35  O   UNL     1      -0.049  16.284  25.350  0.00  0.00    +0.000 OA
ENDBRANCH  22  31
ENDBRANCH   1  21
TORSDOF 8
ENDMDL
MODEL 7
REMARK VINA RESULT:      -6.1      1.241      1.564
REMARK  Name = 
REMARK  10 active torsions:
REMARK  status: ('A' for Active; 'I' for Inactive)
REMARK    1  A    between atoms: C_1  and  O_2
REMARK    2  A    between atoms: O_2  and  C_3
REMARK    3  A    between atoms: C_7  and  C_8
REMARK    4  A    between atoms: C_8  and  C_9
REMARK    5  A    between atoms: C_8  and  N_17
REMARK    6  A    between atoms: N_11  and  C_12
REMARK    7  A    between atoms: N_17  and  C_25
REMARK    8  A    between atoms: C_18  and  C_20
REMARK    9  A    between atoms: C_32  and  O_33
REMARK   10  A    between atoms: O_33  and  C_34
REMARK                            x       y       z     vdW  Elec       q    Type
REMARK                         _______ _______ _______ _____ _____    ______ ____
ROOT
ATOM      1  C   UNL     1       0.869  13.911  20.729  0.00  0.00    +0.000 C 
ENDROOT
BRANCH   1   6
ATOM      2  C   UNL     1       3.482  15.261  18.284  0.00  0.00    +0.000 A 
ATOM      3  C   UNL     1       3.125  16.612  18.239  0.00  0.00    +0.000 A 
ATOM      4  C   UNL     1       1.996  17.073  18.910  0.00  0.00    +0.000 A 
ATOM      5  C   UNL     1       1.218  16.187  19.644  0.00  0.00    +0.000 A 
ATOM      6  C   UNL     1       1.504  14.808  19.646  0.00  0.00    +0.000 A 
ATOM      7  C   UNL     1       2.618  14.339  18.902  0.00  0.00    +0.000 A 
BRANCH   2   9
ATOM      8  C   UNL     1       5.858  15.336  18.370  0.00  0.00    +0.000 C 
ATOM      9  O   UNL     1       4.671  14.811  17.770  0.00  0.00    +0.000 OA
ENDBRANCH   2   9
BRANCH   7  10
ATOM     10  O   UNL     1       2.960  13.012  19.063  0.00  0.00    +0.000 OA
ATOM     11  C   UNL     1       2.541  12.165  17.988  0.00  0.00    +0.000 C 
ENDBRANCH   7  10
ENDBRANCH   1   6
BRANCH   1  12
ATOM     12  C   UNL     1       0.325  15.006  21.777  0.00  0.00    +0.000 C 
ATOM     13  O   UNL     1       0.988  15.416  22.729  0.00  0.00    +0.000 OA
ATOM     14  N   UNL     1      -1.028  15.340  21.602  0.00  0.00    +0.000 N 
ATOM     15  H   UNL     1      -1.520  14.866  20.851  0.00  0.00    +0.000 HD
BRANCH  14  16
ATOM     16  C   UNL     1      -1.857  16.004  22.606  0.00  0.00    +0.000 C 
ATOM     17  C   UNL     1      -2.085  17.482  22.283  0.00  0.00    +0.000 C 
ATOM     18  C   UNL     1      -3.246  17.885  23.186  0.00  0.00    +0.000 C 
ATOM     19  C   UNL     1      -4.103  16.629  23.328  0.00  0.00    +0.000 C 
ATOM     20  C   UNL     1      -3.310  15.499  22.656  0.00  0.00    +0.000 C 
ENDBRANCH  14  16
ENDBRANCH   1  12
BRANCH   1  21
ATOM     21  N   UNL     1      -0.135  12.811  20.341  0.00  0.00    +0.000 N 
ATOM     22  C   UNL     1      -0.787  12.802  19.071  0.00  0.00    +0.000 C 
ATOM     23  O   UNL     1      -0.621  13.753  18.307  0.00  0.00    +0.000 OA
BRANCH  21  24
ATOM     24  C   UNL     1      -0.076  11.635  21.173  0.00  0.00    +0.000 A 
ATOM     25  C   UNL     1       0.742  10.557  20.814  0.00  0.00    +0.000 A 
ATOM     26  C   UNL     1       0.754   9.380  21.576  0.00  0.00    +0.000 A 
ATOM     27  C   UNL     1      -0.062   9.251  22.700  0.00  0.00    +0.000 A 
ATOM     28  C   UNL     1      -0.883  10.308  23.072  0.00  0.00    +0.000 A 
ATOM     29  C   UNL     1      -0.885  11.482  22.315  0.00  0.00    +0.000 A 
ATOM     30  F   UNL     1      -1.657  12.488  22.753  0.00  0.00    +0.000 F 
ENDBRANCH  21  24
BRANCH  22  31
ATOM     31  C   UNL     1      -1.658  11.725  18.545  0.00  0.00    +0.000 A 
ATOM     32  C   UNL     1      -3.062  11.694  18.596  0.00  0.00    +0.000 A 
ATOM     33  C   UNL     1      -3.499  10.504  17.986  0.00  0.00    +0.000 A 
ATOM     34  C   UNL     1      -2.354   9.852  17.597  0.00  0.00    +0.000 A 
ATOM     35  O   UNL     1      -1.246  10.585  17.909  0.00  0.00    +0.000 OA
ENDBRANCH  22  31
ENDBRANCH   1  21
TORSDOF 8
ENDMDL
MODEL 8
REMARK VINA RESULT:      -6.1      2.494      5.557
REMARK  Name = 
REMARK  10 active torsions:
REMARK  status: ('A' for Active; 'I' for Inactive)
REMARK    1  A    between atoms: C_1  and  O_2
REMARK    2  A    between atoms: O_2  and  C_3
REMARK    3  A    between atoms: C_7  and  C_8
REMARK    4  A    between atoms: C_8  and  C_9
REMARK    5  A    between atoms: C_8  and  N_17
REMARK    6  A    between atoms: N_11  and  C_12
REMARK    7  A    between atoms: N_17  and  C_25
REMARK    8  A    between atoms: C_18  and  C_20
REMARK    9  A    between atoms: C_32  and  O_33
REMARK   10  A    between atoms: O_33  and  C_34
REMARK                            x       y       z     vdW  Elec       q    Type
REMARK                         _______ _______ _______ _____ _____    ______ ____
ROOT
ATOM      1  C   UNL     1      -0.019  11.526  20.358  0.00  0.00    +0.000 C 
ENDROOT
BRANCH   1   6
ATOM      2  C   UNL     1       1.591   8.113  19.740  0.00  0.00    +0.000 A 
ATOM      3  C   UNL     1       2.210   8.334  18.506  0.00  0.00    +0.000 A 
ATOM      4  C   UNL     1       2.034   9.537  17.828  0.00  0.00    +0.000 A 
ATOM      5  C   UNL     1       1.245  10.535  18.383  0.00  0.00    +0.000 A 
ATOM      6  C   UNL     1       0.544  10.316  19.585  0.00  0.00    +0.000 A 
ATOM      7  C   UNL     1       0.677   9.061  20.234  0.00  0.00    +0.000 A 
BRANCH   2   9
ATOM      8  C   UNL     1       2.283   5.838  19.789  0.00  0.00    +0.000 C 
ATOM      9  O   UNL     1       1.876   7.009  20.502  0.00  0.00    +0.000 OA
ENDBRANCH   2   9
BRANCH   7  10
ATOM     10  O   UNL     1       0.110   8.944  21.487  0.00  0.00    +0.000 OA
ATOM     11  C   UNL     1       1.000   9.256  22.564  0.00  0.00    +0.000 C 
ENDBRANCH   7  10
ENDBRANCH   1   6
BRANCH   1  12
ATOM     12  C   UNL     1       1.199  12.572  20.253  0.00  0.00    +0.000 C 
ATOM     13  O   UNL     1       2.106  12.637  21.082  0.00  0.00    +0.000 OA
ATOM     14  N   UNL     1       1.059  13.510  19.217  0.00  0.00    +0.000 N 
ATOM     15  H   UNL     1       0.218  13.440  18.651  0.00  0.00    +0.000 HD
BRANCH  14  16
ATOM     16  C   UNL     1       1.803  14.765  19.123  0.00  0.00    +0.000 C 
ATOM     17  C   UNL     1       2.924  14.697  18.084  0.00  0.00    +0.000 C 
ATOM     18  C   UNL     1       3.308  16.155  17.857  0.00  0.00    +0.000 C 
ATOM     19  C   UNL     1       2.020  16.950  18.058  0.00  0.00    +0.000 C 
ATOM     20  C   UNL     1       0.981  15.944  18.575  0.00  0.00    +0.000 C 
ENDBRANCH  14  16
ENDBRANCH   1  12
BRANCH   1  21
ATOM     21  N   UNL     1      -1.409  12.092  20.015  0.00  0.00    +0.000 N 
ATOM     22  C   UNL     1      -2.284  11.435  19.099  0.00  0.00    +0.000 C 
ATOM     23  O   UNL     1      -1.877  10.445  18.490  0.00  0.00    +0.000 OA
BRANCH  21  24
ATOM     24  C   UNL     1      -1.888  13.088  20.941  0.00  0.00    +0.000 A 
ATOM     25  C   UNL     1      -1.962  14.432  20.557  0.00  0.00    +0.000 A 
ATOM     26  C   UNL     1      -2.359  15.419  21.470  0.00  0.00    +0.000 A 
ATOM     27  C   UNL     1      -2.673  15.086  22.787  0.00  0.00    +0.000 A 
ATOM     28  C   UNL     1      -2.604  13.757  23.191  0.00  0.00    +0.000 A 
ATOM     29  C   UNL     1      -2.217  12.777  22.275  0.00  0.00    +0.000 A 
ATOM     30  F   UNL     1      -2.221  11.506  22.705  0.00  0.00    +0.000 F 
ENDBRANCH  21  24
BRANCH  22  31
ATOM     31  C   UNL     1      -3.686  11.815  18.804  0.00  0.00    +0.000 A 
ATOM     32  C   UNL     1      -4.319  11.743  17.552  0.00  0.00    +0.000 A 
ATOM     33  C   UNL     1      -5.644  12.192  17.702  0.00  0.00    +0.000 A 
ATOM     34  C   UNL     1      -5.766  12.530  19.028  0.00  0.00    +0.000 A 
ATOM     35  O   UNL     1      -4.605  12.288  19.702  0.00  0.00    +0.000 OA
ENDBRANCH  22  31
ENDBRANCH   1  21
TORSDOF 8
ENDMDL
MODEL 9
REMARK VINA RESULT:      -6.1      2.538      5.456
REMARK  Name = 
REMARK  10 active torsions:
REMARK  status: ('A' for Active; 'I' for Inactive)
REMARK    1  A    between atoms: C_1  and  O_2
REMARK    2  A    between atoms: O_2  and  C_3
REMARK    3  A    between atoms: C_7  and  C_8
REMARK    4  A    between atoms: C_8  and  C_9
REMARK    5  A    between atoms: C_8  and  N_17
REMARK    6  A    between atoms: N_11  and  C_12
REMARK    7  A    between atoms: N_17  and  C_25
REMARK    8  A    between atoms: C_18  and  C_20
REMARK    9  A    between atoms: C_32  and  O_33
REMARK   10  A    between atoms: O_33  and  C_34
REMARK                            x       y       z     vdW  Elec       q    Type
REMARK                         _______ _______ _______ _____ _____    ______ ____
ROOT
ATOM      1  C   UNL     1       0.030  11.486  20.394  0.00  0.00    +0.000 C 
ENDROOT
BRANCH   1   6
ATOM      2  C   UNL     1       1.638   8.091  19.676  0.00  0.00    +0.000 A 
ATOM      3  C   UNL     1       2.278   8.356  18.461  0.00  0.00    +0.000 A 
ATOM      4  C   UNL     1       2.117   9.584  17.825  0.00  0.00    +0.000 A 
ATOM      5  C   UNL     1       1.323  10.564  18.404  0.00  0.00    +0.000 A 
ATOM      6  C   UNL     1       0.602  10.303  19.586  0.00  0.00    +0.000 A 
ATOM      7  C   UNL     1       0.719   9.024  20.190  0.00  0.00    +0.000 A 
BRANCH   2   9
ATOM      8  C   UNL     1       2.584   5.909  19.704  0.00  0.00    +0.000 C 
ATOM      9  O   UNL     1       1.906   6.959  20.400  0.00  0.00    +0.000 OA
ENDBRANCH   2   9
BRANCH   7  10
ATOM     10  O   UNL     1       0.131   8.863  21.428  0.00  0.00    +0.000 OA
ATOM     11  C   UNL     1       0.962   9.256  22.526  0.00  0.00    +0.000 C 
ENDBRANCH   7  10
ENDBRANCH   1   6
BRANCH   1  12
ATOM     12  C   UNL     1       1.195  12.584  20.228  0.00  0.00    +0.000 C 
ATOM     13  O   UNL     1       2.186  12.631  20.956  0.00  0.00    +0.000 OA
ATOM     14  N   UNL     1       0.911  13.579  19.279  0.00  0.00    +0.000 N 
ATOM     15  H   UNL     1       0.016  13.512  18.804  0.00  0.00    +0.000 HD
BRANCH  14  16
ATOM     16  C   UNL     1       1.600  14.865  19.189  0.00  0.00    +0.000 C 
ATOM     17  C   UNL     1       2.732  14.846  18.161  0.00  0.00    +0.000 C 
ATOM     18  C   UNL     1       3.054  16.319  17.934  0.00  0.00    +0.000 C 
ATOM     19  C   UNL     1       1.730  17.056  18.123  0.00  0.00    +0.000 C 
ATOM     20  C   UNL     1       0.731  16.006  18.631  0.00  0.00    +0.000 C 
ENDBRANCH  14  16
ENDBRANCH   1  12
BRANCH   1  21
ATOM     21  N   UNL     1      -1.399  11.993  20.129  0.00  0.00    +0.000 N 
ATOM     22  C   UNL     1      -2.181  11.505  19.039  0.00  0.00    +0.000 C 
ATOM     23  O   UNL     1      -1.662  10.735  18.230  0.00  0.00    +0.000 OA
BRANCH  21  24
ATOM     24  C   UNL     1      -1.999  12.684  21.244  0.00  0.00    +0.000 A 
ATOM     25  C   UNL     1      -2.384  11.976  22.388  0.00  0.00    +0.000 A 
ATOM     26  C   UNL     1      -3.032  12.624  23.450  0.00  0.00    +0.000 A 
ATOM     27  C   UNL     1      -3.323  13.986  23.381  0.00  0.00    +0.000 A 
ATOM     28  C   UNL     1      -2.951  14.708  22.252  0.00  0.00    +0.000 A 
ATOM     29  C   UNL     1      -2.298  14.059  21.202  0.00  0.00    +0.000 A 
ATOM     30  F   UNL     1      -1.915  14.816  20.162  0.00  0.00    +0.000 F 
ENDBRANCH  21  24
BRANCH  22  31
ATOM     31  C   UNL     1      -3.605  11.819  18.776  0.00  0.00    +0.000 A 
ATOM     32  C   UNL     1      -4.270  11.686  17.545  0.00  0.00    +0.000 A 
ATOM     33  C   UNL     1      -5.607  12.086  17.722  0.00  0.00    +0.000 A 
ATOM     34  C   UNL     1      -5.706  12.456  19.041  0.00  0.00    +0.000 A 
ATOM     35  O   UNL     1      -4.517  12.281  19.687  0.00  0.00    +0.000 OA
ENDBRANCH  22  31
ENDBRANCH   1  21
TORSDOF 8
ENDMDL
