MODEL 1
REMARK VINA RESULT:      -8.7      0.000      0.000
REMARK  Name = 
REMARK  10 active torsions:
REMARK  status: ('A' for Active; 'I' for Inactive)
REMARK    1  A    between atoms: C_1  and  C_2
REMARK    2  A    between atoms: C_2  and  O_3
REMARK    3  A    between atoms: O_3  and  C_4
REMARK    4  A    between atoms: C_4  and  C_6
REMARK    5  A    between atoms: C_8  and  N_9
REMARK    6  A    between atoms: C_10  and  C_12
REMARK    7  A    between atoms: C_16  and  N_17
REMARK    8  A    between atoms: C_20  and  N_21
REMARK    9  A    between atoms: C_22  and  C_24
REMARK   10  A    between atoms: C_28  and  N_29
REMARK                            x       y       z     vdW  Elec       q    Type
REMARK                         _______ _______ _______ _____ _____    ______ ____
ROOT
ATOM      1  C   UNL     1       3.550   4.306  19.731  0.00  0.00    +0.000 A 
ATOM      2  C   UNL     1       2.993   5.576  19.934  0.00  0.00    +0.000 A 
ATOM      3  C   UNL     1       2.976   6.524  18.917  0.00  0.00    +0.000 A 
ATOM      4  C   UNL     1       3.535   6.185  17.681  0.00  0.00    +0.000 A 
ATOM      5  C   UNL     1       4.134   4.931  17.461  0.00  0.00    +0.000 A 
ATOM      6  C   UNL     1       4.126   3.987  18.493  0.00  0.00    +0.000 A 
ENDROOT
BRANCH   3   7
ATOM      7  N   UNL     1       2.374   7.798  19.065  0.00  0.00    +0.000 N 
ATOM      8  C   UNL     1       1.544   8.166  20.112  0.00  0.00    +0.000 C 
ATOM      9  O   UNL     1       1.303   7.492  21.109  0.00  0.00    +0.000 OA
ATOM     10  H   UNL     1       2.667   8.519  18.417  0.00  0.00    +0.000 HD
BRANCH   8  11
ATOM     11  C   UNL     1       0.918   9.510  20.047  0.00  0.00    +0.000 A 
ATOM     12  C   UNL     1      -0.045   9.807  21.022  0.00  0.00    +0.000 A 
ATOM     13  C   UNL     1      -0.738  11.011  20.980  0.00  0.00    +0.000 A 
ATOM     14  C   UNL     1      -0.487  11.913  19.947  0.00  0.00    +0.000 A 
ATOM     15  C   UNL     1       0.427  11.607  18.931  0.00  0.00    +0.000 A 
ATOM     16  C   UNL     1       1.172  10.423  19.016  0.00  0.00    +0.000 A 
BRANCH  15  17
ATOM     17  N   UNL     1       0.733  12.573  17.965  0.00  0.00    +0.000 N 
ATOM     18  H   UNL     1       1.605  12.392  17.474  0.00  0.00    +0.000 HD
ATOM     19  H   UNL     1       0.681  13.530  18.299  0.00  0.00    +0.000 HD
ENDBRANCH  15  17
ENDBRANCH   8  11
ENDBRANCH   3   7
BRANCH   5  20
ATOM     20  N   UNL     1       4.717   4.567  16.215  0.00  0.00    +0.000 N 
ATOM     21  C   UNL     1       6.029   4.838  15.856  0.00  0.00    +0.000 C 
ATOM     22  O   UNL     1       6.890   5.311  16.588  0.00  0.00    +0.000 OA
ATOM     23  H   UNL     1       4.166   3.969  15.612  0.00  0.00    +0.000 HD
BRANCH  21  24
ATOM     24  C   UNL     1       6.448   4.501  14.471  0.00  0.00    +0.000 A 
ATOM     25  C   UNL     1       7.468   5.288  13.906  0.00  0.00    +0.000 A 
ATOM     26  C   UNL     1       7.825   5.147  12.567  0.00  0.00    +0.000 A 
ATOM     27  C   UNL     1       7.160   4.217  11.771  0.00  0.00    +0.000 A 
ATOM     28  C   UNL     1       6.146   3.422  12.331  0.00  0.00    +0.000 A 
ATOM     29  C   UNL     1       5.784   3.555  13.686  0.00  0.00    +0.000 A 
BRANCH  28  30
ATOM     30  N   UNL     1       5.428   2.472  11.475  0.00  0.00    +0.000 N 
ATOM     31  O   UNL     1       6.003   1.413  11.177  0.00  0.00    +0.000 OA
ATOM     32  O   UNL     1       4.289   2.784  11.103  0.00  0.00    +0.000 OA
ENDBRANCH  28  30
ENDBRANCH  21  24
ENDBRANCH   5  20
BRANCH   1  33
ATOM     33  C   UNL     1       3.437   3.254  20.779  0.00  0.00    +0.000 C 
ATOM     34  O   UNL     1       4.121   2.245  20.801  0.00  0.00    +0.000 OA
BRANCH  33  35
ATOM     35  O   UNL     1       2.381   3.531  21.581  0.00  0.00    +0.000 OA
BRANCH  35  37
ATOM     36  C   UNL     1       0.622   2.908  20.091  0.00  0.00    +0.000 C 
ATOM     37  C   UNL     1       1.237   2.678  21.461  0.00  0.00    +0.000 C 
ENDBRANCH  35  37
ENDBRANCH  33  35
ENDBRANCH   1  33
TORSDOF 9
ENDMDL
MODEL 2
REMARK VINA RESULT:      -8.4      0.948      1.255
REMARK  Name = 
REMARK  10 active torsions:
REMARK  status: ('A' for Active; 'I' for Inactive)
REMARK    1  A    between atoms: C_1  and  C_2
REMARK    2  A    between atoms: C_2  and  O_3
REMARK    3  A    between atoms: O_3  and  C_4
REMARK    4  A    between atoms: C_4  and  C_6
REMARK    5  A    between atoms: C_8  and  N_9
REMARK    6  A    between atoms: C_10  and  C_12
REMARK    7  A    between atoms: C_16  and  N_17
REMARK    8  A    between atoms: C_20  and  N_21
REMARK    9  A    between atoms: C_22  and  C_24
REMARK   10  A    between atoms: C_28  and  N_29
REMARK                            x       y       z     vdW  Elec       q    Type
REMARK                         _______ _______ _______ _____ _____    ______ ____
ROOT
ATOM      1  C   UNL     1       3.793   3.983  19.716  0.00  0.00    +0.000 A 
ATOM      2  C   UNL     1       3.220   5.236  19.969  0.00  0.00    +0.000 A 
ATOM      3  C   UNL     1       3.172   6.216  18.983  0.00  0.00    +0.000 A 
ATOM      4  C   UNL     1       3.719   5.927  17.730  0.00  0.00    +0.000 A 
ATOM      5  C   UNL     1       4.335   4.691  17.460  0.00  0.00    +0.000 A 
ATOM      6  C   UNL     1       4.357   3.714  18.460  0.00  0.00    +0.000 A 
ENDROOT
BRANCH   3   7
ATOM      7  N   UNL     1       2.553   7.475  19.182  0.00  0.00    +0.000 N 
ATOM      8  C   UNL     1       1.667   7.770  20.206  0.00  0.00    +0.000 C 
ATOM      9  O   UNL     1       1.381   7.031  21.144  0.00  0.00    +0.000 OA
ATOM     10  H   UNL     1       2.873   8.238  18.597  0.00  0.00    +0.000 HD
BRANCH   8  11
ATOM     11  C   UNL     1       1.034   9.112  20.195  0.00  0.00    +0.000 A 
ATOM     12  C   UNL     1       1.123   9.844  19.002  0.00  0.00    +0.000 A 
ATOM     13  C   UNL     1       0.630  11.142  18.936  0.00  0.00    +0.000 A 
ATOM     14  C   UNL     1       0.067  11.722  20.071  0.00  0.00    +0.000 A 
ATOM     15  C   UNL     1       0.025  11.028  21.287  0.00  0.00    +0.000 A 
ATOM     16  C   UNL     1       0.461   9.697  21.331  0.00  0.00    +0.000 A 
BRANCH  15  17
ATOM     17  N   UNL     1      -0.636  11.596  22.383  0.00  0.00    +0.000 N 
ATOM     18  H   UNL     1      -0.931  10.914  23.077  0.00  0.00    +0.000 HD
ATOM     19  H   UNL     1      -1.390  12.229  22.134  0.00  0.00    +0.000 HD
ENDBRANCH  15  17
ENDBRANCH   8  11
ENDBRANCH   3   7
BRANCH   5  20
ATOM     20  N   UNL     1       4.906   4.378  16.195  0.00  0.00    +0.000 N 
ATOM     21  C   UNL     1       6.172   4.774  15.789  0.00  0.00    +0.000 C 
ATOM     22  O   UNL     1       7.009   5.332  16.488  0.00  0.00    +0.000 OA
ATOM     23  H   UNL     1       4.396   3.726  15.614  0.00  0.00    +0.000 HD
BRANCH  21  24
ATOM     24  C   UNL     1       6.572   4.471  14.390  0.00  0.00    +0.000 A 
ATOM     25  C   UNL     1       7.522   5.325  13.801  0.00  0.00    +0.000 A 
ATOM     26  C   UNL     1       7.849   5.213  12.452  0.00  0.00    +0.000 A 
ATOM     27  C   UNL     1       7.225   4.244  11.670  0.00  0.00    +0.000 A 
ATOM     28  C   UNL     1       6.281   3.383  12.253  0.00  0.00    +0.000 A 
ATOM     29  C   UNL     1       5.950   3.485  13.618  0.00  0.00    +0.000 A 
BRANCH  28  30
ATOM     30  N   UNL     1       5.603   2.390  11.412  0.00  0.00    +0.000 N 
ATOM     31  O   UNL     1       6.247   1.386  11.069  0.00  0.00    +0.000 OA
ATOM     32  O   UNL     1       4.427   2.615  11.098  0.00  0.00    +0.000 OA
ENDBRANCH  28  30
ENDBRANCH  21  24
ENDBRANCH   5  20
BRANCH   1  33
ATOM     33  C   UNL     1       3.712   2.895  20.730  0.00  0.00    +0.000 C 
ATOM     34  O   UNL     1       4.646   2.165  21.016  0.00  0.00    +0.000 OA
BRANCH  33  35
ATOM     35  O   UNL     1       2.430   2.765  21.147  0.00  0.00    +0.000 OA
BRANCH  35  37
ATOM     36  C   UNL     1       0.511   3.086  19.763  0.00  0.00    +0.000 C 
ATOM     37  C   UNL     1       1.530   2.079  20.270  0.00  0.00    +0.000 C 
ENDBRANCH  35  37
ENDBRANCH  33  35
ENDBRANCH   1  33
TORSDOF 9
ENDMDL
MODEL 3
REMARK VINA RESULT:      -8.3      1.073      1.401
REMARK  Name = 
REMARK  10 active torsions:
REMARK  status: ('A' for Active; 'I' for Inactive)
REMARK    1  A    between atoms: C_1  and  C_2
REMARK    2  A    between atoms: C_2  and  O_3
REMARK    3  A    between atoms: O_3  and  C_4
REMARK    4  A    between atoms: C_4  and  C_6
REMARK    5  A    between atoms: C_8  and  N_9
REMARK    6  A    between atoms: C_10  and  C_12
REMARK    7  A    between atoms: C_16  and  N_17
REMARK    8  A    between atoms: C_20  and  N_21
REMARK    9  A    between atoms: C_22  and  C_24
REMARK   10  A    between atoms: C_28  and  N_29
REMARK                            x       y       z     vdW  Elec       q    Type
REMARK                         _______ _______ _______ _____ _____    ______ ____
ROOT
ATOM      1  C   UNL     1       2.860   5.131  19.653  0.00  0.00    +0.000 A 
ATOM      2  C   UNL     1       2.393   6.452  19.654  0.00  0.00    +0.000 A 
ATOM      3  C   UNL     1       2.590   7.284  18.557  0.00  0.00    +0.000 A 
ATOM      4  C   UNL     1       3.274   6.775  17.450  0.00  0.00    +0.000 A 
ATOM      5  C   UNL     1       3.787   5.464  17.436  0.00  0.00    +0.000 A 
ATOM      6  C   UNL     1       3.563   4.640  18.544  0.00  0.00    +0.000 A 
ENDROOT
BRANCH   3   7
ATOM      7  N   UNL     1       2.087   8.607  18.497  0.00  0.00    +0.000 N 
ATOM      8  C   UNL     1       1.253   9.182  19.443  0.00  0.00    +0.000 C 
ATOM      9  O   UNL     1       0.924   8.678  20.513  0.00  0.00    +0.000 OA
ATOM     10  H   UNL     1       2.459   9.204  17.768  0.00  0.00    +0.000 HD
BRANCH   8  11
ATOM     11  C   UNL     1       0.739  10.545  19.160  0.00  0.00    +0.000 A 
ATOM     12  C   UNL     1      -0.648  10.676  19.002  0.00  0.00    +0.000 A 
ATOM     13  C   UNL     1      -1.202  11.903  18.652  0.00  0.00    +0.000 A 
ATOM     14  C   UNL     1      -0.366  12.997  18.436  0.00  0.00    +0.000 A 
ATOM     15  C   UNL     1       1.025  12.869  18.530  0.00  0.00    +0.000 A 
ATOM     16  C   UNL     1       1.572  11.649  18.949  0.00  0.00    +0.000 A 
BRANCH  15  17
ATOM     17  N   UNL     1       1.833  14.007  18.408  0.00  0.00    +0.000 N 
ATOM     18  H   UNL     1       1.313  14.849  18.177  0.00  0.00    +0.000 HD
ATOM     19  H   UNL     1       2.640  13.883  17.804  0.00  0.00    +0.000 HD
ENDBRANCH  15  17
ENDBRANCH   8  11
ENDBRANCH   3   7
BRANCH   5  20
ATOM     20  N   UNL     1       4.494   4.927  16.325  0.00  0.00    +0.000 N 
ATOM     21  C   UNL     1       5.619   5.507  15.760  0.00  0.00    +0.000 C 
ATOM     22  O   UNL     1       6.226   6.477  16.200  0.00  0.00    +0.000 OA
ATOM     23  H   UNL     1       4.220   4.004  16.014  0.00  0.00    +0.000 HD
BRANCH  21  24
ATOM     24  C   UNL     1       6.168   4.887  14.525  0.00  0.00    +0.000 A 
ATOM     25  C   UNL     1       7.401   5.379  14.060  0.00  0.00    +0.000 A 
ATOM     26  C   UNL     1       7.922   4.967  12.836  0.00  0.00    +0.000 A 
ATOM     27  C   UNL     1       7.211   4.058  12.055  0.00  0.00    +0.000 A 
ATOM     28  C   UNL     1       5.983   3.557  12.517  0.00  0.00    +0.000 A 
ATOM     29  C   UNL     1       5.453   3.963  13.757  0.00  0.00    +0.000 A 
BRANCH  28  30
ATOM     30  N   UNL     1       5.226   2.628  11.671  0.00  0.00    +0.000 N 
ATOM     31  O   UNL     1       4.102   2.983  11.284  0.00  0.00    +0.000 OA
ATOM     32  O   UNL     1       5.759   1.546  11.392  0.00  0.00    +0.000 OA
ENDBRANCH  28  30
ENDBRANCH  21  24
ENDBRANCH   5  20
BRANCH   1  33
ATOM     33  C   UNL     1       2.521   4.208  20.773  0.00  0.00    +0.000 C 
ATOM     34  O   UNL     1       2.563   4.528  21.949  0.00  0.00    +0.000 OA
BRANCH  33  35
ATOM     35  O   UNL     1       2.317   2.962  20.282  0.00  0.00    +0.000 OA
BRANCH  35  37
ATOM     36  C   UNL     1       0.811   2.258  18.568  0.00  0.00    +0.000 C 
ATOM     37  C   UNL     1       0.959   2.572  20.047  0.00  0.00    +0.000 C 
ENDBRANCH  35  37
ENDBRANCH  33  35
ENDBRANCH   1  33
TORSDOF 9
ENDMDL
MODEL 4
REMARK VINA RESULT:      -8.3      3.894      7.459
REMARK  Name = 
REMARK  10 active torsions:
REMARK  status: ('A' for Active; 'I' for Inactive)
REMARK    1  A    between atoms: C_1  and  C_2
REMARK    2  A    between atoms: C_2  and  O_3
REMARK    3  A    between atoms: O_3  and  C_4
REMARK    4  A    between atoms: C_4  and  C_6
REMARK    5  A    between atoms: C_8  and  N_9
REMARK    6  A    between atoms: C_10  and  C_12
REMARK    7  A    between atoms: C_16  and  N_17
REMARK    8  A    between atoms: C_20  and  N_21
REMARK    9  A    between atoms: C_22  and  C_24
REMARK   10  A    between atoms: C_28  and  N_29
REMARK                            x       y       z     vdW  Elec       q    Type
REMARK                         _______ _______ _______ _____ _____    ______ ____
ROOT
ATOM      1  C   UNL     1       1.645  12.377  18.560  0.00  0.00    +0.000 A 
ATOM      2  C   UNL     1       0.272  12.398  18.840  0.00  0.00    +0.000 A 
ATOM      3  C   UNL     1      -0.500  11.246  18.735  0.00  0.00    +0.000 A 
ATOM      4  C   UNL     1       0.124  10.061  18.334  0.00  0.00    +0.000 A 
ATOM      5  C   UNL     1       1.493  10.020  18.010  0.00  0.00    +0.000 A 
ATOM      6  C   UNL     1       2.253  11.186  18.138  0.00  0.00    +0.000 A 
ENDROOT
BRANCH   3   7
ATOM      7  N   UNL     1      -1.878  11.213  19.062  0.00  0.00    +0.000 N 
ATOM      8  C   UNL     1      -2.912  11.430  18.165  0.00  0.00    +0.000 C 
ATOM      9  O   UNL     1      -2.793  11.567  16.951  0.00  0.00    +0.000 OA
ATOM     10  H   UNL     1      -2.118  10.897  19.995  0.00  0.00    +0.000 HD
BRANCH   8  11
ATOM     11  C   UNL     1      -4.292  11.463  18.709  0.00  0.00    +0.000 A 
ATOM     12  C   UNL     1      -4.606  12.523  19.572  0.00  0.00    +0.000 A 
ATOM     13  C   UNL     1      -5.851  12.580  20.190  0.00  0.00    +0.000 A 
ATOM     14  C   UNL     1      -6.776  11.562  19.965  0.00  0.00    +0.000 A 
ATOM     15  C   UNL     1      -6.457  10.465  19.156  0.00  0.00    +0.000 A 
ATOM     16  C   UNL     1      -5.228  10.447  18.482  0.00  0.00    +0.000 A 
BRANCH  15  17
ATOM     17  N   UNL     1      -7.440   9.510  18.867  0.00  0.00    +0.000 N 
ATOM     18  H   UNL     1      -7.061   8.622  18.550  0.00  0.00    +0.000 HD
ATOM     19  H   UNL     1      -8.180   9.845  18.257  0.00  0.00    +0.000 HD
ENDBRANCH  15  17
ENDBRANCH   8  11
ENDBRANCH   3   7
BRANCH   5  20
ATOM     20  N   UNL     1       2.146   8.828  17.591  0.00  0.00    +0.000 N 
ATOM     21  C   UNL     1       2.502   7.790  18.440  0.00  0.00    +0.000 C 
ATOM     22  O   UNL     1       2.204   7.697  19.624  0.00  0.00    +0.000 OA
ATOM     23  H   UNL     1       2.244   8.689  16.593  0.00  0.00    +0.000 HD
BRANCH  21  24
ATOM     24  C   UNL     1       3.290   6.669  17.864  0.00  0.00    +0.000 A 
ATOM     25  C   UNL     1       2.715   5.387  17.933  0.00  0.00    +0.000 A 
ATOM     26  C   UNL     1       3.437   4.256  17.557  0.00  0.00    +0.000 A 
ATOM     27  C   UNL     1       4.749   4.393  17.110  0.00  0.00    +0.000 A 
ATOM     28  C   UNL     1       5.326   5.671  17.032  0.00  0.00    +0.000 A 
ATOM     29  C   UNL     1       4.601   6.820  17.403  0.00  0.00    +0.000 A 
BRANCH  28  30
ATOM     30  N   UNL     1       6.720   5.800  16.594  0.00  0.00    +0.000 N 
ATOM     31  O   UNL     1       7.309   4.770  16.227  0.00  0.00    +0.000 OA
ATOM     32  O   UNL     1       7.224   6.930  16.615  0.00  0.00    +0.000 OA
ENDBRANCH  28  30
ENDBRANCH  21  24
ENDBRANCH   5  20
BRANCH   1  33
ATOM     33  C   UNL     1       2.486  13.580  18.812  0.00  0.00    +0.000 C 
ATOM     34  O   UNL     1       3.565  13.775  18.277  0.00  0.00    +0.000 OA
BRANCH  33  35
ATOM     35  O   UNL     1       1.938  14.311  19.812  0.00  0.00    +0.000 OA
BRANCH  35  37
ATOM     36  C   UNL     1       1.578  16.328  21.038  0.00  0.00    +0.000 C 
ATOM     37  C   UNL     1       2.444  15.637  19.998  0.00  0.00    +0.000 C 
ENDBRANCH  35  37
ENDBRANCH  33  35
ENDBRANCH   1  33
TORSDOF 9
ENDMDL
MODEL 5
REMARK VINA RESULT:      -8.3      1.146      1.275
REMARK  Name = 
REMARK  10 active torsions:
REMARK  status: ('A' for Active; 'I' for Inactive)
REMARK    1  A    between atoms: C_1  and  C_2
REMARK    2  A    between atoms: C_2  and  O_3
REMARK    3  A    between atoms: O_3  and  C_4
REMARK    4  A    between atoms: C_4  and  C_6
REMARK    5  A    between atoms: C_8  and  N_9
REMARK    6  A    between atoms: C_10  and  C_12
REMARK    7  A    between atoms: C_16  and  N_17
REMARK    8  A    between atoms: C_20  and  N_21
REMARK    9  A    between atoms: C_22  and  C_24
REMARK   10  A    between atoms: C_28  and  N_29
REMARK                            x       y       z     vdW  Elec       q    Type
REMARK                         _______ _______ _______ _____ _____    ______ ____
ROOT
ATOM      1  C   UNL     1       2.586   4.922  20.031  0.00  0.00    +0.000 A 
ATOM      2  C   UNL     1       2.149   6.253  20.071  0.00  0.00    +0.000 A 
ATOM      3  C   UNL     1       2.443   7.137  19.039  0.00  0.00    +0.000 A 
ATOM      4  C   UNL     1       3.194   6.671  17.957  0.00  0.00    +0.000 A 
ATOM      5  C   UNL     1       3.678   5.350  17.907  0.00  0.00    +0.000 A 
ATOM      6  C   UNL     1       3.357   4.474  18.949  0.00  0.00    +0.000 A 
ENDROOT
BRANCH   3   7
ATOM      7  N   UNL     1       1.973   8.474  19.017  0.00  0.00    +0.000 N 
ATOM      8  C   UNL     1       1.156   9.044  19.979  0.00  0.00    +0.000 C 
ATOM      9  O   UNL     1       0.815   8.519  21.035  0.00  0.00    +0.000 OA
ATOM     10  H   UNL     1       2.360   9.081  18.303  0.00  0.00    +0.000 HD
BRANCH   8  11
ATOM     11  C   UNL     1       0.676  10.427  19.735  0.00  0.00    +0.000 A 
ATOM     12  C   UNL     1       0.960  11.378  20.726  0.00  0.00    +0.000 A 
ATOM     13  C   UNL     1       0.473  12.676  20.614  0.00  0.00    +0.000 A 
ATOM     14  C   UNL     1      -0.321  13.019  19.520  0.00  0.00    +0.000 A 
ATOM     15  C   UNL     1      -0.665  12.066  18.554  0.00  0.00    +0.000 A 
ATOM     16  C   UNL     1      -0.115  10.780  18.636  0.00  0.00    +0.000 A 
BRANCH  15  17
ATOM     17  N   UNL     1      -1.377  12.464  17.415  0.00  0.00    +0.000 N 
ATOM     18  H   UNL     1      -1.188  13.422  17.134  0.00  0.00    +0.000 HD
ATOM     19  H   UNL     1      -2.374  12.273  17.459  0.00  0.00    +0.000 HD
ENDBRANCH  15  17
ENDBRANCH   8  11
ENDBRANCH   3   7
BRANCH   5  20
ATOM     20  N   UNL     1       4.452   4.856  16.821  0.00  0.00    +0.000 N 
ATOM     21  C   UNL     1       5.179   5.655  15.952  0.00  0.00    +0.000 C 
ATOM     22  O   UNL     1       5.355   6.862  16.063  0.00  0.00    +0.000 OA
ATOM     23  H   UNL     1       4.567   3.852  16.764  0.00  0.00    +0.000 HD
BRANCH  21  24
ATOM     24  C   UNL     1       5.835   4.993  14.794  0.00  0.00    +0.000 A 
ATOM     25  C   UNL     1       7.152   5.390  14.496  0.00  0.00    +0.000 A 
ATOM     26  C   UNL     1       7.795   4.938  13.346  0.00  0.00    +0.000 A 
ATOM     27  C   UNL     1       7.126   4.084  12.473  0.00  0.00    +0.000 A 
ATOM     28  C   UNL     1       5.814   3.677  12.768  0.00  0.00    +0.000 A 
ATOM     29  C   UNL     1       5.160   4.124  13.932  0.00  0.00    +0.000 A 
BRANCH  28  30
ATOM     30  N   UNL     1       5.106   2.806  11.824  0.00  0.00    +0.000 N 
ATOM     31  O   UNL     1       5.652   1.739  11.500  0.00  0.00    +0.000 OA
ATOM     32  O   UNL     1       4.005   3.188  11.409  0.00  0.00    +0.000 OA
ENDBRANCH  28  30
ENDBRANCH  21  24
ENDBRANCH   5  20
BRANCH   1  33
ATOM     33  C   UNL     1       2.146   3.950  21.070  0.00  0.00    +0.000 C 
ATOM     34  O   UNL     1       2.812   3.660  22.050  0.00  0.00    +0.000 OA
BRANCH  33  35
ATOM     35  O   UNL     1       0.996   3.356  20.672  0.00  0.00    +0.000 OA
BRANCH  35  37
ATOM     36  C   UNL     1       0.651   2.249  18.584  0.00  0.00    +0.000 C 
ATOM     37  C   UNL     1       1.115   2.085  20.022  0.00  0.00    +0.000 C 
ENDBRANCH  35  37
ENDBRANCH  33  35
ENDBRANCH   1  33
TORSDOF 9
ENDMDL
MODEL 6
REMARK VINA RESULT:      -8.2      4.627     11.171
REMARK  Name = 
REMARK  10 active torsions:
REMARK  status: ('A' for Active; 'I' for Inactive)
REMARK    1  A    between atoms: C_1  and  C_2
REMARK    2  A    between atoms: C_2  and  O_3
REMARK    3  A    between atoms: O_3  and  C_4
REMARK    4  A    between atoms: C_4  and  C_6
REMARK    5  A    between atoms: C_8  and  N_9
REMARK    6  A    between atoms: C_10  and  C_12
REMARK    7  A    between atoms: C_16  and  N_17
REMARK    8  A    between atoms: C_20  and  N_21
REMARK    9  A    between atoms: C_22  and  C_24
REMARK   10  A    between atoms: C_28  and  N_29
REMARK                            x       y       z     vdW  Elec       q    Type
REMARK                         _______ _______ _______ _____ _____    ______ ____
ROOT
ATOM      1  C   UNL     1       1.268  12.334  18.616  0.00  0.00    +0.000 A 
ATOM      2  C   UNL     1       2.011  11.189  18.297  0.00  0.00    +0.000 A 
ATOM      3  C   UNL     1       1.382   9.979  18.020  0.00  0.00    +0.000 A 
ATOM      4  C   UNL     1      -0.013   9.926  18.075  0.00  0.00    +0.000 A 
ATOM      5  C   UNL     1      -0.782  11.051  18.429  0.00  0.00    +0.000 A 
ATOM      6  C   UNL     1      -0.131  12.261  18.687  0.00  0.00    +0.000 A 
ENDROOT
BRANCH   3   7
ATOM      7  N   UNL     1       2.094   8.814  17.641  0.00  0.00    +0.000 N 
ATOM      8  C   UNL     1       2.492   7.810  18.508  0.00  0.00    +0.000 C 
ATOM      9  O   UNL     1       2.192   7.725  19.696  0.00  0.00    +0.000 OA
ATOM     10  H   UNL     1       2.217   8.659  16.647  0.00  0.00    +0.000 HD
BRANCH   8  11
ATOM     11  C   UNL     1       3.323   6.714  17.950  0.00  0.00    +0.000 A 
ATOM     12  C   UNL     1       3.129   5.435  18.491  0.00  0.00    +0.000 A 
ATOM     13  C   UNL     1       3.926   4.372  18.082  0.00  0.00    +0.000 A 
ATOM     14  C   UNL     1       4.937   4.591  17.147  0.00  0.00    +0.000 A 
ATOM     15  C   UNL     1       5.184   5.874  16.642  0.00  0.00    +0.000 A 
ATOM     16  C   UNL     1       4.334   6.927  17.006  0.00  0.00    +0.000 A 
BRANCH  15  17
ATOM     17  N   UNL     1       6.137   6.045  15.630  0.00  0.00    +0.000 N 
ATOM     18  H   UNL     1       5.730   6.159  14.706  0.00  0.00    +0.000 HD
ATOM     19  H   UNL     1       6.878   5.351  15.633  0.00  0.00    +0.000 HD
ENDBRANCH  15  17
ENDBRANCH   8  11
ENDBRANCH   3   7
BRANCH   5  20
ATOM     20  N   UNL     1      -2.202  11.018  18.500  0.00  0.00    +0.000 N 
ATOM     21  C   UNL     1      -3.045  11.203  17.414  0.00  0.00    +0.000 C 
ATOM     22  O   UNL     1      -2.696  11.297  16.243  0.00  0.00    +0.000 OA
ATOM     23  H   UNL     1      -2.607  10.722  19.379  0.00  0.00    +0.000 HD
BRANCH  21  24
ATOM     24  C   UNL     1      -4.506  11.262  17.678  0.00  0.00    +0.000 A 
ATOM     25  C   UNL     1      -5.228  12.282  17.032  0.00  0.00    +0.000 A 
ATOM     26  C   UNL     1      -6.570  12.510  17.330  0.00  0.00    +0.000 A 
ATOM     27  C   UNL     1      -7.207  11.722  18.285  0.00  0.00    +0.000 A 
ATOM     28  C   UNL     1      -6.494  10.697  18.928  0.00  0.00    +0.000 A 
ATOM     29  C   UNL     1      -5.140  10.455  18.627  0.00  0.00    +0.000 A 
BRANCH  28  30
ATOM     30  N   UNL     1      -7.166   9.897  19.958  0.00  0.00    +0.000 N 
ATOM     31  O   UNL     1      -7.537  10.477  20.990  0.00  0.00    +0.000 OA
ATOM     32  O   UNL     1      -7.324   8.690  19.731  0.00  0.00    +0.000 OA
ENDBRANCH  28  30
ENDBRANCH  21  24
ENDBRANCH   5  20
BRANCH   1  33
ATOM     33  C   UNL     1       1.942  13.653  18.771  0.00  0.00    +0.000 C 
ATOM     34  O   UNL     1       3.141  13.822  18.624  0.00  0.00    +0.000 OA
BRANCH  33  35
ATOM     35  O   UNL     1       1.051  14.560  19.236  0.00  0.00    +0.000 OA
BRANCH  35  37
ATOM     36  C   UNL     1      -0.011  16.699  19.272  0.00  0.00    +0.000 C 
ATOM     37  C   UNL     1       1.152  15.892  18.719  0.00  0.00    +0.000 C 
ENDBRANCH  35  37
ENDBRANCH  33  35
ENDBRANCH   1  33
TORSDOF 9
ENDMDL
MODEL 7
REMARK VINA RESULT:      -8.2      4.068      7.694
REMARK  Name = 
REMARK  10 active torsions:
REMARK  status: ('A' for Active; 'I' for Inactive)
REMARK    1  A    between atoms: C_1  and  C_2
REMARK    2  A    between atoms: C_2  and  O_3
REMARK    3  A    between atoms: O_3  and  C_4
REMARK    4  A    between atoms: C_4  and  C_6
REMARK    5  A    between atoms: C_8  and  N_9
REMARK    6  A    between atoms: C_10  and  C_12
REMARK    7  A    between atoms: C_16  and  N_17
REMARK    8  A    between atoms: C_20  and  N_21
REMARK    9  A    between atoms: C_22  and  C_24
REMARK   10  A    between atoms: C_28  and  N_29
REMARK                            x       y       z     vdW  Elec       q    Type
REMARK                         _______ _______ _______ _____ _____    ______ ____
ROOT
ATOM      1  C   UNL     1       1.485  12.565  18.869  0.00  0.00    +0.000 A 
ATOM      2  C   UNL     1       0.100  12.645  19.068  0.00  0.00    +0.000 A 
ATOM      3  C   UNL     1      -0.713  11.527  18.916  0.00  0.00    +0.000 A 
ATOM      4  C   UNL     1      -0.118  10.316  18.552  0.00  0.00    +0.000 A 
ATOM      5  C   UNL     1       1.264  10.215  18.310  0.00  0.00    +0.000 A 
ATOM      6  C   UNL     1       2.065  11.348  18.484  0.00  0.00    +0.000 A 
ENDROOT
BRANCH   3   7
ATOM      7  N   UNL     1      -2.109  11.554  19.161  0.00  0.00    +0.000 N 
ATOM      8  C   UNL     1      -3.086  11.560  18.179  0.00  0.00    +0.000 C 
ATOM      9  O   UNL     1      -2.895  11.429  16.973  0.00  0.00    +0.000 OA
ATOM     10  H   UNL     1      -2.405  11.448  20.124  0.00  0.00    +0.000 HD
BRANCH   8  11
ATOM     11  C   UNL     1      -4.496  11.698  18.620  0.00  0.00    +0.000 A 
ATOM     12  C   UNL     1      -5.487  11.429  17.665  0.00  0.00    +0.000 A 
ATOM     13  C   UNL     1      -6.829  11.617  17.973  0.00  0.00    +0.000 A 
ATOM     14  C   UNL     1      -7.184  12.099  19.232  0.00  0.00    +0.000 A 
ATOM     15  C   UNL     1      -6.205  12.431  20.177  0.00  0.00    +0.000 A 
ATOM     16  C   UNL     1      -4.859  12.175  19.885  0.00  0.00    +0.000 A 
BRANCH  15  17
ATOM     17  N   UNL     1      -6.593  12.815  21.467  0.00  0.00    +0.000 N 
ATOM     18  H   UNL     1      -7.599  12.906  21.576  0.00  0.00    +0.000 HD
ATOM     19  H   UNL     1      -6.100  13.627  21.827  0.00  0.00    +0.000 HD
ENDBRANCH  15  17
ENDBRANCH   8  11
ENDBRANCH   3   7
BRANCH   5  20
ATOM     20  N   UNL     1       1.890   8.996  17.929  0.00  0.00    +0.000 N 
ATOM     21  C   UNL     1       2.230   7.982  18.812  0.00  0.00    +0.000 C 
ATOM     22  O   UNL     1       1.938   7.937  20.001  0.00  0.00    +0.000 OA
ATOM     23  H   UNL     1       1.977   8.819  16.936  0.00  0.00    +0.000 HD
BRANCH  21  24
ATOM     24  C   UNL     1       2.991   6.824  18.272  0.00  0.00    +0.000 A 
ATOM     25  C   UNL     1       4.021   7.111  17.358  0.00  0.00    +0.000 A 
ATOM     26  C   UNL     1       4.689   6.090  16.687  0.00  0.00    +0.000 A 
ATOM     27  C   UNL     1       4.330   4.764  16.917  0.00  0.00    +0.000 A 
ATOM     28  C   UNL     1       3.308   4.470  17.834  0.00  0.00    +0.000 A 
ATOM     29  C   UNL     1       2.633   5.497  18.522  0.00  0.00    +0.000 A 
BRANCH  28  30
ATOM     30  N   UNL     1       2.914   3.072  18.042  0.00  0.00    +0.000 N 
ATOM     31  O   UNL     1       2.135   2.563  17.221  0.00  0.00    +0.000 OA
ATOM     32  O   UNL     1       3.387   2.486  19.024  0.00  0.00    +0.000 OA
ENDBRANCH  28  30
ENDBRANCH  21  24
ENDBRANCH   5  20
BRANCH   1  33
ATOM     33  C   UNL     1       2.361  13.731  19.172  0.00  0.00    +0.000 C 
ATOM     34  O   UNL     1       2.074  14.602  19.976  0.00  0.00    +0.000 OA
BRANCH  33  35
ATOM     35  O   UNL     1       3.413  13.735  18.319  0.00  0.00    +0.000 OA
BRANCH  35  37
ATOM     36  C   UNL     1       3.456  15.835  17.182  0.00  0.00    +0.000 C 
ATOM     37  C   UNL     1       4.153  14.957  18.208  0.00  0.00    +0.000 C 
ENDBRANCH  35  37
ENDBRANCH  33  35
ENDBRANCH   1  33
TORSDOF 9
ENDMDL
MODEL 8
REMARK VINA RESULT:      -8.1      1.269      1.850
REMARK  Name = 
REMARK  10 active torsions:
REMARK  status: ('A' for Active; 'I' for Inactive)
REMARK    1  A    between atoms: C_1  and  C_2
REMARK    2  A    between atoms: C_2  and  O_3
REMARK    3  A    between atoms: O_3  and  C_4
REMARK    4  A    between atoms: C_4  and  C_6
REMARK    5  A    between atoms: C_8  and  N_9
REMARK    6  A    between atoms: C_10  and  C_12
REMARK    7  A    between atoms: C_16  and  N_17
REMARK    8  A    between atoms: C_20  and  N_21
REMARK    9  A    between atoms: C_22  and  C_24
REMARK   10  A    between atoms: C_28  and  N_29
REMARK                            x       y       z     vdW  Elec       q    Type
REMARK                         _______ _______ _______ _____ _____    ______ ____
ROOT
ATOM      1  C   UNL     1       2.620   5.558  19.563  0.00  0.00    +0.000 A 
ATOM      2  C   UNL     1       2.295   6.920  19.586  0.00  0.00    +0.000 A 
ATOM      3  C   UNL     1       2.611   7.752  18.517  0.00  0.00    +0.000 A 
ATOM      4  C   UNL     1       3.271   7.200  17.416  0.00  0.00    +0.000 A 
ATOM      5  C   UNL     1       3.642   5.843  17.381  0.00  0.00    +0.000 A 
ATOM      6  C   UNL     1       3.300   5.021  18.460  0.00  0.00    +0.000 A 
ENDROOT
BRANCH   3   7
ATOM      7  N   UNL     1       2.252   9.123  18.478  0.00  0.00    +0.000 N 
ATOM      8  C   UNL     1       1.220   9.693  19.206  0.00  0.00    +0.000 C 
ATOM      9  O   UNL     1       0.548   9.127  20.064  0.00  0.00    +0.000 OA
ATOM     10  H   UNL     1       2.870   9.742  17.967  0.00  0.00    +0.000 HD
BRANCH   8  11
ATOM     11  C   UNL     1       0.919  11.125  18.958  0.00  0.00    +0.000 A 
ATOM     12  C   UNL     1       1.981  11.924  18.510  0.00  0.00    +0.000 A 
ATOM     13  C   UNL     1       1.804  13.292  18.336  0.00  0.00    +0.000 A 
ATOM     14  C   UNL     1       0.569  13.868  18.632  0.00  0.00    +0.000 A 
ATOM     15  C   UNL     1      -0.482  13.095  19.138  0.00  0.00    +0.000 A 
ATOM     16  C   UNL     1      -0.320  11.708  19.247  0.00  0.00    +0.000 A 
BRANCH  15  17
ATOM     17  N   UNL     1      -1.740  13.681  19.330  0.00  0.00    +0.000 N 
ATOM     18  H   UNL     1      -2.221  13.344  20.159  0.00  0.00    +0.000 HD
ATOM     19  H   UNL     1      -2.340  13.660  18.511  0.00  0.00    +0.000 HD
ENDBRANCH  15  17
ENDBRANCH   8  11
ENDBRANCH   3   7
BRANCH   5  20
ATOM     20  N   UNL     1       4.322   5.261  16.276  0.00  0.00    +0.000 N 
ATOM     21  C   UNL     1       5.659   5.477  15.977  0.00  0.00    +0.000 C 
ATOM     22  O   UNL     1       6.460   6.089  16.673  0.00  0.00    +0.000 OA
ATOM     23  H   UNL     1       3.820   4.553  15.754  0.00  0.00    +0.000 HD
BRANCH  21  24
ATOM     24  C   UNL     1       6.186   4.893  14.716  0.00  0.00    +0.000 A 
ATOM     25  C   UNL     1       7.419   5.388  14.253  0.00  0.00    +0.000 A 
ATOM     26  C   UNL     1       7.921   5.012  13.009  0.00  0.00    +0.000 A 
ATOM     27  C   UNL     1       7.192   4.136  12.208  0.00  0.00    +0.000 A 
ATOM     28  C   UNL     1       5.964   3.632  12.668  0.00  0.00    +0.000 A 
ATOM     29  C   UNL     1       5.454   4.002  13.927  0.00  0.00    +0.000 A 
BRANCH  28  30
ATOM     30  N   UNL     1       5.188   2.739  11.800  0.00  0.00    +0.000 N 
ATOM     31  O   UNL     1       4.075   3.130  11.416  0.00  0.00    +0.000 OA
ATOM     32  O   UNL     1       5.695   1.651  11.501  0.00  0.00    +0.000 OA
ENDBRANCH  28  30
ENDBRANCH  21  24
ENDBRANCH   5  20
BRANCH   1  33
ATOM     33  C   UNL     1       2.152   4.650  20.647  0.00  0.00    +0.000 C 
ATOM     34  O   UNL     1       2.820   4.367  21.627  0.00  0.00    +0.000 OA
BRANCH  33  35
ATOM     35  O   UNL     1       0.967   4.098  20.291  0.00  0.00    +0.000 OA
BRANCH  35  37
ATOM     36  C   UNL     1       0.755   2.347  18.681  0.00  0.00    +0.000 C 
ATOM     37  C   UNL     1       0.932   2.673  20.155  0.00  0.00    +0.000 C 
ENDBRANCH  35  37
ENDBRANCH  33  35
ENDBRANCH   1  33
TORSDOF 9
ENDMDL
MODEL 9
REMARK VINA RESULT:      -8.1      1.012      1.250
REMARK  Name = 
REMARK  10 active torsions:
REMARK  status: ('A' for Active; 'I' for Inactive)
REMARK    1  A    between atoms: C_1  and  C_2
REMARK    2  A    between atoms: C_2  and  O_3
REMARK    3  A    between atoms: O_3  and  C_4
REMARK    4  A    between atoms: C_4  and  C_6
REMARK    5  A    between atoms: C_8  and  N_9
REMARK    6  A    between atoms: C_10  and  C_12
REMARK    7  A    between atoms: C_16  and  N_17
REMARK    8  A    between atoms: C_20  and  N_21
REMARK    9  A    between atoms: C_22  and  C_24
REMARK   10  A    between atoms: C_28  and  N_29
REMARK                            x       y       z     vdW  Elec       q    Type
REMARK                         _______ _______ _______ _____ _____    ______ ____
ROOT
ATOM      1  C   UNL     1       3.576   4.362  19.770  0.00  0.00    +0.000 A 
ATOM      2  C   UNL     1       3.132   5.673  19.987  0.00  0.00    +0.000 A 
ATOM      3  C   UNL     1       3.206   6.632  18.983  0.00  0.00    +0.000 A 
ATOM      4  C   UNL     1       3.742   6.261  17.746  0.00  0.00    +0.000 A 
ATOM      5  C   UNL     1       4.229   4.962  17.512  0.00  0.00    +0.000 A 
ATOM      6  C   UNL     1       4.131   4.009  18.531  0.00  0.00    +0.000 A 
ENDROOT
BRANCH   3   7
ATOM      7  N   UNL     1       2.719   7.953  19.145  0.00  0.00    +0.000 N 
ATOM      8  C   UNL     1       1.836   8.585  18.285  0.00  0.00    +0.000 C 
ATOM      9  O   UNL     1       1.265   8.063  17.331  0.00  0.00    +0.000 OA
ATOM     10  H   UNL     1       2.949   8.420  20.015  0.00  0.00    +0.000 HD
BRANCH   8  11
ATOM     11  C   UNL     1       1.518  10.008  18.556  0.00  0.00    +0.000 A 
ATOM     12  C   UNL     1       0.297  10.273  19.192  0.00  0.00    +0.000 A 
ATOM     13  C   UNL     1      -0.114  11.584  19.406  0.00  0.00    +0.000 A 
ATOM     14  C   UNL     1       0.686  12.635  18.962  0.00  0.00    +0.000 A 
ATOM     15  C   UNL     1       1.879  12.389  18.271  0.00  0.00    +0.000 A 
ATOM     16  C   UNL     1       2.320  11.068  18.119  0.00  0.00    +0.000 A 
BRANCH  15  17
ATOM     17  N   UNL     1       2.711  13.462  17.927  0.00  0.00    +0.000 N 
ATOM     18  H   UNL     1       2.395  14.354  18.297  0.00  0.00    +0.000 HD
ATOM     19  H   UNL     1       2.930  13.520  16.937  0.00  0.00    +0.000 HD
ENDBRANCH  15  17
ENDBRANCH   8  11
ENDBRANCH   3   7
BRANCH   5  20
ATOM     20  N   UNL     1       4.787   4.564  16.266  0.00  0.00    +0.000 N 
ATOM     21  C   UNL     1       6.038   4.952  15.808  0.00  0.00    +0.000 C 
ATOM     22  O   UNL     1       6.874   5.579  16.449  0.00  0.00    +0.000 OA
ATOM     23  H   UNL     1       4.281   3.859  15.744  0.00  0.00    +0.000 HD
BRANCH  21  24
ATOM     24  C   UNL     1       6.422   4.550  14.430  0.00  0.00    +0.000 A 
ATOM     25  C   UNL     1       7.482   5.258  13.834  0.00  0.00    +0.000 A 
ATOM     26  C   UNL     1       7.817   5.057  12.497  0.00  0.00    +0.000 A 
ATOM     27  C   UNL     1       7.090   4.145  11.735  0.00  0.00    +0.000 A 
ATOM     28  C   UNL     1       6.036   3.429  12.326  0.00  0.00    +0.000 A 
ATOM     29  C   UNL     1       5.696   3.622  13.679  0.00  0.00    +0.000 A 
BRANCH  28  30
ATOM     30  N   UNL     1       5.255   2.499  11.504  0.00  0.00    +0.000 N 
ATOM     31  O   UNL     1       4.122   2.856  11.144  0.00  0.00    +0.000 OA
ATOM     32  O   UNL     1       5.777   1.414  11.217  0.00  0.00    +0.000 OA
ENDBRANCH  28  30
ENDBRANCH  21  24
ENDBRANCH   5  20
BRANCH   1  33
ATOM     33  C   UNL     1       3.362   3.311  20.803  0.00  0.00    +0.000 C 
ATOM     34  O   UNL     1       4.029   2.292  20.879  0.00  0.00    +0.000 OA
BRANCH  33  35
ATOM     35  O   UNL     1       2.246   3.600  21.514  0.00  0.00    +0.000 OA
BRANCH  35  37
ATOM     36  C   UNL     1       0.565   2.966  19.941  0.00  0.00    +0.000 C 
ATOM     37  C   UNL     1       1.122   2.731  21.336  0.00  0.00    +0.000 C 
ENDBRANCH  35  37
ENDBRANCH  33  35
ENDBRANCH   1  33
TORSDOF 9
ENDMDL
