MODEL 1
REMARK VINA RESULT:      -6.5      0.000      0.000
REMARK  Name = 
REMARK  15 active torsions:
REMARK  status: ('A' for Active; 'I' for Inactive)
REMARK    1  A    between atoms: C_1  and  C_2
REMARK    2  A    between atoms: C_3  and  C_4
REMARK    3  A    between atoms: C_4  and  C_5
REMARK    4  A    between atoms: C_5  and  C_6
REMARK    5  A    between atoms: C_5  and  C_7
REMARK    6  A    between atoms: C_7  and  O_8
REMARK    7  A    between atoms: C_7  and  C_10
REMARK    8  A    between atoms: O_8  and  C_9
REMARK    9  A    between atoms: C_10  and  C_11
REMARK   10  A    between atoms: C_10  and  C_12
REMARK   11  A    between atoms: C_12  and  O_13
REMARK   12  A    between atoms: C_12  and  C_14
REMARK   13  A    between atoms: C_14  and  C_15
REMARK   14  A    between atoms: C_21  and  C_22
REMARK   15  A    between atoms: C_22  and  C_23
REMARK                            x       y       z     vdW  Elec       q    Type
REMARK                         _______ _______ _______ _____ _____    ______ ____
ROOT
ATOM      1  C   UNL     1       5.146   3.202  18.676  0.00  0.00    +0.000 C 
ENDROOT
BRANCH   1   2
ATOM      2  C   UNL     1       3.666   3.367  18.234  0.00  0.00    +0.000 C 
ATOM      3  C   UNL     1       3.331   2.072  17.452  0.00  0.00    +0.000 C 
BRANCH   2   4
ATOM      4  C   UNL     1       2.718   3.640  19.449  0.00  0.00    +0.000 C 
BRANCH   4   5
ATOM      5  C   UNL     1       1.923   4.984  19.349  0.00  0.00    +0.000 C 
ATOM      6  C   UNL     1       1.755   5.709  20.693  0.00  0.00    +0.000 C 
BRANCH   5   7
ATOM      7  C   UNL     1       2.494   6.014  18.345  0.00  0.00    +0.000 C 
BRANCH   7  10
ATOM      8  C   UNL     1       1.979   9.850  17.899  0.00  0.00    +0.000 C 
ATOM      9  C   UNL     1       2.495   8.454  17.782  0.00  0.00    +0.000 C 
ATOM     10  C   UNL     1       2.037   7.436  18.534  0.00  0.00    +0.000 C 
ENDBRANCH   7  10
ENDBRANCH   5   7
ENDBRANCH   4   5
BRANCH   4  11
ATOM     11  O   UNL     1       1.895   2.470  19.589  0.00  0.00    +0.000 OA
ATOM     12  C   UNL     1       0.539   2.564  19.190  0.00  0.00    +0.000 C 
ENDBRANCH   4  11
ENDBRANCH   2   4
ENDBRANCH   1   2
BRANCH   1  13
ATOM     13  O   UNL     1       5.206   2.570  19.947  0.00  0.00    +0.000 OA
ATOM     14  H   UNL     1       5.319   1.608  19.808  0.00  0.00    +0.000 HD
ENDBRANCH   1  13
BRANCH   1  15
ATOM     15  C   UNL     1       5.993   4.484  18.694  0.00  0.00    +0.000 C 
BRANCH  15  16
ATOM     16  C   UNL     1       6.907   4.731  17.458  0.00  0.00    +0.000 C 
ATOM     17  O   UNL     1       6.404   4.034  16.290  0.00  0.00    +0.000 OA
ATOM     18  C   UNL     1       5.524   4.631  15.444  0.00  0.00    +0.000 C 
ATOM     19  O   UNL     1       4.932   4.009  14.568  0.00  0.00    +0.000 OA
ATOM     20  C   UNL     1       5.333   6.088  15.601  0.00  0.00    +0.000 C 
ATOM     21  C   UNL     1       6.154   6.832  16.357  0.00  0.00    +0.000 C 
ATOM     22  C   UNL     1       7.285   6.191  17.112  0.00  0.00    +0.000 C 
BRANCH  22  23
ATOM     23  C   UNL     1       7.736   7.025  18.324  0.00  0.00    +0.000 C 
ATOM     24  C   UNL     1       8.133   8.450  17.951  0.00  0.00    +0.000 C 
ENDBRANCH  22  23
ENDBRANCH  15  16
ENDBRANCH   1  15
TORSDOF 10
ENDMDL
MODEL 2
REMARK VINA RESULT:      -6.5      1.926      3.013
REMARK  Name = 
REMARK  15 active torsions:
REMARK  status: ('A' for Active; 'I' for Inactive)
REMARK    1  A    between atoms: C_1  and  C_2
REMARK    2  A    between atoms: C_3  and  C_4
REMARK    3  A    between atoms: C_4  and  C_5
REMARK    4  A    between atoms: C_5  and  C_6
REMARK    5  A    between atoms: C_5  and  C_7
REMARK    6  A    between atoms: C_7  and  O_8
REMARK    7  A    between atoms: C_7  and  C_10
REMARK    8  A    between atoms: O_8  and  C_9
REMARK    9  A    between atoms: C_10  and  C_11
REMARK   10  A    between atoms: C_10  and  C_12
REMARK   11  A    between atoms: C_12  and  O_13
REMARK   12  A    between atoms: C_12  and  C_14
REMARK   13  A    between atoms: C_14  and  C_15
REMARK   14  A    between atoms: C_21  and  C_22
REMARK   15  A    between atoms: C_22  and  C_23
REMARK                            x       y       z     vdW  Elec       q    Type
REMARK                         _______ _______ _______ _____ _____    ______ ____
ROOT
ATOM      1  C   UNL     1       4.154   3.004  18.372  0.00  0.00    +0.000 C 
ENDROOT
BRANCH   1   2
ATOM      2  C   UNL     1       2.701   3.528  18.542  0.00  0.00    +0.000 C 
ATOM      3  C   UNL     1       1.796   2.298  18.288  0.00  0.00    +0.000 C 
BRANCH   2   4
ATOM      4  C   UNL     1       2.481   4.202  19.938  0.00  0.00    +0.000 C 
BRANCH   4   5
ATOM      5  C   UNL     1       2.357   5.761  19.881  0.00  0.00    +0.000 C 
ATOM      6  C   UNL     1       2.039   6.309  18.482  0.00  0.00    +0.000 C 
BRANCH   5   7
ATOM      7  C   UNL     1       1.323   6.374  20.856  0.00  0.00    +0.000 C 
BRANCH   7  10
ATOM      8  C   UNL     1       0.539  10.145  21.443  0.00  0.00    +0.000 C 
ATOM      9  C   UNL     1       0.423   8.699  21.091  0.00  0.00    +0.000 C 
ATOM     10  C   UNL     1       1.466   7.849  21.120  0.00  0.00    +0.000 C 
ENDBRANCH   7  10
ENDBRANCH   5   7
ENDBRANCH   4   5
BRANCH   4  11
ATOM     11  O   UNL     1       1.357   3.536  20.535  0.00  0.00    +0.000 OA
ATOM     12  C   UNL     1       1.587   2.766  21.701  0.00  0.00    +0.000 C 
ENDBRANCH   4  11
ENDBRANCH   2   4
ENDBRANCH   1   2
BRANCH   1  13
ATOM     13  O   UNL     1       4.673   2.591  19.628  0.00  0.00    +0.000 OA
ATOM     14  H   UNL     1       4.460   1.644  19.753  0.00  0.00    +0.000 HD
ENDBRANCH   1  13
BRANCH   1  15
ATOM     15  C   UNL     1       5.143   3.964  17.692  0.00  0.00    +0.000 C 
BRANCH  15  16
ATOM     16  C   UNL     1       5.239   5.400  18.286  0.00  0.00    +0.000 C 
ATOM     17  O   UNL     1       5.974   5.398  19.536  0.00  0.00    +0.000 OA
ATOM     18  C   UNL     1       7.321   5.571  19.556  0.00  0.00    +0.000 C 
ATOM     19  O   UNL     1       7.992   5.379  20.565  0.00  0.00    +0.000 OA
ATOM     20  C   UNL     1       7.951   6.041  18.305  0.00  0.00    +0.000 C 
ATOM     21  C   UNL     1       7.225   6.512  17.280  0.00  0.00    +0.000 C 
ATOM     22  C   UNL     1       5.724   6.540  17.359  0.00  0.00    +0.000 C 
BRANCH  22  23
ATOM     23  C   UNL     1       5.058   6.545  15.972  0.00  0.00    +0.000 C 
ATOM     24  C   UNL     1       5.719   5.582  14.990  0.00  0.00    +0.000 C 
ENDBRANCH  22  23
ENDBRANCH  15  16
ENDBRANCH   1  15
TORSDOF 10
ENDMDL
MODEL 3
REMARK VINA RESULT:      -6.5      2.266      6.336
REMARK  Name = 
REMARK  15 active torsions:
REMARK  status: ('A' for Active; 'I' for Inactive)
REMARK    1  A    between atoms: C_1  and  C_2
REMARK    2  A    between atoms: C_3  and  C_4
REMARK    3  A    between atoms: C_4  and  C_5
REMARK    4  A    between atoms: C_5  and  C_6
REMARK    5  A    between atoms: C_5  and  C_7
REMARK    6  A    between atoms: C_7  and  O_8
REMARK    7  A    between atoms: C_7  and  C_10
REMARK    8  A    between atoms: O_8  and  C_9
REMARK    9  A    between atoms: C_10  and  C_11
REMARK   10  A    between atoms: C_10  and  C_12
REMARK   11  A    between atoms: C_12  and  O_13
REMARK   12  A    between atoms: C_12  and  C_14
REMARK   13  A    between atoms: C_14  and  C_15
REMARK   14  A    between atoms: C_21  and  C_22
REMARK   15  A    between atoms: C_22  and  C_23
REMARK                            x       y       z     vdW  Elec       q    Type
REMARK                         _______ _______ _______ _____ _____    ______ ____
ROOT
ATOM      1  C   UNL     1       4.978   4.402  17.859  0.00  0.00    +0.000 C 
ENDROOT
BRANCH   1   2
ATOM      2  C   UNL     1       5.049   4.954  16.408  0.00  0.00    +0.000 C 
ATOM      3  C   UNL     1       4.990   6.494  16.558  0.00  0.00    +0.000 C 
BRANCH   2   4
ATOM      4  C   UNL     1       6.314   4.436  15.646  0.00  0.00    +0.000 C 
BRANCH   4   5
ATOM      5  C   UNL     1       6.250   4.631  14.095  0.00  0.00    +0.000 C 
ATOM      6  C   UNL     1       7.586   5.050  13.464  0.00  0.00    +0.000 C 
BRANCH   5   7
ATOM      7  C   UNL     1       5.735   3.408  13.298  0.00  0.00    +0.000 C 
BRANCH   7  10
ATOM      8  C   UNL     1       3.381   3.619  10.201  0.00  0.00    +0.000 C 
ATOM      9  C   UNL     1       3.981   3.254  11.518  0.00  0.00    +0.000 C 
ATOM     10  C   UNL     1       5.181   3.703  11.930  0.00  0.00    +0.000 C 
ENDBRANCH   7  10
ENDBRANCH   5   7
ENDBRANCH   4   5
BRANCH   4  11
ATOM     11  O   UNL     1       7.447   5.055  16.277  0.00  0.00    +0.000 OA
ATOM     12  C   UNL     1       7.904   4.507  17.501  0.00  0.00    +0.000 C 
ENDBRANCH   4  11
ENDBRANCH   2   4
ENDBRANCH   1   2
BRANCH   1  13
ATOM     13  O   UNL     1       4.597   3.034  17.841  0.00  0.00    +0.000 OA
ATOM     14  H   UNL     1       3.847   2.914  18.459  0.00  0.00    +0.000 HD
ENDBRANCH   1  13
BRANCH   1  15
ATOM     15  C   UNL     1       4.079   5.179  18.833  0.00  0.00    +0.000 C 
BRANCH  15  16
ATOM     16  C   UNL     1       2.556   5.197  18.511  0.00  0.00    +0.000 C 
ATOM     17  O   UNL     1       2.061   3.858  18.260  0.00  0.00    +0.000 OA
ATOM     18  C   UNL     1       1.582   3.086  19.271  0.00  0.00    +0.000 C 
ATOM     19  O   UNL     1       1.344   1.892  19.128  0.00  0.00    +0.000 OA
ATOM     20  C   UNL     1       1.324   3.763  20.559  0.00  0.00    +0.000 C 
ATOM     21  C   UNL     1       1.317   5.100  20.668  0.00  0.00    +0.000 C 
ATOM     22  C   UNL     1       1.617   5.963  19.474  0.00  0.00    +0.000 C 
BRANCH  22  23
ATOM     23  C   UNL     1       2.129   7.360  19.867  0.00  0.00    +0.000 C 
ATOM     24  C   UNL     1       1.381   7.955  21.057  0.00  0.00    +0.000 C 
ENDBRANCH  22  23
ENDBRANCH  15  16
ENDBRANCH   1  15
TORSDOF 10
ENDMDL
MODEL 4
REMARK VINA RESULT:      -6.4      2.858      6.665
REMARK  Name = 
REMARK  15 active torsions:
REMARK  status: ('A' for Active; 'I' for Inactive)
REMARK    1  A    between atoms: C_1  and  C_2
REMARK    2  A    between atoms: C_3  and  C_4
REMARK    3  A    between atoms: C_4  and  C_5
REMARK    4  A    between atoms: C_5  and  C_6
REMARK    5  A    between atoms: C_5  and  C_7
REMARK    6  A    between atoms: C_7  and  O_8
REMARK    7  A    between atoms: C_7  and  C_10
REMARK    8  A    between atoms: O_8  and  C_9
REMARK    9  A    between atoms: C_10  and  C_11
REMARK   10  A    between atoms: C_10  and  C_12
REMARK   11  A    between atoms: C_12  and  O_13
REMARK   12  A    between atoms: C_12  and  C_14
REMARK   13  A    between atoms: C_14  and  C_15
REMARK   14  A    between atoms: C_21  and  C_22
REMARK   15  A    between atoms: C_22  and  C_23
REMARK                            x       y       z     vdW  Elec       q    Type
REMARK                         _______ _______ _______ _____ _____    ______ ____
ROOT
ATOM      1  C   UNL     1       5.577   4.187  16.359  0.00  0.00    +0.000 C 
ENDROOT
BRANCH   1   2
ATOM      2  C   UNL     1       5.454   4.775  14.926  0.00  0.00    +0.000 C 
ATOM      3  C   UNL     1       5.353   6.308  15.127  0.00  0.00    +0.000 C 
BRANCH   2   4
ATOM      4  C   UNL     1       6.640   4.331  14.006  0.00  0.00    +0.000 C 
BRANCH   4   5
ATOM      5  C   UNL     1       6.202   3.872  12.576  0.00  0.00    +0.000 C 
ATOM      6  C   UNL     1       7.082   2.762  11.982  0.00  0.00    +0.000 C 
BRANCH   5   7
ATOM      7  C   UNL     1       4.733   3.401  12.457  0.00  0.00    +0.000 C 
BRANCH   7  10
ATOM      8  C   UNL     1       2.883   4.070   9.094  0.00  0.00    +0.000 C 
ATOM      9  C   UNL     1       3.342   4.145  10.513  0.00  0.00    +0.000 C 
ATOM     10  C   UNL     1       4.201   3.263  11.056  0.00  0.00    +0.000 C 
ENDBRANCH   7  10
ENDBRANCH   5   7
ENDBRANCH   4   5
BRANCH   4  11
ATOM     11  O   UNL     1       7.589   5.411  14.021  0.00  0.00    +0.000 OA
ATOM     12  C   UNL     1       8.258   5.719  12.811  0.00  0.00    +0.000 C 
ENDBRANCH   4  11
ENDBRANCH   2   4
ENDBRANCH   1   2
BRANCH   1  13
ATOM     13  O   UNL     1       5.417   2.776  16.320  0.00  0.00    +0.000 OA
ATOM     14  H   UNL     1       4.852   2.551  15.553  0.00  0.00    +0.000 HD
ENDBRANCH   1  13
BRANCH   1  15
ATOM     15  C   UNL     1       4.641   4.787  17.419  0.00  0.00    +0.000 C 
BRANCH  15  16
ATOM     16  C   UNL     1       3.128   4.441  17.286  0.00  0.00    +0.000 C 
ATOM     17  O   UNL     1       2.897   3.026  17.497  0.00  0.00    +0.000 OA
ATOM     18  C   UNL     1       2.643   2.535  18.739  0.00  0.00    +0.000 C 
ATOM     19  O   UNL     1       2.639   1.333  18.981  0.00  0.00    +0.000 OA
ATOM     20  C   UNL     1       2.331   3.522  19.793  0.00  0.00    +0.000 C 
ATOM     21  C   UNL     1       2.063   4.805  19.507  0.00  0.00    +0.000 C 
ATOM     22  C   UNL     1       2.114   5.294  18.086  0.00  0.00    +0.000 C 
BRANCH  22  23
ATOM     23  C   UNL     1       2.358   6.811  17.990  0.00  0.00    +0.000 C 
ATOM     24  C   UNL     1       2.534   7.473  19.353  0.00  0.00    +0.000 C 
ENDBRANCH  22  23
ENDBRANCH  15  16
ENDBRANCH   1  15
TORSDOF 10
ENDMDL
MODEL 5
REMARK VINA RESULT:      -6.3      1.359      1.637
REMARK  Name = 
REMARK  15 active torsions:
REMARK  status: ('A' for Active; 'I' for Inactive)
REMARK    1  A    between atoms: C_1  and  C_2
REMARK    2  A    between atoms: C_3  and  C_4
REMARK    3  A    between atoms: C_4  and  C_5
REMARK    4  A    between atoms: C_5  and  C_6
REMARK    5  A    between atoms: C_5  and  C_7
REMARK    6  A    between atoms: C_7  and  O_8
REMARK    7  A    between atoms: C_7  and  C_10
REMARK    8  A    between atoms: O_8  and  C_9
REMARK    9  A    between atoms: C_10  and  C_11
REMARK   10  A    between atoms: C_10  and  C_12
REMARK   11  A    between atoms: C_12  and  O_13
REMARK   12  A    between atoms: C_12  and  C_14
REMARK   13  A    between atoms: C_14  and  C_15
REMARK   14  A    between atoms: C_21  and  C_22
REMARK   15  A    between atoms: C_22  and  C_23
REMARK                            x       y       z     vdW  Elec       q    Type
REMARK                         _______ _______ _______ _____ _____    ______ ____
ROOT
ATOM      1  C   UNL     1       4.539   3.522  18.072  0.00  0.00    +0.000 C 
ENDROOT
BRANCH   1   2
ATOM      2  C   UNL     1       3.217   4.336  18.009  0.00  0.00    +0.000 C 
ATOM      3  C   UNL     1       2.164   3.354  17.439  0.00  0.00    +0.000 C 
BRANCH   2   4
ATOM      4  C   UNL     1       2.835   4.942  19.401  0.00  0.00    +0.000 C 
BRANCH   4   5
ATOM      5  C   UNL     1       2.958   6.499  19.476  0.00  0.00    +0.000 C 
ATOM      6  C   UNL     1       2.950   7.191  18.104  0.00  0.00    +0.000 C 
BRANCH   5   7
ATOM      7  C   UNL     1       1.891   7.204  20.347  0.00  0.00    +0.000 C 
BRANCH   7  10
ATOM      8  C   UNL     1       0.331  10.770  20.187  0.00  0.00    +0.000 C 
ATOM      9  C   UNL     1       0.704   9.391  20.621  0.00  0.00    +0.000 C 
ATOM     10  C   UNL     1       1.439   8.556  19.864  0.00  0.00    +0.000 C 
ENDBRANCH   7  10
ENDBRANCH   5   7
ENDBRANCH   4   5
BRANCH   4  11
ATOM     11  O   UNL     1       1.528   4.432  19.717  0.00  0.00    +0.000 OA
ATOM     12  C   UNL     1       1.394   3.629  20.876  0.00  0.00    +0.000 C 
ENDBRANCH   4  11
ENDBRANCH   2   4
ENDBRANCH   1   2
BRANCH   1  13
ATOM     13  O   UNL     1       4.394   2.429  18.969  0.00  0.00    +0.000 OA
ATOM     14  H   UNL     1       3.522   2.015  18.811  0.00  0.00    +0.000 HD
ENDBRANCH   1  13
BRANCH   1  15
ATOM     15  C   UNL     1       5.806   4.317  18.423  0.00  0.00    +0.000 C 
BRANCH  15  16
ATOM     16  C   UNL     1       6.802   4.589  17.257  0.00  0.00    +0.000 C 
ATOM     17  O   UNL     1       6.367   3.936  16.038  0.00  0.00    +0.000 OA
ATOM     18  C   UNL     1       5.552   4.572  15.156  0.00  0.00    +0.000 C 
ATOM     19  O   UNL     1       5.011   3.986  14.224  0.00  0.00    +0.000 OA
ATOM     20  C   UNL     1       5.370   6.026  15.347  0.00  0.00    +0.000 C 
ATOM     21  C   UNL     1       6.148   6.734  16.178  0.00  0.00    +0.000 C 
ATOM     22  C   UNL     1       7.219   6.053  16.983  0.00  0.00    +0.000 C 
BRANCH  22  23
ATOM     23  C   UNL     1       7.601   6.843  18.249  0.00  0.00    +0.000 C 
ATOM     24  C   UNL     1       8.027   8.277  17.949  0.00  0.00    +0.000 C 
ENDBRANCH  22  23
ENDBRANCH  15  16
ENDBRANCH   1  15
TORSDOF 10
ENDMDL
MODEL 6
REMARK VINA RESULT:      -6.3      1.787      5.906
REMARK  Name = 
REMARK  15 active torsions:
REMARK  status: ('A' for Active; 'I' for Inactive)
REMARK    1  A    between atoms: C_1  and  C_2
REMARK    2  A    between atoms: C_3  and  C_4
REMARK    3  A    between atoms: C_4  and  C_5
REMARK    4  A    between atoms: C_5  and  C_6
REMARK    5  A    between atoms: C_5  and  C_7
REMARK    6  A    between atoms: C_7  and  O_8
REMARK    7  A    between atoms: C_7  and  C_10
REMARK    8  A    between atoms: O_8  and  C_9
REMARK    9  A    between atoms: C_10  and  C_11
REMARK   10  A    between atoms: C_10  and  C_12
REMARK   11  A    between atoms: C_12  and  O_13
REMARK   12  A    between atoms: C_12  and  C_14
REMARK   13  A    between atoms: C_14  and  C_15
REMARK   14  A    between atoms: C_21  and  C_22
REMARK   15  A    between atoms: C_22  and  C_23
REMARK                            x       y       z     vdW  Elec       q    Type
REMARK                         _______ _______ _______ _____ _____    ______ ____
ROOT
ATOM      1  C   UNL     1       5.042   4.602  18.013  0.00  0.00    +0.000 C 
ENDROOT
BRANCH   1   2
ATOM      2  C   UNL     1       5.056   5.768  16.986  0.00  0.00    +0.000 C 
ATOM      3  C   UNL     1       4.123   6.848  17.588  0.00  0.00    +0.000 C 
BRANCH   2   4
ATOM      4  C   UNL     1       6.508   6.274  16.693  0.00  0.00    +0.000 C 
BRANCH   4   5
ATOM      5  C   UNL     1       7.144   7.103  17.857  0.00  0.00    +0.000 C 
ATOM      6  C   UNL     1       8.012   6.270  18.812  0.00  0.00    +0.000 C 
BRANCH   5   7
ATOM      7  C   UNL     1       7.993   8.318  17.413  0.00  0.00    +0.000 C 
BRANCH   7  10
ATOM      8  C   UNL     1       9.564  11.303  19.362  0.00  0.00    +0.000 C 
ATOM      9  C   UNL     1       9.181  10.341  18.287  0.00  0.00    +0.000 C 
ATOM     10  C   UNL     1       8.455   9.232  18.517  0.00  0.00    +0.000 C 
ENDBRANCH   7  10
ENDBRANCH   5   7
ENDBRANCH   4   5
BRANCH   4  11
ATOM     11  O   UNL     1       7.267   5.117  16.302  0.00  0.00    +0.000 OA
ATOM     12  C   UNL     1       7.132   4.657  14.969  0.00  0.00    +0.000 C 
ENDBRANCH   4  11
ENDBRANCH   2   4
ENDBRANCH   1   2
BRANCH   1  13
ATOM     13  O   UNL     1       4.790   3.372  17.348  0.00  0.00    +0.000 OA
ATOM     14  H   UNL     1       5.331   3.346  16.533  0.00  0.00    +0.000 HD
ENDBRANCH   1  13
BRANCH   1  15
ATOM     15  C   UNL     1       4.079   4.758  19.199  0.00  0.00    +0.000 C 
BRANCH  15  16
ATOM     16  C   UNL     1       2.571   4.938  18.853  0.00  0.00    +0.000 C 
ATOM     17  O   UNL     1       2.036   3.746  18.223  0.00  0.00    +0.000 OA
ATOM     18  C   UNL     1       1.488   2.748  18.966  0.00  0.00    +0.000 C 
ATOM     19  O   UNL     1       1.210   1.653  18.488  0.00  0.00    +0.000 OA
ATOM     20  C   UNL     1       1.204   3.053  20.383  0.00  0.00    +0.000 C 
ATOM     21  C   UNL     1       1.244   4.305  20.861  0.00  0.00    +0.000 C 
ATOM     22  C   UNL     1       1.625   5.450  19.964  0.00  0.00    +0.000 C 
BRANCH  22  23
ATOM     23  C   UNL     1       2.173   6.658  20.746  0.00  0.00    +0.000 C 
ATOM     24  C   UNL     1       1.148   7.776  20.909  0.00  0.00    +0.000 C 
ENDBRANCH  22  23
ENDBRANCH  15  16
ENDBRANCH   1  15
TORSDOF 10
ENDMDL
MODEL 7
REMARK VINA RESULT:      -6.3      1.973      3.399
REMARK  Name = 
REMARK  15 active torsions:
REMARK  status: ('A' for Active; 'I' for Inactive)
REMARK    1  A    between atoms: C_1  and  C_2
REMARK    2  A    between atoms: C_3  and  C_4
REMARK    3  A    between atoms: C_4  and  C_5
REMARK    4  A    between atoms: C_5  and  C_6
REMARK    5  A    between atoms: C_5  and  C_7
REMARK    6  A    between atoms: C_7  and  O_8
REMARK    7  A    between atoms: C_7  and  C_10
REMARK    8  A    between atoms: O_8  and  C_9
REMARK    9  A    between atoms: C_10  and  C_11
REMARK   10  A    between atoms: C_10  and  C_12
REMARK   11  A    between atoms: C_12  and  O_13
REMARK   12  A    between atoms: C_12  and  C_14
REMARK   13  A    between atoms: C_14  and  C_15
REMARK   14  A    between atoms: C_21  and  C_22
REMARK   15  A    between atoms: C_22  and  C_23
REMARK                            x       y       z     vdW  Elec       q    Type
REMARK                         _______ _______ _______ _____ _____    ______ ____
ROOT
ATOM      1  C   UNL     1       4.488   4.812  18.239  0.00  0.00    +0.000 C 
ENDROOT
BRANCH   1   2
ATOM      2  C   UNL     1       3.336   3.776  18.359  0.00  0.00    +0.000 C 
ATOM      3  C   UNL     1       3.571   2.774  17.202  0.00  0.00    +0.000 C 
BRANCH   2   4
ATOM      4  C   UNL     1       3.290   3.113  19.777  0.00  0.00    +0.000 C 
BRANCH   4   5
ATOM      5  C   UNL     1       1.847   2.938  20.354  0.00  0.00    +0.000 C 
ATOM      6  C   UNL     1       1.807   2.714  21.873  0.00  0.00    +0.000 C 
BRANCH   5   7
ATOM      7  C   UNL     1       0.867   4.093  20.038  0.00  0.00    +0.000 C 
BRANCH   7  10
ATOM      8  C   UNL     1       1.825   7.780  20.855  0.00  0.00    +0.000 C 
ATOM      9  C   UNL     1       1.656   6.466  20.168  0.00  0.00    +0.000 C 
ATOM     10  C   UNL     1       1.122   5.386  20.767  0.00  0.00    +0.000 C 
ENDBRANCH   7  10
ENDBRANCH   5   7
ENDBRANCH   4   5
BRANCH   4  11
ATOM     11  O   UNL     1       4.043   1.893  19.675  0.00  0.00    +0.000 OA
ATOM     12  C   UNL     1       5.036   1.645  20.655  0.00  0.00    +0.000 C 
ENDBRANCH   4  11
ENDBRANCH   2   4
ENDBRANCH   1   2
BRANCH   1  13
ATOM     13  O   UNL     1       4.703   5.448  19.490  0.00  0.00    +0.000 OA
ATOM     14  H   UNL     1       4.686   6.416  19.351  0.00  0.00    +0.000 HD
ENDBRANCH   1  13
BRANCH   1  15
ATOM     15  C   UNL     1       4.331   5.872  17.138  0.00  0.00    +0.000 C 
BRANCH  15  16
ATOM     16  C   UNL     1       5.628   6.297  16.390  0.00  0.00    +0.000 C 
ATOM     17  O   UNL     1       6.545   6.977  17.283  0.00  0.00    +0.000 OA
ATOM     18  C   UNL     1       7.478   6.286  17.989  0.00  0.00    +0.000 C 
ATOM     19  O   UNL     1       8.130   6.800  18.892  0.00  0.00    +0.000 OA
ATOM     20  C   UNL     1       7.704   4.880  17.594  0.00  0.00    +0.000 C 
ATOM     21  C   UNL     1       7.211   4.376  16.453  0.00  0.00    +0.000 C 
ATOM     22  C   UNL     1       6.366   5.228  15.548  0.00  0.00    +0.000 C 
BRANCH  22  23
ATOM     23  C   UNL     1       5.439   4.394  14.644  0.00  0.00    +0.000 C 
ATOM     24  C   UNL     1       6.153   3.831  13.419  0.00  0.00    +0.000 C 
ENDBRANCH  22  23
ENDBRANCH  15  16
ENDBRANCH   1  15
TORSDOF 10
ENDMDL
MODEL 8
REMARK VINA RESULT:      -6.3      1.758      5.937
REMARK  Name = 
REMARK  15 active torsions:
REMARK  status: ('A' for Active; 'I' for Inactive)
REMARK    1  A    between atoms: C_1  and  C_2
REMARK    2  A    between atoms: C_3  and  C_4
REMARK    3  A    between atoms: C_4  and  C_5
REMARK    4  A    between atoms: C_5  and  C_6
REMARK    5  A    between atoms: C_5  and  C_7
REMARK    6  A    between atoms: C_7  and  O_8
REMARK    7  A    between atoms: C_7  and  C_10
REMARK    8  A    between atoms: O_8  and  C_9
REMARK    9  A    between atoms: C_10  and  C_11
REMARK   10  A    between atoms: C_10  and  C_12
REMARK   11  A    between atoms: C_12  and  O_13
REMARK   12  A    between atoms: C_12  and  C_14
REMARK   13  A    between atoms: C_14  and  C_15
REMARK   14  A    between atoms: C_21  and  C_22
REMARK   15  A    between atoms: C_22  and  C_23
REMARK                            x       y       z     vdW  Elec       q    Type
REMARK                         _______ _______ _______ _____ _____    ______ ____
ROOT
ATOM      1  C   UNL     1       4.055   3.122  18.520  0.00  0.00    +0.000 C 
ENDROOT
BRANCH   1   2
ATOM      2  C   UNL     1       4.874   3.200  17.201  0.00  0.00    +0.000 C 
ATOM      3  C   UNL     1       3.827   3.073  16.067  0.00  0.00    +0.000 C 
BRANCH   2   4
ATOM      4  C   UNL     1       5.739   4.502  17.126  0.00  0.00    +0.000 C 
BRANCH   4   5
ATOM      5  C   UNL     1       5.471   5.375  15.855  0.00  0.00    +0.000 C 
ATOM      6  C   UNL     1       5.302   6.872  16.153  0.00  0.00    +0.000 C 
BRANCH   5   7
ATOM      7  C   UNL     1       6.532   5.251  14.735  0.00  0.00    +0.000 C 
BRANCH   7  10
ATOM      8  C   UNL     1       5.695   2.670  11.939  0.00  0.00    +0.000 C 
ATOM      9  C   UNL     1       5.693   3.878  12.817  0.00  0.00    +0.000 C 
ATOM     10  C   UNL     1       6.469   3.994  13.910  0.00  0.00    +0.000 C 
ENDBRANCH   7  10
ENDBRANCH   5   7
ENDBRANCH   4   5
BRANCH   4  11
ATOM     11  O   UNL     1       5.544   5.189  18.373  0.00  0.00    +0.000 OA
ATOM     12  C   UNL     1       6.688   5.476  19.157  0.00  0.00    +0.000 C 
ENDBRANCH   4  11
ENDBRANCH   2   4
ENDBRANCH   1   2
BRANCH   1  13
ATOM     13  O   UNL     1       4.839   2.527  19.544  0.00  0.00    +0.000 OA
ATOM     14  H   UNL     1       4.685   1.560  19.528  0.00  0.00    +0.000 HD
ENDBRANCH   1  13
BRANCH   1  15
ATOM     15  C   UNL     1       2.695   2.413  18.429  0.00  0.00    +0.000 C 
BRANCH  15  16
ATOM     16  C   UNL     1       1.476   3.165  19.039  0.00  0.00    +0.000 C 
ATOM     17  O   UNL     1       1.037   2.535  20.269  0.00  0.00    +0.000 OA
ATOM     18  C   UNL     1       1.551   2.909  21.470  0.00  0.00    +0.000 C 
ATOM     19  O   UNL     1       1.352   2.269  22.497  0.00  0.00    +0.000 OA
ATOM     20  C   UNL     1       2.341   4.158  21.495  0.00  0.00    +0.000 C 
ATOM     21  C   UNL     1       2.351   5.012  20.461  0.00  0.00    +0.000 C 
ATOM     22  C   UNL     1       1.578   4.700  19.209  0.00  0.00    +0.000 C 
BRANCH  22  23
ATOM     23  C   UNL     1       2.132   5.431  17.973  0.00  0.00    +0.000 C 
ATOM     24  C   UNL     1       2.417   6.907  18.233  0.00  0.00    +0.000 C 
ENDBRANCH  22  23
ENDBRANCH  15  16
ENDBRANCH   1  15
TORSDOF 10
ENDMDL
MODEL 9
REMARK VINA RESULT:      -6.3      1.441      5.567
REMARK  Name = 
REMARK  15 active torsions:
REMARK  status: ('A' for Active; 'I' for Inactive)
REMARK    1  A    between atoms: C_1  and  C_2
REMARK    2  A    between atoms: C_3  and  C_4
REMARK    3  A    between atoms: C_4  and  C_5
REMARK    4  A    between atoms: C_5  and  C_6
REMARK    5  A    between atoms: C_5  and  C_7
REMARK    6  A    between atoms: C_7  and  O_8
REMARK    7  A    between atoms: C_7  and  C_10
REMARK    8  A    between atoms: O_8  and  C_9
REMARK    9  A    between atoms: C_10  and  C_11
REMARK   10  A    between atoms: C_10  and  C_12
REMARK   11  A    between atoms: C_12  and  O_13
REMARK   12  A    between atoms: C_12  and  C_14
REMARK   13  A    between atoms: C_14  and  C_15
REMARK   14  A    between atoms: C_21  and  C_22
REMARK   15  A    between atoms: C_22  and  C_23
REMARK                            x       y       z     vdW  Elec       q    Type
REMARK                         _______ _______ _______ _____ _____    ______ ____
ROOT
ATOM      1  C   UNL     1       4.748   4.268  17.876  0.00  0.00    +0.000 C 
ENDROOT
BRANCH   1   2
ATOM      2  C   UNL     1       5.975   4.200  16.924  0.00  0.00    +0.000 C 
ATOM      3  C   UNL     1       5.520   3.311  15.741  0.00  0.00    +0.000 C 
BRANCH   2   4
ATOM      4  C   UNL     1       6.465   5.625  16.498  0.00  0.00    +0.000 C 
BRANCH   4   5
ATOM      5  C   UNL     1       6.808   6.568  17.698  0.00  0.00    +0.000 C 
ATOM      6  C   UNL     1       7.729   5.928  18.749  0.00  0.00    +0.000 C 
BRANCH   5   7
ATOM      7  C   UNL     1       7.437   7.927  17.309  0.00  0.00    +0.000 C 
BRANCH   7  10
ATOM      8  C   UNL     1       9.528  10.466  19.398  0.00  0.00    +0.000 C 
ATOM      9  C   UNL     1       8.678   9.841  18.341  0.00  0.00    +0.000 C 
ATOM     10  C   UNL     1       8.372   8.531  18.323  0.00  0.00    +0.000 C 
ENDBRANCH   7  10
ENDBRANCH   5   7
ENDBRANCH   4   5
BRANCH   4  11
ATOM     11  O   UNL     1       7.546   5.419  15.574  0.00  0.00    +0.000 OA
ATOM     12  C   UNL     1       7.225   5.271  14.202  0.00  0.00    +0.000 C 
ENDBRANCH   4  11
ENDBRANCH   2   4
ENDBRANCH   1   2
BRANCH   1  13
ATOM     13  O   UNL     1       4.987   3.480  19.033  0.00  0.00    +0.000 OA
ATOM     14  H   UNL     1       4.671   3.976  19.815  0.00  0.00    +0.000 HD
ENDBRANCH   1  13
BRANCH   1  15
ATOM     15  C   UNL     1       3.393   3.888  17.259  0.00  0.00    +0.000 C 
BRANCH  15  16
ATOM     16  C   UNL     1       2.138   4.596  17.847  0.00  0.00    +0.000 C 
ATOM     17  O   UNL     1       1.360   3.685  18.664  0.00  0.00    +0.000 OA
ATOM     18  C   UNL     1       1.602   3.557  19.995  0.00  0.00    +0.000 C 
ATOM     19  O   UNL     1       1.103   2.662  20.669  0.00  0.00    +0.000 OA
ATOM     20  C   UNL     1       2.474   4.577  20.614  0.00  0.00    +0.000 C 
ATOM     21  C   UNL     1       2.810   5.706  19.971  0.00  0.00    +0.000 C 
ATOM     22  C   UNL     1       2.337   5.952  18.566  0.00  0.00    +0.000 C 
BRANCH  22  23
ATOM     23  C   UNL     1       3.237   6.939  17.802  0.00  0.00    +0.000 C 
ATOM     24  C   UNL     1       2.644   8.343  17.719  0.00  0.00    +0.000 C 
ENDBRANCH  22  23
ENDBRANCH  15  16
ENDBRANCH   1  15
TORSDOF 10
ENDMDL
