MODEL 1
REMARK VINA RESULT:      -7.2      0.000      0.000
REMARK  Name = 
REMARK  6 active torsions:
REMARK  status: ('A' for Active; 'I' for Inactive)
REMARK    1  A    between atoms: C_1  and  C_2
REMARK    2  A    between atoms: C_2  and  C_3
REMARK    3  A    between atoms: C_3  and  O_4
REMARK    4  A    between atoms: N_11  and  C_12
REMARK    5  A    between atoms: C_12  and  C_13
REMARK    6  A    between atoms: N_16  and  C_17
REMARK                            x       y       z     vdW  Elec       q    Type
REMARK                         _______ _______ _______ _____ _____    ______ ____
ROOT
ATOM      1  C   UNL     1       2.925   3.366  20.105  0.00  0.00    +0.000 C 
ATOM      2  C   UNL     1       2.204   4.655  20.517  0.00  0.00    +0.000 C 
ATOM      3  C   UNL     1       2.513   5.829  19.601  0.00  0.00    +0.000 C 
ATOM      4  O   UNL     1       3.914   6.044  19.437  0.00  0.00    +0.000 OA
ATOM      5  C   UNL     1       4.662   4.919  18.943  0.00  0.00    +0.000 C 
ATOM      6  C   UNL     1       4.312   4.642  17.465  0.00  0.00    +0.000 C 
ATOM      7  C   UNL     1       4.869   5.669  16.482  0.00  0.00    +0.000 C 
ATOM      8  N   UNL     1       6.311   5.866  16.610  0.00  0.00    +0.000 NA
ATOM      9  C   UNL     1       6.598   6.297  17.987  0.00  0.00    +0.000 C 
ATOM     10  C   UNL     1       6.160   5.292  19.054  0.00  0.00    +0.000 C 
ATOM     11  C   UNL     1       4.410   3.710  19.880  0.00  0.00    +0.000 C 
ENDROOT
BRANCH   1  13
ATOM     12  C   UNL     1       0.810   2.521  18.820  0.00  0.00    +0.000 C 
ATOM     13  C   UNL     1       2.326   2.606  18.898  0.00  0.00    +0.000 C 
ENDBRANCH   1  13
BRANCH   1  14
ATOM     14  O   UNL     1       2.877   2.456  21.217  0.00  0.00    +0.000 OA
ATOM     15  H   UNL     1       2.988   2.969  22.035  0.00  0.00    +0.000 HD
ENDBRANCH   1  14
BRANCH   8  16
ATOM     16  C   UNL     1       7.040   4.671  16.156  0.00  0.00    +0.000 C 
BRANCH  16  17
ATOM     17  C   UNL     1       6.837   4.443  14.705  0.00  0.00    +0.000 A 
ATOM     18  C   UNL     1       7.522   5.038  13.621  0.00  0.00    +0.000 A 
ATOM     19  N   UNL     1       7.131   4.554  12.439  0.00  0.00    +0.000 NA
ATOM     20  N   UNL     1       6.197   3.638  12.765  0.00  0.00    +0.000 N 
ATOM     21  C   UNL     1       5.633   2.779  11.761  0.00  0.00    +0.000 C 
ATOM     22  C   UNL     1       5.946   3.572  14.107  0.00  0.00    +0.000 A 
ENDBRANCH  16  17
ENDBRANCH   8  16
TORSDOF 4
ENDMDL
MODEL 2
REMARK VINA RESULT:      -7.0      3.727      7.353
REMARK  Name = 
REMARK  6 active torsions:
REMARK  status: ('A' for Active; 'I' for Inactive)
REMARK    1  A    between atoms: C_1  and  C_2
REMARK    2  A    between atoms: C_2  and  C_3
REMARK    3  A    between atoms: C_3  and  O_4
REMARK    4  A    between atoms: N_11  and  C_12
REMARK    5  A    between atoms: C_12  and  C_13
REMARK    6  A    between atoms: N_16  and  C_17
REMARK                            x       y       z     vdW  Elec       q    Type
REMARK                         _______ _______ _______ _____ _____    ______ ____
ROOT
ATOM      1  C   UNL     1       7.066   4.816  17.260  0.00  0.00    +0.000 C 
ATOM      2  C   UNL     1       6.604   4.246  15.914  0.00  0.00    +0.000 C 
ATOM      3  C   UNL     1       5.190   4.670  15.542  0.00  0.00    +0.000 C 
ATOM      4  O   UNL     1       4.246   4.398  16.576  0.00  0.00    +0.000 OA
ATOM      5  C   UNL     1       4.537   4.989  17.856  0.00  0.00    +0.000 C 
ATOM      6  C   UNL     1       4.359   6.521  17.798  0.00  0.00    +0.000 C 
ATOM      7  C   UNL     1       2.907   6.985  17.717  0.00  0.00    +0.000 C 
ATOM      8  N   UNL     1       2.068   6.439  18.781  0.00  0.00    +0.000 NA
ATOM      9  C   UNL     1       2.120   4.971  18.704  0.00  0.00    +0.000 C 
ATOM     10  C   UNL     1       3.527   4.393  18.866  0.00  0.00    +0.000 C 
ATOM     11  C   UNL     1       5.956   4.542  18.293  0.00  0.00    +0.000 C 
ENDROOT
BRANCH   1  13
ATOM     12  C   UNL     1       8.026   6.867  18.567  0.00  0.00    +0.000 C 
ATOM     13  C   UNL     1       7.491   6.303  17.261  0.00  0.00    +0.000 C 
ENDBRANCH   1  13
BRANCH   1  14
ATOM     14  O   UNL     1       8.218   4.068  17.686  0.00  0.00    +0.000 OA
ATOM     15  H   UNL     1       8.326   4.194  18.644  0.00  0.00    +0.000 HD
ENDBRANCH   1  14
BRANCH   8  16
ATOM     16  C   UNL     1       2.439   7.018  20.082  0.00  0.00    +0.000 C 
BRANCH  16  17
ATOM     17  C   UNL     1       1.597   8.197  20.399  0.00  0.00    +0.000 A 
ATOM     18  C   UNL     1       1.108   9.187  19.515  0.00  0.00    +0.000 A 
ATOM     19  N   UNL     1       0.321  10.076  20.126  0.00  0.00    +0.000 NA
ATOM     20  N   UNL     1       0.295   9.651  21.405  0.00  0.00    +0.000 N 
ATOM     21  C   UNL     1      -0.578  10.269  22.364  0.00  0.00    +0.000 C 
ATOM     22  C   UNL     1       1.088   8.560  21.630  0.00  0.00    +0.000 A 
ENDBRANCH  16  17
ENDBRANCH   8  16
TORSDOF 4
ENDMDL
MODEL 3
REMARK VINA RESULT:      -6.5      2.825      4.949
REMARK  Name = 
REMARK  6 active torsions:
REMARK  status: ('A' for Active; 'I' for Inactive)
REMARK    1  A    between atoms: C_1  and  C_2
REMARK    2  A    between atoms: C_2  and  C_3
REMARK    3  A    between atoms: C_3  and  O_4
REMARK    4  A    between atoms: N_11  and  C_12
REMARK    5  A    between atoms: C_12  and  C_13
REMARK    6  A    between atoms: N_16  and  C_17
REMARK                            x       y       z     vdW  Elec       q    Type
REMARK                         _______ _______ _______ _____ _____    ______ ____
ROOT
ATOM      1  C   UNL     1       2.466   3.818  18.336  0.00  0.00    +0.000 C 
ATOM      2  C   UNL     1       2.879   2.583  19.146  0.00  0.00    +0.000 C 
ATOM      3  C   UNL     1       4.284   2.690  19.719  0.00  0.00    +0.000 C 
ATOM      4  O   UNL     1       5.258   3.014  18.729  0.00  0.00    +0.000 OA
ATOM      5  C   UNL     1       5.014   4.224  17.989  0.00  0.00    +0.000 C 
ATOM      6  C   UNL     1       5.208   5.459  18.894  0.00  0.00    +0.000 C 
ATOM      7  C   UNL     1       6.663   5.760  19.249  0.00  0.00    +0.000 C 
ATOM      8  N   UNL     1       7.529   5.876  18.079  0.00  0.00    +0.000 NA
ATOM      9  C   UNL     1       7.457   4.615  17.324  0.00  0.00    +0.000 C 
ATOM     10  C   UNL     1       6.050   4.264  16.839  0.00  0.00    +0.000 C 
ATOM     11  C   UNL     1       3.606   4.135  17.349  0.00  0.00    +0.000 C 
ENDROOT
BRANCH   1  13
ATOM     12  C   UNL     1       1.648   4.836  20.601  0.00  0.00    +0.000 C 
ATOM     13  C   UNL     1       2.058   5.065  19.155  0.00  0.00    +0.000 C 
ENDBRANCH   1  13
BRANCH   1  14
ATOM     14  O   UNL     1       1.320   3.466  17.542  0.00  0.00    +0.000 OA
ATOM     15  H   UNL     1       1.074   2.549  17.753  0.00  0.00    +0.000 HD
ENDBRANCH   1  14
BRANCH   8  16
ATOM     16  C   UNL     1       7.207   7.090  17.314  0.00  0.00    +0.000 C 
BRANCH  16  17
ATOM     17  C   UNL     1       7.885   8.277  17.889  0.00  0.00    +0.000 A 
ATOM     18  C   UNL     1       8.780   8.330  18.982  0.00  0.00    +0.000 A 
ATOM     19  N   UNL     1       9.260   9.558  19.193  0.00  0.00    +0.000 NA
ATOM     20  N   UNL     1       8.678  10.296  18.227  0.00  0.00    +0.000 N 
ATOM     21  C   UNL     1       9.059  11.667  18.023  0.00  0.00    +0.000 C 
ATOM     22  C   UNL     1       7.804   9.585  17.453  0.00  0.00    +0.000 A 
ENDBRANCH  16  17
ENDBRANCH   8  16
TORSDOF 4
ENDMDL
MODEL 4
REMARK VINA RESULT:      -6.4      0.948      1.415
REMARK  Name = 
REMARK  6 active torsions:
REMARK  status: ('A' for Active; 'I' for Inactive)
REMARK    1  A    between atoms: C_1  and  C_2
REMARK    2  A    between atoms: C_2  and  C_3
REMARK    3  A    between atoms: C_3  and  O_4
REMARK    4  A    between atoms: N_11  and  C_12
REMARK    5  A    between atoms: C_12  and  C_13
REMARK    6  A    between atoms: N_16  and  C_17
REMARK                            x       y       z     vdW  Elec       q    Type
REMARK                         _______ _______ _______ _____ _____    ______ ____
ROOT
ATOM      1  C   UNL     1       1.790   3.898  20.238  0.00  0.00    +0.000 C 
ATOM      2  C   UNL     1       1.563   5.308  20.794  0.00  0.00    +0.000 C 
ATOM      3  C   UNL     1       2.257   6.389  19.979  0.00  0.00    +0.000 C 
ATOM      4  O   UNL     1       3.645   6.123  19.783  0.00  0.00    +0.000 OA
ATOM      5  C   UNL     1       3.955   4.864  19.160  0.00  0.00    +0.000 C 
ATOM      6  C   UNL     1       3.526   4.875  17.677  0.00  0.00    +0.000 C 
ATOM      7  C   UNL     1       4.402   5.739  16.772  0.00  0.00    +0.000 C 
ATOM      8  N   UNL     1       5.823   5.412  16.864  0.00  0.00    +0.000 NA
ATOM      9  C   UNL     1       6.246   5.577  18.263  0.00  0.00    +0.000 C 
ATOM     10  C   UNL     1       5.490   4.684  19.248  0.00  0.00    +0.000 C 
ATOM     11  C   UNL     1       3.302   3.729  19.989  0.00  0.00    +0.000 C 
ENDROOT
BRANCH   1  13
ATOM     12  C   UNL     1       0.893   2.041  18.631  0.00  0.00    +0.000 C 
ATOM     13  C   UNL     1       0.961   3.516  18.989  0.00  0.00    +0.000 C 
ENDBRANCH   1  13
BRANCH   1  14
ATOM     14  O   UNL     1       1.433   2.954  21.262  0.00  0.00    +0.000 OA
ATOM     15  H   UNL     1       2.034   3.080  22.015  0.00  0.00    +0.000 HD
ENDBRANCH   1  14
BRANCH   8  16
ATOM     16  C   UNL     1       6.089   4.091  16.274  0.00  0.00    +0.000 C 
BRANCH  16  17
ATOM     17  C   UNL     1       6.480   4.213  14.849  0.00  0.00    +0.000 A 
ATOM     18  C   UNL     1       5.988   3.487  13.740  0.00  0.00    +0.000 A 
ATOM     19  N   UNL     1       6.512   3.899  12.583  0.00  0.00    +0.000 NA
ATOM     20  N   UNL     1       7.338   4.900  12.948  0.00  0.00    +0.000 N 
ATOM     21  C   UNL     1       7.987   5.711  11.956  0.00  0.00    +0.000 C 
ATOM     22  C   UNL     1       7.395   5.091  14.300  0.00  0.00    +0.000 A 
ENDBRANCH  16  17
ENDBRANCH   8  16
TORSDOF 4
ENDMDL
MODEL 5
REMARK VINA RESULT:      -6.4      2.502      4.634
REMARK  Name = 
REMARK  6 active torsions:
REMARK  status: ('A' for Active; 'I' for Inactive)
REMARK    1  A    between atoms: C_1  and  C_2
REMARK    2  A    between atoms: C_2  and  C_3
REMARK    3  A    between atoms: C_3  and  O_4
REMARK    4  A    between atoms: N_11  and  C_12
REMARK    5  A    between atoms: C_12  and  C_13
REMARK    6  A    between atoms: N_16  and  C_17
REMARK                            x       y       z     vdW  Elec       q    Type
REMARK                         _______ _______ _______ _____ _____    ______ ____
ROOT
ATOM      1  C   UNL     1       1.692   3.258  18.572  0.00  0.00    +0.000 C 
ATOM      2  C   UNL     1       2.163   1.813  18.778  0.00  0.00    +0.000 C 
ATOM      3  C   UNL     1       3.679   1.680  18.805  0.00  0.00    +0.000 C 
ATOM      4  O   UNL     1       4.304   2.275  17.669  0.00  0.00    +0.000 OA
ATOM      5  C   UNL     1       4.009   3.668  17.457  0.00  0.00    +0.000 C 
ATOM      6  C   UNL     1       4.675   4.534  18.548  0.00  0.00    +0.000 C 
ATOM      7  C   UNL     1       6.192   4.653  18.421  0.00  0.00    +0.000 C 
ATOM      8  N   UNL     1       6.625   5.114  17.104  0.00  0.00    +0.000 NA
ATOM      9  C   UNL     1       6.120   4.171  16.095  0.00  0.00    +0.000 C 
ATOM     10  C   UNL     1       4.595   4.045  16.074  0.00  0.00    +0.000 C 
ATOM     11  C   UNL     1       2.471   3.840  17.376  0.00  0.00    +0.000 C 
ENDROOT
BRANCH   1  13
ATOM     12  C   UNL     1       1.497   3.549  21.163  0.00  0.00    +0.000 C 
ATOM     13  C   UNL     1       1.771   4.183  19.808  0.00  0.00    +0.000 C 
ENDBRANCH   1  13
BRANCH   1  14
ATOM     14  O   UNL     1       0.308   3.222  18.183  0.00  0.00    +0.000 OA
ATOM     15  H   UNL     1      -0.053   2.353  18.425  0.00  0.00    +0.000 HD
ENDBRANCH   1  14
BRANCH   8  16
ATOM     16  C   UNL     1       6.250   6.522  16.899  0.00  0.00    +0.000 C 
BRANCH  16  17
ATOM     17  C   UNL     1       7.182   7.430  17.610  0.00  0.00    +0.000 A 
ATOM     18  C   UNL     1       8.133   7.105  18.604  0.00  0.00    +0.000 A 
ATOM     19  N   UNL     1       8.857   8.160  18.986  0.00  0.00    +0.000 NA
ATOM     20  N   UNL     1       8.376   9.166  18.229  0.00  0.00    +0.000 N 
ATOM     21  C   UNL     1       9.007  10.457  18.239  0.00  0.00    +0.000 C 
ATOM     22  C   UNL     1       7.335   8.791  17.427  0.00  0.00    +0.000 A 
ENDBRANCH  16  17
ENDBRANCH   8  16
TORSDOF 4
ENDMDL
MODEL 6
REMARK VINA RESULT:      -6.3      3.915      7.488
REMARK  Name = 
REMARK  6 active torsions:
REMARK  status: ('A' for Active; 'I' for Inactive)
REMARK    1  A    between atoms: C_1  and  C_2
REMARK    2  A    between atoms: C_2  and  C_3
REMARK    3  A    between atoms: C_3  and  O_4
REMARK    4  A    between atoms: N_11  and  C_12
REMARK    5  A    between atoms: C_12  and  C_13
REMARK    6  A    between atoms: N_16  and  C_17
REMARK                            x       y       z     vdW  Elec       q    Type
REMARK                         _______ _______ _______ _____ _____    ______ ____
ROOT
ATOM      1  C   UNL     1       6.989   4.999  17.437  0.00  0.00    +0.000 C 
ATOM      2  C   UNL     1       6.493   4.134  16.272  0.00  0.00    +0.000 C 
ATOM      3  C   UNL     1       5.042   4.408  15.903  0.00  0.00    +0.000 C 
ATOM      4  O   UNL     1       4.165   4.325  17.026  0.00  0.00    +0.000 OA
ATOM      5  C   UNL     1       4.487   5.188  18.131  0.00  0.00    +0.000 C 
ATOM      6  C   UNL     1       4.224   6.663  17.760  0.00  0.00    +0.000 C 
ATOM      7  C   UNL     1       2.746   7.037  17.669  0.00  0.00    +0.000 C 
ATOM      8  N   UNL     1       1.990   6.698  18.872  0.00  0.00    +0.000 NA
ATOM      9  C   UNL     1       2.119   5.251  19.106  0.00  0.00    +0.000 C 
ATOM     10  C   UNL     1       3.561   4.781  19.303  0.00  0.00    +0.000 C 
ATOM     11  C   UNL     1       5.947   4.907  18.568  0.00  0.00    +0.000 C 
ENDROOT
BRANCH   1  13
ATOM     12  C   UNL     1       7.937   7.310  18.209  0.00  0.00    +0.000 C 
ATOM     13  C   UNL     1       7.333   6.468  17.097  0.00  0.00    +0.000 C 
ENDBRANCH   1  13
BRANCH   1  14
ATOM     14  O   UNL     1       8.199   4.410  17.943  0.00  0.00    +0.000 OA
ATOM     15  H   UNL     1       8.475   4.909  18.731  0.00  0.00    +0.000 HD
ENDBRANCH   1  14
BRANCH   8  16
ATOM     16  C   UNL     1       2.392   7.558  19.996  0.00  0.00    +0.000 C 
BRANCH  16  17
ATOM     17  C   UNL     1       1.255   8.385  20.467  0.00  0.00    +0.000 A 
ATOM     18  C   UNL     1       0.372   8.130  21.541  0.00  0.00    +0.000 A 
ATOM     19  N   UNL     1      -0.502   9.120  21.733  0.00  0.00    +0.000 NA
ATOM     20  N   UNL     1      -0.176  10.020  20.784  0.00  0.00    +0.000 N 
ATOM     21  C   UNL     1      -0.801  11.313  20.755  0.00  0.00    +0.000 C 
ATOM     22  C   UNL     1       0.836   9.602  19.966  0.00  0.00    +0.000 A 
ENDBRANCH  16  17
ENDBRANCH   8  16
TORSDOF 4
ENDMDL
MODEL 7
REMARK VINA RESULT:      -6.1      2.514      4.551
REMARK  Name = 
REMARK  6 active torsions:
REMARK  status: ('A' for Active; 'I' for Inactive)
REMARK    1  A    between atoms: C_1  and  C_2
REMARK    2  A    between atoms: C_2  and  C_3
REMARK    3  A    between atoms: C_3  and  O_4
REMARK    4  A    between atoms: N_11  and  C_12
REMARK    5  A    between atoms: C_12  and  C_13
REMARK    6  A    between atoms: N_16  and  C_17
REMARK                            x       y       z     vdW  Elec       q    Type
REMARK                         _______ _______ _______ _____ _____    ______ ____
ROOT
ATOM      1  C   UNL     1       1.840   3.874  19.853  0.00  0.00    +0.000 C 
ATOM      2  C   UNL     1       2.237   2.421  20.137  0.00  0.00    +0.000 C 
ATOM      3  C   UNL     1       3.711   2.145  19.878  0.00  0.00    +0.000 C 
ATOM      4  O   UNL     1       4.126   2.555  18.576  0.00  0.00    +0.000 OA
ATOM      5  C   UNL     1       3.896   3.939  18.257  0.00  0.00    +0.000 C 
ATOM      6  C   UNL     1       4.836   4.847  19.078  0.00  0.00    +0.000 C 
ATOM      7  C   UNL     1       6.298   4.806  18.638  0.00  0.00    +0.000 C 
ATOM      8  N   UNL     1       6.478   5.082  17.214  0.00  0.00    +0.000 NA
ATOM      9  C   UNL     1       5.706   4.090  16.450  0.00  0.00    +0.000 C 
ATOM     10  C   UNL     1       4.206   4.110  16.749  0.00  0.00    +0.000 C 
ATOM     11  C   UNL     1       2.391   4.249  18.464  0.00  0.00    +0.000 C 
ENDROOT
BRANCH   1  13
ATOM     12  C   UNL     1       1.773   6.343  20.711  0.00  0.00    +0.000 C 
ATOM     13  C   UNL     1       2.242   4.913  20.925  0.00  0.00    +0.000 C 
ENDBRANCH   1  13
BRANCH   1  14
ATOM     14  O   UNL     1       0.406   3.931  19.755  0.00  0.00    +0.000 OA
ATOM     15  H   UNL     1       0.089   3.073  19.425  0.00  0.00    +0.000 HD
ENDBRANCH   1  14
BRANCH   8  16
ATOM     16  C   UNL     1       6.172   6.490  16.916  0.00  0.00    +0.000 C 
BRANCH  16  17
ATOM     17  C   UNL     1       7.125   7.398  17.599  0.00  0.00    +0.000 A 
ATOM     18  C   UNL     1       8.126   7.068  18.542  0.00  0.00    +0.000 A 
ATOM     19  N   UNL     1       8.854   8.126  18.908  0.00  0.00    +0.000 NA
ATOM     20  N   UNL     1       8.325   9.138  18.191  0.00  0.00    +0.000 N 
ATOM     21  C   UNL     1       8.940  10.437  18.194  0.00  0.00    +0.000 C 
ATOM     22  C   UNL     1       7.252   8.763  17.432  0.00  0.00    +0.000 A 
ENDBRANCH  16  17
ENDBRANCH   8  16
TORSDOF 4
ENDMDL
MODEL 8
REMARK VINA RESULT:      -6.1      4.137      7.722
REMARK  Name = 
REMARK  6 active torsions:
REMARK  status: ('A' for Active; 'I' for Inactive)
REMARK    1  A    between atoms: C_1  and  C_2
REMARK    2  A    between atoms: C_2  and  C_3
REMARK    3  A    between atoms: C_3  and  O_4
REMARK    4  A    between atoms: N_11  and  C_12
REMARK    5  A    between atoms: C_12  and  C_13
REMARK    6  A    between atoms: N_16  and  C_17
REMARK                            x       y       z     vdW  Elec       q    Type
REMARK                         _______ _______ _______ _____ _____    ______ ____
ROOT
ATOM      1  C   UNL     1       6.224   4.863  17.736  0.00  0.00    +0.000 C 
ATOM      2  C   UNL     1       5.526   3.845  16.827  0.00  0.00    +0.000 C 
ATOM      3  C   UNL     1       4.027   4.078  16.713  0.00  0.00    +0.000 C 
ATOM      4  O   UNL     1       3.387   4.166  17.985  0.00  0.00    +0.000 OA
ATOM      5  C   UNL     1       3.902   5.176  18.871  0.00  0.00    +0.000 C 
ATOM      6  C   UNL     1       3.544   6.585  18.352  0.00  0.00    +0.000 C 
ATOM      7  C   UNL     1       2.070   6.957  18.499  0.00  0.00    +0.000 C 
ATOM      8  N   UNL     1       1.570   6.801  19.863  0.00  0.00    +0.000 NA
ATOM      9  C   UNL     1       1.768   5.402  20.271  0.00  0.00    +0.000 C 
ATOM     10  C   UNL     1       3.229   4.951  20.248  0.00  0.00    +0.000 C 
ATOM     11  C   UNL     1       5.424   4.945  19.051  0.00  0.00    +0.000 C 
ENDROOT
BRANCH   1  13
ATOM     12  C   UNL     1       7.564   7.108  17.759  0.00  0.00    +0.000 C 
ATOM     13  C   UNL     1       6.468   6.265  17.129  0.00  0.00    +0.000 C 
ENDBRANCH   1  13
BRANCH   1  14
ATOM     14  O   UNL     1       7.520   4.341  18.075  0.00  0.00    +0.000 OA
ATOM     15  H   UNL     1       7.450   3.373  18.142  0.00  0.00    +0.000 HD
ENDBRANCH   1  14
BRANCH   8  16
ATOM     16  C   UNL     1       2.168   7.810  20.752  0.00  0.00    +0.000 C 
BRANCH  16  17
ATOM     17  C   UNL     1       1.201   8.893  21.054  0.00  0.00    +0.000 A 
ATOM     18  C   UNL     1       0.523   9.740  20.147  0.00  0.00    +0.000 A 
ATOM     19  N   UNL     1      -0.331  10.565  20.757  0.00  0.00    +0.000 NA
ATOM     20  N   UNL     1      -0.209  10.242  22.060  0.00  0.00    +0.000 N 
ATOM     21  C   UNL     1      -1.087  10.816  23.042  0.00  0.00    +0.000 C 
ATOM     22  C   UNL     1       0.736   9.283  22.295  0.00  0.00    +0.000 A 
ENDBRANCH  16  17
ENDBRANCH   8  16
TORSDOF 4
ENDMDL
MODEL 9
REMARK VINA RESULT:      -6.1      4.124      6.534
REMARK  Name = 
REMARK  6 active torsions:
REMARK  status: ('A' for Active; 'I' for Inactive)
REMARK    1  A    between atoms: C_1  and  C_2
REMARK    2  A    between atoms: C_2  and  C_3
REMARK    3  A    between atoms: C_3  and  O_4
REMARK    4  A    between atoms: N_11  and  C_12
REMARK    5  A    between atoms: C_12  and  C_13
REMARK    6  A    between atoms: N_16  and  C_17
REMARK                            x       y       z     vdW  Elec       q    Type
REMARK                         _______ _______ _______ _____ _____    ______ ____
ROOT
ATOM      1  C   UNL     1       2.426   2.709  18.802  0.00  0.00    +0.000 C 
ATOM      2  C   UNL     1       3.739   2.566  19.582  0.00  0.00    +0.000 C 
ATOM      3  C   UNL     1       4.257   3.891  20.122  0.00  0.00    +0.000 C 
ATOM      4  O   UNL     1       4.356   4.895  19.113  0.00  0.00    +0.000 OA
ATOM      5  C   UNL     1       3.139   5.180  18.399  0.00  0.00    +0.000 C 
ATOM      6  C   UNL     1       2.128   5.897  19.319  0.00  0.00    +0.000 C 
ATOM      7  C   UNL     1       2.486   7.346  19.642  0.00  0.00    +0.000 C 
ATOM      8  N   UNL     1       2.723   8.161  18.453  0.00  0.00    +0.000 NA
ATOM      9  C   UNL     1       3.812   7.545  17.680  0.00  0.00    +0.000 C 
ATOM     10  C   UNL     1       3.516   6.115  17.224  0.00  0.00    +0.000 C 
ATOM     11  C   UNL     1       2.602   3.859  17.792  0.00  0.00    +0.000 C 
ENDROOT
BRANCH   1  13
ATOM     12  C   UNL     1       1.291   2.742  21.158  0.00  0.00    +0.000 C 
ATOM     13  C   UNL     1       1.146   2.886  19.651  0.00  0.00    +0.000 C 
ENDBRANCH   1  13
BRANCH   1  14
ATOM     14  O   UNL     1       2.235   1.510  18.032  0.00  0.00    +0.000 OA
ATOM     15  H   UNL     1       2.949   0.889  18.253  0.00  0.00    +0.000 HD
ENDBRANCH   1  14
BRANCH   8  16
ATOM     16  C   UNL     1       1.468   8.377  17.715  0.00  0.00    +0.000 C 
BRANCH  16  17
ATOM     17  C   UNL     1       0.807   9.633  18.146  0.00  0.00    +0.000 A 
ATOM     18  C   UNL     1       1.402  10.792  18.695  0.00  0.00    +0.000 A 
ATOM     19  N   UNL     1       0.519  11.770  18.910  0.00  0.00    +0.000 NA
ATOM     20  N   UNL     1      -0.648  11.241  18.489  0.00  0.00    +0.000 N 
ATOM     21  C   UNL     1      -1.834  12.049  18.418  0.00  0.00    +0.000 C 
ATOM     22  C   UNL     1      -0.537   9.944  18.073  0.00  0.00    +0.000 A 
ENDBRANCH  16  17
ENDBRANCH   8  16
TORSDOF 4
ENDMDL
