MODEL 1
REMARK VINA RESULT:      -9.0      0.000      0.000
REMARK  Name = 
REMARK  6 active torsions:
REMARK  status: ('A' for Active; 'I' for Inactive)
REMARK    1  A    between atoms: C_1  and  C_2
REMARK    2  A    between atoms: C_2  and  O_3
REMARK    3  A    between atoms: O_3  and  C_4
REMARK    4  A    between atoms: C_11  and  C_12
REMARK    5  A    between atoms: C_12  and  N_13
REMARK    6  A    between atoms: C_16  and  N_17
REMARK                            x       y       z     vdW  Elec       q    Type
REMARK                         _______ _______ _______ _____ _____    ______ ____
ROOT
ATOM      1  C   UNL     1       5.660   3.299  12.078  0.00  0.00    +0.000 A 
ATOM      2  C   UNL     1       6.787   4.022  11.673  0.00  0.00    +0.000 A 
ATOM      3  C   UNL     1       7.550   4.709  12.610  0.00  0.00    +0.000 A 
ATOM      4  C   UNL     1       7.169   4.686  13.947  0.00  0.00    +0.000 A 
ATOM      5  N   UNL     1       7.771   5.587  14.824  0.00  0.00    +0.000 N 
ATOM      6  C   UNL     1       7.245   5.846  16.058  0.00  0.00    +0.000 A 
ATOM      7  O   UNL     1       7.523   6.893  16.645  0.00  0.00    +0.000 OA
ATOM      8  C   UNL     1       6.354   4.804  16.656  0.00  0.00    +0.000 A 
ATOM      9  C   UNL     1       5.805   3.879  15.846  0.00  0.00    +0.000 A 
ATOM     10  C   UNL     1       6.103   3.897  14.399  0.00  0.00    +0.000 A 
ATOM     11  C   UNL     1       5.352   3.195  13.446  0.00  0.00    +0.000 A 
ATOM     12  H   UNL     1       8.413   6.282  14.470  0.00  0.00    +0.000 HD
ENDROOT
BRANCH   1  13
ATOM     13  O   UNL     1       4.786   2.681  11.216  0.00  0.00    +0.000 OA
BRANCH  13  15
ATOM     14  C   UNL     1       3.235   3.879   9.811  0.00  0.00    +0.000 C 
ATOM     15  C   UNL     1       3.466   3.237  11.165  0.00  0.00    +0.000 C 
ENDBRANCH  13  15
ENDBRANCH   1  13
BRANCH   8  16
ATOM     16  C   UNL     1       6.211   4.997  18.156  0.00  0.00    +0.000 C 
BRANCH  16  17
ATOM     17  N   UNL     1       4.960   5.520  18.769  0.00  0.00    +0.000 NA
ATOM     18  C   UNL     1       4.016   5.973  17.731  0.00  0.00    +0.000 C 
ATOM     19  C   UNL     1       2.620   6.285  18.286  0.00  0.00    +0.000 C 
ATOM     20  C   UNL     1       1.939   5.081  18.982  0.00  0.00    +0.000 C 
ATOM     21  C   UNL     1       2.948   4.629  20.061  0.00  0.00    +0.000 C 
ATOM     22  C   UNL     1       4.372   4.410  19.552  0.00  0.00    +0.000 C 
BRANCH  20  23
ATOM     23  N   UNL     1       1.481   4.025  18.033  0.00  0.00    +0.000 NA
ATOM     24  C   UNL     1       0.736   2.933  18.703  0.00  0.00    +0.000 C 
ATOM     25  C   UNL     1       1.784   1.921  19.129  0.00  0.00    +0.000 C 
ATOM     26  C   UNL     1       2.732   1.920  17.954  0.00  0.00    +0.000 C 
ATOM     27  C   UNL     1       2.583   3.311  17.339  0.00  0.00    +0.000 C 
ENDBRANCH  20  23
ENDBRANCH  16  17
ENDBRANCH   8  16
TORSDOF 5
ENDMDL
MODEL 2
REMARK VINA RESULT:      -8.5      1.866      3.086
REMARK  Name = 
REMARK  6 active torsions:
REMARK  status: ('A' for Active; 'I' for Inactive)
REMARK    1  A    between atoms: C_1  and  C_2
REMARK    2  A    between atoms: C_2  and  O_3
REMARK    3  A    between atoms: O_3  and  C_4
REMARK    4  A    between atoms: C_11  and  C_12
REMARK    5  A    between atoms: C_12  and  N_13
REMARK    6  A    between atoms: C_16  and  N_17
REMARK                            x       y       z     vdW  Elec       q    Type
REMARK                         _______ _______ _______ _____ _____    ______ ____
ROOT
ATOM      1  C   UNL     1       6.109   3.718  12.174  0.00  0.00    +0.000 A 
ATOM      2  C   UNL     1       7.270   4.495  12.096  0.00  0.00    +0.000 A 
ATOM      3  C   UNL     1       7.803   5.072  13.243  0.00  0.00    +0.000 A 
ATOM      4  C   UNL     1       7.160   4.885  14.461  0.00  0.00    +0.000 A 
ATOM      5  N   UNL     1       7.540   5.679  15.541  0.00  0.00    +0.000 N 
ATOM      6  C   UNL     1       6.765   5.782  16.662  0.00  0.00    +0.000 A 
ATOM      7  O   UNL     1       6.883   6.754  17.411  0.00  0.00    +0.000 OA
ATOM      8  C   UNL     1       5.808   4.668  16.939  0.00  0.00    +0.000 A 
ATOM      9  C   UNL     1       5.466   3.842  15.932  0.00  0.00    +0.000 A 
ATOM     10  C   UNL     1       6.051   4.037  14.589  0.00  0.00    +0.000 A 
ATOM     11  C   UNL     1       5.533   3.447  13.428  0.00  0.00    +0.000 A 
ATOM     12  H   UNL     1       8.216   6.417  15.409  0.00  0.00    +0.000 HD
ENDROOT
BRANCH   1  13
ATOM     13  O   UNL     1       5.450   3.200  11.085  0.00  0.00    +0.000 OA
BRANCH  13  15
ATOM     14  C   UNL     1       3.327   3.629  10.024  0.00  0.00    +0.000 C 
ATOM     15  C   UNL     1       4.032   3.045  11.233  0.00  0.00    +0.000 C 
ENDBRANCH  13  15
ENDBRANCH   1  13
BRANCH   8  16
ATOM     16  C   UNL     1       5.356   4.678  18.390  0.00  0.00    +0.000 C 
BRANCH  16  17
ATOM     17  N   UNL     1       3.918   4.652  18.769  0.00  0.00    +0.000 NA
ATOM     18  C   UNL     1       3.741   5.009  20.188  0.00  0.00    +0.000 C 
ATOM     19  C   UNL     1       2.274   5.244  20.570  0.00  0.00    +0.000 C 
ATOM     20  C   UNL     1       1.591   6.374  19.760  0.00  0.00    +0.000 C 
ATOM     21  C   UNL     1       1.790   5.974  18.282  0.00  0.00    +0.000 C 
ATOM     22  C   UNL     1       3.231   5.635  17.901  0.00  0.00    +0.000 C 
BRANCH  20  23
ATOM     23  N   UNL     1       2.056   7.741  20.137  0.00  0.00    +0.000 NA
ATOM     24  C   UNL     1       1.476   8.213  21.417  0.00  0.00    +0.000 C 
ATOM     25  C   UNL     1       0.169   8.893  21.050  0.00  0.00    +0.000 C 
ATOM     26  C   UNL     1       0.528   9.621  19.777  0.00  0.00    +0.000 C 
ATOM     27  C   UNL     1       1.668   8.802  19.174  0.00  0.00    +0.000 C 
ENDBRANCH  20  23
ENDBRANCH  16  17
ENDBRANCH   8  16
TORSDOF 5
ENDMDL
MODEL 3
REMARK VINA RESULT:      -8.2      1.077      1.267
REMARK  Name = 
REMARK  6 active torsions:
REMARK  status: ('A' for Active; 'I' for Inactive)
REMARK    1  A    between atoms: C_1  and  C_2
REMARK    2  A    between atoms: C_2  and  O_3
REMARK    3  A    between atoms: O_3  and  C_4
REMARK    4  A    between atoms: C_11  and  C_12
REMARK    5  A    between atoms: C_12  and  N_13
REMARK    6  A    between atoms: C_16  and  N_17
REMARK                            x       y       z     vdW  Elec       q    Type
REMARK                         _______ _______ _______ _____ _____    ______ ____
ROOT
ATOM      1  C   UNL     1       6.194   3.214  12.453  0.00  0.00    +0.000 A 
ATOM      2  C   UNL     1       7.177   4.138  12.082  0.00  0.00    +0.000 A 
ATOM      3  C   UNL     1       7.728   4.991  13.031  0.00  0.00    +0.000 A 
ATOM      4  C   UNL     1       7.276   4.930  14.345  0.00  0.00    +0.000 A 
ATOM      5  N   UNL     1       7.630   5.959  15.217  0.00  0.00    +0.000 N 
ATOM      6  C   UNL     1       6.987   6.141  16.408  0.00  0.00    +0.000 A 
ATOM      7  O   UNL     1       7.013   7.240  16.966  0.00  0.00    +0.000 OA
ATOM      8  C   UNL     1       6.287   4.959  16.997  0.00  0.00    +0.000 A 
ATOM      9  C   UNL     1       5.985   3.919  16.197  0.00  0.00    +0.000 A 
ATOM     10  C   UNL     1       6.363   3.956  14.768  0.00  0.00    +0.000 A 
ATOM     11  C   UNL     1       5.828   3.089  13.805  0.00  0.00    +0.000 A 
ATOM     12  H   UNL     1       8.141   6.758  14.870  0.00  0.00    +0.000 HD
ENDROOT
BRANCH   1  13
ATOM     13  O   UNL     1       5.517   2.408  11.570  0.00  0.00    +0.000 OA
BRANCH  13  15
ATOM     14  C   UNL     1       6.182   0.096  11.396  0.00  0.00    +0.000 C 
ATOM     15  C   UNL     1       6.325   1.492  10.819  0.00  0.00    +0.000 C 
ENDBRANCH  13  15
ENDBRANCH   1  13
BRANCH   8  16
ATOM     16  C   UNL     1       6.015   5.162  18.478  0.00  0.00    +0.000 C 
BRANCH  16  17
ATOM     17  N   UNL     1       4.685   5.597  18.984  0.00  0.00    +0.000 NA
ATOM     18  C   UNL     1       3.792   5.964  17.870  0.00  0.00    +0.000 C 
ATOM     19  C   UNL     1       2.338   6.177  18.310  0.00  0.00    +0.000 C 
ATOM     20  C   UNL     1       1.698   4.934  18.975  0.00  0.00    +0.000 C 
ATOM     21  C   UNL     1       2.651   4.573  20.136  0.00  0.00    +0.000 C 
ATOM     22  C   UNL     1       4.122   4.456  19.741  0.00  0.00    +0.000 C 
BRANCH  20  23
ATOM     23  N   UNL     1       1.394   3.834  18.014  0.00  0.00    +0.000 NA
ATOM     24  C   UNL     1       0.773   2.656  18.664  0.00  0.00    +0.000 C 
ATOM     25  C   UNL     1       1.927   1.778  19.113  0.00  0.00    +0.000 C 
ATOM     26  C   UNL     1       2.895   1.898  17.960  0.00  0.00    +0.000 C 
ATOM     27  C   UNL     1       2.590   3.263  17.344  0.00  0.00    +0.000 C 
ENDBRANCH  20  23
ENDBRANCH  16  17
ENDBRANCH   8  16
TORSDOF 5
ENDMDL
MODEL 4
REMARK VINA RESULT:      -8.2      1.104      1.375
REMARK  Name = 
REMARK  6 active torsions:
REMARK  status: ('A' for Active; 'I' for Inactive)
REMARK    1  A    between atoms: C_1  and  C_2
REMARK    2  A    between atoms: C_2  and  O_3
REMARK    3  A    between atoms: O_3  and  C_4
REMARK    4  A    between atoms: C_11  and  C_12
REMARK    5  A    between atoms: C_12  and  N_13
REMARK    6  A    between atoms: C_16  and  N_17
REMARK                            x       y       z     vdW  Elec       q    Type
REMARK                         _______ _______ _______ _____ _____    ______ ____
ROOT
ATOM      1  C   UNL     1       5.855   3.541  12.214  0.00  0.00    +0.000 A 
ATOM      2  C   UNL     1       7.125   4.115  12.094  0.00  0.00    +0.000 A 
ATOM      3  C   UNL     1       7.700   4.773  13.176  0.00  0.00    +0.000 A 
ATOM      4  C   UNL     1       6.991   4.870  14.368  0.00  0.00    +0.000 A 
ATOM      5  N   UNL     1       7.451   5.753  15.344  0.00  0.00    +0.000 N 
ATOM      6  C   UNL     1       6.662   6.138  16.390  0.00  0.00    +0.000 A 
ATOM      7  O   UNL     1       6.903   7.184  16.997  0.00  0.00    +0.000 OA
ATOM      8  C   UNL     1       5.533   5.234  16.767  0.00  0.00    +0.000 A 
ATOM      9  C   UNL     1       5.103   4.326  15.871  0.00  0.00    +0.000 A 
ATOM     10  C   UNL     1       5.760   4.226  14.551  0.00  0.00    +0.000 A 
ATOM     11  C   UNL     1       5.199   3.552  13.457  0.00  0.00    +0.000 A 
ATOM     12  H   UNL     1       8.239   6.353  15.147  0.00  0.00    +0.000 HD
ENDROOT
BRANCH   1  13
ATOM     13  O   UNL     1       5.163   2.968  11.173  0.00  0.00    +0.000 OA
BRANCH  13  15
ATOM     14  C   UNL     1       3.237   3.788   9.976  0.00  0.00    +0.000 C 
ATOM     15  C   UNL     1       3.737   3.098  11.230  0.00  0.00    +0.000 C 
ENDBRANCH  13  15
ENDBRANCH   1  13
BRANCH   8  16
ATOM     16  C   UNL     1       5.035   5.530  18.172  0.00  0.00    +0.000 C 
BRANCH  16  17
ATOM     17  N   UNL     1       3.586   5.607  18.496  0.00  0.00    +0.000 NA
ATOM     18  C   UNL     1       2.822   4.599  17.738  0.00  0.00    +0.000 C 
ATOM     19  C   UNL     1       1.370   4.462  18.214  0.00  0.00    +0.000 C 
ATOM     20  C   UNL     1       1.237   4.063  19.705  0.00  0.00    +0.000 C 
ATOM     21  C   UNL     1       2.043   5.133  20.473  0.00  0.00    +0.000 C 
ATOM     22  C   UNL     1       3.461   5.361  19.951  0.00  0.00    +0.000 C 
BRANCH  20  23
ATOM     23  N   UNL     1       1.609   2.644  19.977  0.00  0.00    +0.000 NA
ATOM     24  C   UNL     1       2.713   2.517  20.958  0.00  0.00    +0.000 C 
ATOM     25  C   UNL     1       3.994   2.568  20.145  0.00  0.00    +0.000 C 
ATOM     26  C   UNL     1       3.636   1.758  18.922  0.00  0.00    +0.000 C 
ATOM     27  C   UNL     1       2.121   1.910  18.791  0.00  0.00    +0.000 C 
ENDBRANCH  20  23
ENDBRANCH  16  17
ENDBRANCH   8  16
TORSDOF 5
ENDMDL
MODEL 5
REMARK VINA RESULT:      -8.1      5.693      8.162
REMARK  Name = 
REMARK  6 active torsions:
REMARK  status: ('A' for Active; 'I' for Inactive)
REMARK    1  A    between atoms: C_1  and  C_2
REMARK    2  A    between atoms: C_2  and  O_3
REMARK    3  A    between atoms: O_3  and  C_4
REMARK    4  A    between atoms: C_11  and  C_12
REMARK    5  A    between atoms: C_12  and  N_13
REMARK    6  A    between atoms: C_16  and  N_17
REMARK                            x       y       z     vdW  Elec       q    Type
REMARK                         _______ _______ _______ _____ _____    ______ ____
ROOT
ATOM      1  C   UNL     1       4.448   5.016  17.963  0.00  0.00    +0.000 A 
ATOM      2  C   UNL     1       4.022   4.235  19.043  0.00  0.00    +0.000 A 
ATOM      3  C   UNL     1       3.070   4.729  19.929  0.00  0.00    +0.000 A 
ATOM      4  C   UNL     1       2.565   6.010  19.741  0.00  0.00    +0.000 A 
ATOM      5  N   UNL     1       1.830   6.591  20.773  0.00  0.00    +0.000 N 
ATOM      6  C   UNL     1       1.572   7.932  20.801  0.00  0.00    +0.000 A 
ATOM      7  O   UNL     1       1.293   8.489  21.865  0.00  0.00    +0.000 OA
ATOM      8  C   UNL     1       1.619   8.667  19.500  0.00  0.00    +0.000 A 
ATOM      9  C   UNL     1       2.268   8.107  18.462  0.00  0.00    +0.000 A 
ATOM     10  C   UNL     1       2.900   6.780  18.620  0.00  0.00    +0.000 A 
ATOM     11  C   UNL     1       3.847   6.265  17.724  0.00  0.00    +0.000 A 
ATOM     12  H   UNL     1       1.736   6.110  21.656  0.00  0.00    +0.000 HD
ENDROOT
BRANCH   1  13
ATOM     13  O   UNL     1       5.457   4.659  17.101  0.00  0.00    +0.000 OA
BRANCH  13  15
ATOM     14  C   UNL     1       6.176   3.960  14.908  0.00  0.00    +0.000 C 
ATOM     15  C   UNL     1       5.133   4.718  15.706  0.00  0.00    +0.000 C 
ENDBRANCH  13  15
ENDBRANCH   1  13
BRANCH   8  16
ATOM     16  C   UNL     1       0.893   9.999  19.593  0.00  0.00    +0.000 C 
BRANCH  16  17
ATOM     17  N   UNL     1       0.132  10.565  18.447  0.00  0.00    +0.000 NA
ATOM     18  C   UNL     1      -0.905   9.624  17.988  0.00  0.00    +0.000 C 
ATOM     19  C   UNL     1      -1.880  10.249  16.982  0.00  0.00    +0.000 C 
ATOM     20  C   UNL     1      -2.640  11.482  17.531  0.00  0.00    +0.000 C 
ATOM     21  C   UNL     1      -1.532  12.449  18.003  0.00  0.00    +0.000 C 
ATOM     22  C   UNL     1      -0.488  11.822  18.926  0.00  0.00    +0.000 C 
BRANCH  20  23
ATOM     23  N   UNL     1      -3.681  11.137  18.542  0.00  0.00    +0.000 NA
ATOM     24  C   UNL     1      -4.955  10.693  17.928  0.00  0.00    +0.000 C 
ATOM     25  C   UNL     1      -5.767  11.956  17.704  0.00  0.00    +0.000 C 
ATOM     26  C   UNL     1      -5.475  12.755  18.952  0.00  0.00    +0.000 C 
ATOM     27  C   UNL     1      -4.096  12.275  19.401  0.00  0.00    +0.000 C 
ENDBRANCH  20  23
ENDBRANCH  16  17
ENDBRANCH   8  16
TORSDOF 5
ENDMDL
MODEL 6
REMARK VINA RESULT:      -7.9      4.588      6.971
REMARK  Name = 
REMARK  6 active torsions:
REMARK  status: ('A' for Active; 'I' for Inactive)
REMARK    1  A    between atoms: C_1  and  C_2
REMARK    2  A    between atoms: C_2  and  O_3
REMARK    3  A    between atoms: O_3  and  C_4
REMARK    4  A    between atoms: C_11  and  C_12
REMARK    5  A    between atoms: C_12  and  N_13
REMARK    6  A    between atoms: C_16  and  N_17
REMARK                            x       y       z     vdW  Elec       q    Type
REMARK                         _______ _______ _______ _____ _____    ______ ____
ROOT
ATOM      1  C   UNL     1       5.022   5.050  16.325  0.00  0.00    +0.000 A 
ATOM      2  C   UNL     1       4.352   3.837  16.516  0.00  0.00    +0.000 A 
ATOM      3  C   UNL     1       3.270   3.766  17.386  0.00  0.00    +0.000 A 
ATOM      4  C   UNL     1       2.877   4.907  18.078  0.00  0.00    +0.000 A 
ATOM      5  N   UNL     1       1.981   4.765  19.136  0.00  0.00    +0.000 N 
ATOM      6  C   UNL     1       1.790   5.762  20.050  0.00  0.00    +0.000 A 
ATOM      7  O   UNL     1       1.334   5.503  21.166  0.00  0.00    +0.000 OA
ATOM      8  C   UNL     1       2.130   7.155  19.628  0.00  0.00    +0.000 A 
ATOM      9  C   UNL     1       2.943   7.330  18.569  0.00  0.00    +0.000 A 
ATOM     10  C   UNL     1       3.465   6.155  17.839  0.00  0.00    +0.000 A 
ATOM     11  C   UNL     1       4.544   6.218  16.946  0.00  0.00    +0.000 A 
ATOM     12  H   UNL     1       1.691   3.843  19.429  0.00  0.00    +0.000 HD
ENDROOT
BRANCH   1  13
ATOM     13  O   UNL     1       6.163   5.194  15.572  0.00  0.00    +0.000 OA
BRANCH  13  15
ATOM     14  C   UNL     1       7.629   4.616  17.398  0.00  0.00    +0.000 C 
ATOM     15  C   UNL     1       7.265   4.358  15.949  0.00  0.00    +0.000 C 
ENDBRANCH  13  15
ENDBRANCH   1  13
BRANCH   8  16
ATOM     16  C   UNL     1       1.468   8.182  20.531  0.00  0.00    +0.000 C 
BRANCH  16  17
ATOM     17  N   UNL     1       1.083   9.532  20.040  0.00  0.00    +0.000 NA
ATOM     18  C   UNL     1       0.867   9.521  18.582  0.00  0.00    +0.000 C 
ATOM     19  C   UNL     1       0.228  10.814  18.059  0.00  0.00    +0.000 C 
ATOM     20  C   UNL     1      -1.152  11.128  18.689  0.00  0.00    +0.000 C 
ATOM     21  C   UNL     1      -0.896  11.135  20.213  0.00  0.00    +0.000 C 
ATOM     22  C   UNL     1      -0.167   9.901  20.743  0.00  0.00    +0.000 C 
BRANCH  20  23
ATOM     23  N   UNL     1      -2.243  10.228  18.213  0.00  0.00    +0.000 NA
ATOM     24  C   UNL     1      -2.076   9.821  16.798  0.00  0.00    +0.000 C 
ATOM     25  C   UNL     1      -2.772  10.893  15.977  0.00  0.00    +0.000 C 
ATOM     26  C   UNL     1      -4.001  11.188  16.803  0.00  0.00    +0.000 C 
ATOM     27  C   UNL     1      -3.593  10.844  18.235  0.00  0.00    +0.000 C 
ENDBRANCH  20  23
ENDBRANCH  16  17
ENDBRANCH   8  16
TORSDOF 5
ENDMDL
MODEL 7
REMARK VINA RESULT:      -7.8      6.094      8.661
REMARK  Name = 
REMARK  6 active torsions:
REMARK  status: ('A' for Active; 'I' for Inactive)
REMARK    1  A    between atoms: C_1  and  C_2
REMARK    2  A    between atoms: C_2  and  O_3
REMARK    3  A    between atoms: O_3  and  C_4
REMARK    4  A    between atoms: C_11  and  C_12
REMARK    5  A    between atoms: C_12  and  N_13
REMARK    6  A    between atoms: C_16  and  N_17
REMARK                            x       y       z     vdW  Elec       q    Type
REMARK                         _______ _______ _______ _____ _____    ______ ____
ROOT
ATOM      1  C   UNL     1       4.939   5.808  17.124  0.00  0.00    +0.000 A 
ATOM      2  C   UNL     1       4.702   4.826  18.092  0.00  0.00    +0.000 A 
ATOM      3  C   UNL     1       3.728   5.023  19.064  0.00  0.00    +0.000 A 
ATOM      4  C   UNL     1       3.010   6.213  19.076  0.00  0.00    +0.000 A 
ATOM      5  N   UNL     1       2.241   6.513  20.200  0.00  0.00    +0.000 N 
ATOM      6  C   UNL     1       1.767   7.774  20.427  0.00  0.00    +0.000 A 
ATOM      7  O   UNL     1       1.454   8.123  21.567  0.00  0.00    +0.000 OA
ATOM      8  C   UNL     1       1.626   8.677  19.244  0.00  0.00    +0.000 A 
ATOM      9  C   UNL     1       2.306   8.384  18.120  0.00  0.00    +0.000 A 
ATOM     10  C   UNL     1       3.156   7.175  18.068  0.00  0.00    +0.000 A 
ATOM     11  C   UNL     1       4.129   6.957  17.083  0.00  0.00    +0.000 A 
ATOM     12  H   UNL     1       2.273   5.907  21.006  0.00  0.00    +0.000 HD
ENDROOT
BRANCH   1  13
ATOM     13  O   UNL     1       5.949   5.751  16.193  0.00  0.00    +0.000 OA
BRANCH  13  15
ATOM     14  C   UNL     1       6.119   3.991  14.554  0.00  0.00    +0.000 C 
ATOM     15  C   UNL     1       6.495   4.448  15.950  0.00  0.00    +0.000 C 
ENDBRANCH  13  15
ENDBRANCH   1  13
BRANCH   8  16
ATOM     16  C   UNL     1       0.697   9.841  19.547  0.00  0.00    +0.000 C 
BRANCH  16  17
ATOM     17  N   UNL     1       0.611  11.033  18.662  0.00  0.00    +0.000 NA
ATOM     18  C   UNL     1      -0.690  11.710  18.814  0.00  0.00    +0.000 C 
ATOM     19  C   UNL     1      -0.741  13.077  18.121  0.00  0.00    +0.000 C 
ATOM     20  C   UNL     1       0.321  14.080  18.637  0.00  0.00    +0.000 C 
ATOM     21  C   UNL     1       1.670  13.347  18.465  0.00  0.00    +0.000 C 
ATOM     22  C   UNL     1       1.713  11.939  19.059  0.00  0.00    +0.000 C 
BRANCH  20  23
ATOM     23  N   UNL     1       0.031  14.603  20.005  0.00  0.00    +0.000 NA
ATOM     24  C   UNL     1      -1.050  15.616  20.015  0.00  0.00    +0.000 C 
ATOM     25  C   UNL     1      -0.365  16.951  19.784  0.00  0.00    +0.000 C 
ATOM     26  C   UNL     1       0.896  16.815  20.603  0.00  0.00    +0.000 C 
ATOM     27  C   UNL     1       1.170  15.313  20.639  0.00  0.00    +0.000 C 
ENDBRANCH  20  23
ENDBRANCH  16  17
ENDBRANCH   8  16
TORSDOF 5
ENDMDL
MODEL 8
REMARK VINA RESULT:      -7.8      6.325      9.204
REMARK  Name = 
REMARK  6 active torsions:
REMARK  status: ('A' for Active; 'I' for Inactive)
REMARK    1  A    between atoms: C_1  and  C_2
REMARK    2  A    between atoms: C_2  and  O_3
REMARK    3  A    between atoms: O_3  and  C_4
REMARK    4  A    between atoms: C_11  and  C_12
REMARK    5  A    between atoms: C_12  and  N_13
REMARK    6  A    between atoms: C_16  and  N_17
REMARK                            x       y       z     vdW  Elec       q    Type
REMARK                         _______ _______ _______ _____ _____    ______ ____
ROOT
ATOM      1  C   UNL     1       4.433   5.903  17.594  0.00  0.00    +0.000 A 
ATOM      2  C   UNL     1       4.198   5.041  18.671  0.00  0.00    +0.000 A 
ATOM      3  C   UNL     1       3.259   5.375  19.640  0.00  0.00    +0.000 A 
ATOM      4  C   UNL     1       2.574   6.581  19.537  0.00  0.00    +0.000 A 
ATOM      5  N   UNL     1       1.847   7.026  20.640  0.00  0.00    +0.000 N 
ATOM      6  C   UNL     1       1.414   8.319  20.737  0.00  0.00    +0.000 A 
ATOM      7  O   UNL     1       1.144   8.802  21.839  0.00  0.00    +0.000 OA
ATOM      8  C   UNL     1       1.264   9.089  19.465  0.00  0.00    +0.000 A 
ATOM      9  C   UNL     1       1.902   8.652  18.363  0.00  0.00    +0.000 A 
ATOM     10  C   UNL     1       2.717   7.420  18.425  0.00  0.00    +0.000 A 
ATOM     11  C   UNL     1       3.654   7.064  17.445  0.00  0.00    +0.000 A 
ATOM     12  H   UNL     1       1.885   6.513  21.508  0.00  0.00    +0.000 HD
ENDROOT
BRANCH   1  13
ATOM     13  O   UNL     1       5.414   5.712  16.650  0.00  0.00    +0.000 OA
BRANCH  13  15
ATOM     14  C   UNL     1       7.355   6.851  17.516  0.00  0.00    +0.000 C 
ATOM     15  C   UNL     1       6.738   5.512  17.161  0.00  0.00    +0.000 C 
ENDBRANCH  13  15
ENDBRANCH   1  13
BRANCH   8  16
ATOM     16  C   UNL     1       0.376  10.307  19.660  0.00  0.00    +0.000 C 
BRANCH  16  17
ATOM     17  N   UNL     1       0.475  11.504  18.783  0.00  0.00    +0.000 NA
ATOM     18  C   UNL     1      -0.534  12.513  19.153  0.00  0.00    +0.000 C 
ATOM     19  C   UNL     1      -0.319  13.862  18.455  0.00  0.00    +0.000 C 
ATOM     20  C   UNL     1       1.057  14.508  18.755  0.00  0.00    +0.000 C 
ATOM     21  C   UNL     1       2.092  13.433  18.357  0.00  0.00    +0.000 C 
ATOM     22  C   UNL     1       1.839  12.051  18.959  0.00  0.00    +0.000 C 
BRANCH  20  23
ATOM     23  N   UNL     1       1.173  15.046  20.142  0.00  0.00    +0.000 NA
ATOM     24  C   UNL     1       0.284  16.207  20.384  0.00  0.00    +0.000 C 
ATOM     25  C   UNL     1       1.085  17.431  19.976  0.00  0.00    +0.000 C 
ATOM     26  C   UNL     1       2.468  17.097  20.482  0.00  0.00    +0.000 C 
ATOM     27  C   UNL     1       2.519  15.570  20.481  0.00  0.00    +0.000 C 
ENDBRANCH  20  23
ENDBRANCH  16  17
ENDBRANCH   8  16
TORSDOF 5
ENDMDL
MODEL 9
REMARK VINA RESULT:      -7.8      6.118      8.543
REMARK  Name = 
REMARK  6 active torsions:
REMARK  status: ('A' for Active; 'I' for Inactive)
REMARK    1  A    between atoms: C_1  and  C_2
REMARK    2  A    between atoms: C_2  and  O_3
REMARK    3  A    between atoms: O_3  and  C_4
REMARK    4  A    between atoms: C_11  and  C_12
REMARK    5  A    between atoms: C_12  and  N_13
REMARK    6  A    between atoms: C_16  and  N_17
REMARK                            x       y       z     vdW  Elec       q    Type
REMARK                         _______ _______ _______ _____ _____    ______ ____
ROOT
ATOM      1  C   UNL     1       5.369   6.107  17.170  0.00  0.00    +0.000 A 
ATOM      2  C   UNL     1       5.187   5.183  18.205  0.00  0.00    +0.000 A 
ATOM      3  C   UNL     1       4.140   5.341  19.106  0.00  0.00    +0.000 A 
ATOM      4  C   UNL     1       3.293   6.436  18.980  0.00  0.00    +0.000 A 
ATOM      5  N   UNL     1       2.429   6.731  20.033  0.00  0.00    +0.000 N 
ATOM      6  C   UNL     1       1.803   7.942  20.128  0.00  0.00    +0.000 A 
ATOM      7  O   UNL     1       1.384   8.341  21.217  0.00  0.00    +0.000 OA
ATOM      8  C   UNL     1       1.633   8.726  18.867  0.00  0.00    +0.000 A 
ATOM      9  C   UNL     1       2.408   8.427  17.808  0.00  0.00    +0.000 A 
ATOM     10  C   UNL     1       3.390   7.326  17.903  0.00  0.00    +0.000 A 
ATOM     11  C   UNL     1       4.439   7.146  16.990  0.00  0.00    +0.000 A 
ATOM     12  H   UNL     1       2.480   6.198  20.889  0.00  0.00    +0.000 HD
ENDROOT
BRANCH   1  13
ATOM     13  O   UNL     1       6.434   6.095  16.300  0.00  0.00    +0.000 OA
BRANCH  13  15
ATOM     14  C   UNL     1       5.917   4.484  14.582  0.00  0.00    +0.000 C 
ATOM     15  C   UNL     1       6.793   4.810  15.776  0.00  0.00    +0.000 C 
ENDBRANCH  13  15
ENDBRANCH   1  13
BRANCH   8  16
ATOM     16  C   UNL     1       0.562   9.793  19.022  0.00  0.00    +0.000 C 
BRANCH  16  17
ATOM     17  N   UNL     1       0.875  11.245  18.931  0.00  0.00    +0.000 NA
ATOM     18  C   UNL     1      -0.318  12.017  18.538  0.00  0.00    +0.000 C 
ATOM     19  C   UNL     1      -0.123  13.533  18.673  0.00  0.00    +0.000 C 
ATOM     20  C   UNL     1       0.225  13.993  20.110  0.00  0.00    +0.000 C 
ATOM     21  C   UNL     1       1.475  13.171  20.495  0.00  0.00    +0.000 C 
ATOM     22  C   UNL     1       1.342  11.665  20.272  0.00  0.00    +0.000 C 
BRANCH  20  23
ATOM     23  N   UNL     1      -0.926  13.913  21.056  0.00  0.00    +0.000 NA
ATOM     24  C   UNL     1      -1.929  14.982  20.833  0.00  0.00    +0.000 C 
ATOM     25  C   UNL     1      -1.473  16.157  21.681  0.00  0.00    +0.000 C 
ATOM     26  C   UNL     1      -0.985  15.479  22.940  0.00  0.00    +0.000 C 
ATOM     27  C   UNL     1      -0.555  14.085  22.483  0.00  0.00    +0.000 C 
ENDBRANCH  20  23
ENDBRANCH  16  17
ENDBRANCH   8  16
TORSDOF 5
ENDMDL
