MODEL 1
REMARK VINA RESULT:      -8.8      0.000      0.000
REMARK  Name = 
REMARK  8 active torsions:
REMARK  status: ('A' for Active; 'I' for Inactive)
REMARK    1  A    between atoms: C_1  and  C_2
REMARK    2  A    between atoms: C_8  and  C_9
REMARK    3  A    between atoms: N_11  and  C_12
REMARK    4  A    between atoms: C_16  and  C_17
REMARK    5  A    between atoms: C_17  and  C_18
REMARK    6  A    between atoms: C_17  and  S_19
REMARK    7  A    between atoms: S_19  and  C_20
REMARK    8  A    between atoms: N_24  and  C_25
REMARK                            x       y       z     vdW  Elec       q    Type
REMARK                         _______ _______ _______ _____ _____    ______ ____
ROOT
ATOM      1  C   UNL     1       8.001   8.277  18.158  0.00  0.00    +0.000 C 
ATOM      2  O   UNL     1       8.531   7.447  18.904  0.00  0.00    +0.000 OA
ATOM      3  N   UNL     1       6.999   8.020  17.222  0.00  0.00    +0.000 N 
ATOM      4  H   UNL     1       6.790   8.778  16.580  0.00  0.00    +0.000 HD
ENDROOT
BRANCH   1  12
ATOM      5  C   UNL     1       9.374  14.757  17.922  0.00  0.00    +0.000 C 
ATOM      6  C   UNL     1       9.981  13.559  18.610  0.00  0.00    +0.000 A 
ATOM      7  C   UNL     1      11.084  13.752  19.449  0.00  0.00    +0.000 A 
ATOM      8  C   UNL     1      11.655  12.674  20.113  0.00  0.00    +0.000 A 
ATOM      9  C   UNL     1      11.121  11.397  19.954  0.00  0.00    +0.000 A 
ATOM     10  C   UNL     1      10.030  11.153  19.131  0.00  0.00    +0.000 A 
ATOM     11  N   UNL     1       9.577   9.896  19.044  0.00  0.00    +0.000 NA
ATOM     12  C   UNL     1       8.516   9.670  18.219  0.00  0.00    +0.000 A 
ATOM     13  C   UNL     1       7.895  10.665  17.477  0.00  0.00    +0.000 A 
ATOM     14  C   UNL     1       8.362  11.964  17.598  0.00  0.00    +0.000 A 
ATOM     15  C   UNL     1       9.452  12.252  18.440  0.00  0.00    +0.000 A 
ENDBRANCH   1  12
BRANCH   3  16
ATOM     16  C   UNL     1       6.385   6.761  17.022  0.00  0.00    +0.000 A 
ATOM     17  C   UNL     1       7.023   5.745  16.311  0.00  0.00    +0.000 A 
ATOM     18  C   UNL     1       6.420   4.504  16.142  0.00  0.00    +0.000 A 
ATOM     19  C   UNL     1       5.123   4.284  16.610  0.00  0.00    +0.000 A 
ATOM     20  C   UNL     1       4.408   5.309  17.262  0.00  0.00    +0.000 A 
ATOM     21  C   UNL     1       5.094   6.519  17.531  0.00  0.00    +0.000 A 
BRANCH  20  22
ATOM     22  C   UNL     1       2.920   5.161  17.625  0.00  0.00    +0.000 C 
ATOM     23  C   UNL     1       2.557   5.836  18.947  0.00  0.00    +0.000 C 
BRANCH  22  24
ATOM     24  S   UNL     1       2.412   3.369  17.700  0.00  0.00    +0.000 S 
BRANCH  24  25
ATOM     25  C   UNL     1       2.145   3.102  19.396  0.00  0.00    +0.000 A 
ATOM     26  N   UNL     1       0.994   3.195  20.024  0.00  0.00    +0.000 NA
ATOM     27  N   UNL     1       1.204   2.881  21.350  0.00  0.00    +0.000 NA
ATOM     28  C   UNL     1       2.477   2.603  21.496  0.00  0.00    +0.000 A 
ATOM     29  N   UNL     1       3.113   2.718  20.289  0.00  0.00    +0.000 N 
ATOM     30  C   UNL     1       4.503   2.413  20.080  0.00  0.00    +0.000 C 
ENDBRANCH  24  25
ENDBRANCH  22  24
ENDBRANCH  20  22
ENDBRANCH   3  16
TORSDOF 5
ENDMDL
MODEL 2
REMARK VINA RESULT:      -8.4      0.705      1.233
REMARK  Name = 
REMARK  8 active torsions:
REMARK  status: ('A' for Active; 'I' for Inactive)
REMARK    1  A    between atoms: C_1  and  C_2
REMARK    2  A    between atoms: C_8  and  C_9
REMARK    3  A    between atoms: N_11  and  C_12
REMARK    4  A    between atoms: C_16  and  C_17
REMARK    5  A    between atoms: C_17  and  C_18
REMARK    6  A    between atoms: C_17  and  S_19
REMARK    7  A    between atoms: S_19  and  C_20
REMARK    8  A    between atoms: N_24  and  C_25
REMARK                            x       y       z     vdW  Elec       q    Type
REMARK                         _______ _______ _______ _____ _____    ______ ____
ROOT
ATOM      1  C   UNL     1       8.044   8.231  18.180  0.00  0.00    +0.000 C 
ATOM      2  O   UNL     1       8.637   7.399  18.875  0.00  0.00    +0.000 OA
ATOM      3  N   UNL     1       7.042   7.960  17.249  0.00  0.00    +0.000 N 
ATOM      4  H   UNL     1       6.775   8.734  16.649  0.00  0.00    +0.000 HD
ENDROOT
BRANCH   1  12
ATOM      5  C   UNL     1       9.156  14.763  18.033  0.00  0.00    +0.000 C 
ATOM      6  C   UNL     1       9.662  13.610  18.865  0.00  0.00    +0.000 A 
ATOM      7  C   UNL     1      10.563  13.873  19.903  0.00  0.00    +0.000 A 
ATOM      8  C   UNL     1      11.033  12.838  20.700  0.00  0.00    +0.000 A 
ATOM      9  C   UNL     1      10.599  11.533  20.474  0.00  0.00    +0.000 A 
ATOM     10  C   UNL     1       9.709  11.221  19.456  0.00  0.00    +0.000 A 
ATOM     11  N   UNL     1       9.337   9.941  19.317  0.00  0.00    +0.000 NA
ATOM     12  C   UNL     1       8.475   9.648  18.303  0.00  0.00    +0.000 A 
ATOM     13  C   UNL     1       7.976  10.596  17.421  0.00  0.00    +0.000 A 
ATOM     14  C   UNL     1       8.352  11.919  17.596  0.00  0.00    +0.000 A 
ATOM     15  C   UNL     1       9.236  12.276  18.631  0.00  0.00    +0.000 A 
ENDBRANCH   1  12
BRANCH   3  16
ATOM     16  C   UNL     1       6.501   6.677  16.996  0.00  0.00    +0.000 A 
ATOM     17  C   UNL     1       7.204   5.721  16.264  0.00  0.00    +0.000 A 
ATOM     18  C   UNL     1       6.674   4.456  16.043  0.00  0.00    +0.000 A 
ATOM     19  C   UNL     1       5.382   4.151  16.479  0.00  0.00    +0.000 A 
ATOM     20  C   UNL     1       4.602   5.113  17.151  0.00  0.00    +0.000 A 
ATOM     21  C   UNL     1       5.217   6.348  17.472  0.00  0.00    +0.000 A 
BRANCH  20  22
ATOM     22  C   UNL     1       3.118   4.872  17.482  0.00  0.00    +0.000 C 
ATOM     23  C   UNL     1       2.667   5.585  18.756  0.00  0.00    +0.000 C 
BRANCH  22  24
ATOM     24  S   UNL     1       2.741   3.053  17.639  0.00  0.00    +0.000 S 
BRANCH  24  25
ATOM     25  C   UNL     1       3.329   2.661  19.226  0.00  0.00    +0.000 A 
ATOM     26  N   UNL     1       4.579   2.412  19.550  0.00  0.00    +0.000 NA
ATOM     27  N   UNL     1       4.628   2.173  20.907  0.00  0.00    +0.000 NA
ATOM     28  C   UNL     1       3.408   2.282  21.375  0.00  0.00    +0.000 A 
ATOM     29  N   UNL     1       2.553   2.599  20.354  0.00  0.00    +0.000 N 
ATOM     30  C   UNL     1       1.149   2.862  20.533  0.00  0.00    +0.000 C 
ENDBRANCH  24  25
ENDBRANCH  22  24
ENDBRANCH  20  22
ENDBRANCH   3  16
TORSDOF 5
ENDMDL
MODEL 3
REMARK VINA RESULT:      -8.3      5.451      8.429
REMARK  Name = 
REMARK  8 active torsions:
REMARK  status: ('A' for Active; 'I' for Inactive)
REMARK    1  A    between atoms: C_1  and  C_2
REMARK    2  A    between atoms: C_8  and  C_9
REMARK    3  A    between atoms: N_11  and  C_12
REMARK    4  A    between atoms: C_16  and  C_17
REMARK    5  A    between atoms: C_17  and  C_18
REMARK    6  A    between atoms: C_17  and  S_19
REMARK    7  A    between atoms: S_19  and  C_20
REMARK    8  A    between atoms: N_24  and  C_25
REMARK                            x       y       z     vdW  Elec       q    Type
REMARK                         _______ _______ _______ _____ _____    ______ ____
ROOT
ATOM      1  C   UNL     1       1.782   8.537  18.915  0.00  0.00    +0.000 C 
ATOM      2  O   UNL     1       2.274   8.776  17.807  0.00  0.00    +0.000 OA
ATOM      3  N   UNL     1       1.967   7.374  19.662  0.00  0.00    +0.000 N 
ATOM      4  H   UNL     1       1.365   7.269  20.472  0.00  0.00    +0.000 HD
ENDROOT
BRANCH   1  12
ATOM      5  C   UNL     1      -2.538  13.335  20.412  0.00  0.00    +0.000 C 
ATOM      6  C   UNL     1      -1.825  12.256  21.189  0.00  0.00    +0.000 A 
ATOM      7  C   UNL     1      -2.089  12.127  22.557  0.00  0.00    +0.000 A 
ATOM      8  C   UNL     1      -1.465  11.132  23.299  0.00  0.00    +0.000 A 
ATOM      9  C   UNL     1      -0.582  10.251  22.678  0.00  0.00    +0.000 A 
ATOM     10  C   UNL     1      -0.285  10.340  21.325  0.00  0.00    +0.000 A 
ATOM     11  N   UNL     1       0.568   9.445  20.809  0.00  0.00    +0.000 NA
ATOM     12  C   UNL     1       0.861   9.555  19.483  0.00  0.00    +0.000 A 
ATOM     13  C   UNL     1       0.328  10.536  18.657  0.00  0.00    +0.000 A 
ATOM     14  C   UNL     1      -0.572  11.437  19.203  0.00  0.00    +0.000 A 
ATOM     15  C   UNL     1      -0.912  11.364  20.566  0.00  0.00    +0.000 A 
ENDBRANCH   1  12
BRANCH   3  16
ATOM     16  C   UNL     1       2.807   6.298  19.286  0.00  0.00    +0.000 A 
ATOM     17  C   UNL     1       2.866   5.125  20.038  0.00  0.00    +0.000 A 
ATOM     18  C   UNL     1       3.675   4.065  19.646  0.00  0.00    +0.000 A 
ATOM     19  C   UNL     1       4.512   4.194  18.535  0.00  0.00    +0.000 A 
ATOM     20  C   UNL     1       4.546   5.392  17.794  0.00  0.00    +0.000 A 
ATOM     21  C   UNL     1       3.619   6.406  18.141  0.00  0.00    +0.000 A 
BRANCH  20  22
ATOM     22  C   UNL     1       5.582   5.633  16.681  0.00  0.00    +0.000 C 
ATOM     23  C   UNL     1       5.177   6.749  15.719  0.00  0.00    +0.000 C 
BRANCH  22  24
ATOM     24  S   UNL     1       5.908   4.078  15.706  0.00  0.00    +0.000 S 
BRANCH  24  25
ATOM     25  C   UNL     1       6.849   4.644  14.359  0.00  0.00    +0.000 A 
ATOM     26  N   UNL     1       7.859   5.484  14.417  0.00  0.00    +0.000 NA
ATOM     27  N   UNL     1       8.348   5.652  13.139  0.00  0.00    +0.000 NA
ATOM     28  C   UNL     1       7.624   4.912  12.335  0.00  0.00    +0.000 A 
ATOM     29  N   UNL     1       6.671   4.247  13.058  0.00  0.00    +0.000 N 
ATOM     30  C   UNL     1       5.753   3.293  12.495  0.00  0.00    +0.000 C 
ENDBRANCH  24  25
ENDBRANCH  22  24
ENDBRANCH  20  22
ENDBRANCH   3  16
TORSDOF 5
ENDMDL
MODEL 4
REMARK VINA RESULT:      -8.3      5.596      7.927
REMARK  Name = 
REMARK  8 active torsions:
REMARK  status: ('A' for Active; 'I' for Inactive)
REMARK    1  A    between atoms: C_1  and  C_2
REMARK    2  A    between atoms: C_8  and  C_9
REMARK    3  A    between atoms: N_11  and  C_12
REMARK    4  A    between atoms: C_16  and  C_17
REMARK    5  A    between atoms: C_17  and  C_18
REMARK    6  A    between atoms: C_17  and  S_19
REMARK    7  A    between atoms: S_19  and  C_20
REMARK    8  A    between atoms: N_24  and  C_25
REMARK                            x       y       z     vdW  Elec       q    Type
REMARK                         _______ _______ _______ _____ _____    ______ ____
ROOT
ATOM      1  C   UNL     1       2.242   7.959  18.275  0.00  0.00    +0.000 C 
ATOM      2  O   UNL     1       2.746   8.312  17.204  0.00  0.00    +0.000 OA
ATOM      3  N   UNL     1       2.200   6.657  18.773  0.00  0.00    +0.000 N 
ATOM      4  H   UNL     1       1.609   6.514  19.587  0.00  0.00    +0.000 HD
ENDROOT
BRANCH   1  12
ATOM      5  C   UNL     1      -0.819  13.190  20.957  0.00  0.00    +0.000 C 
ATOM      6  C   UNL     1      -0.478  11.795  21.422  0.00  0.00    +0.000 A 
ATOM      7  C   UNL     1      -0.885  11.393  22.698  0.00  0.00    +0.000 A 
ATOM      8  C   UNL     1      -0.605  10.110  23.151  0.00  0.00    +0.000 A 
ATOM      9  C   UNL     1       0.075   9.215  22.326  0.00  0.00    +0.000 A 
ATOM     10  C   UNL     1       0.502   9.567  21.053  0.00  0.00    +0.000 A 
ATOM     11  N   UNL     1       1.139   8.640  20.326  0.00  0.00    +0.000 NA
ATOM     12  C   UNL     1       1.567   9.006  19.085  0.00  0.00    +0.000 A 
ATOM     13  C   UNL     1       1.378  10.272  18.550  0.00  0.00    +0.000 A 
ATOM     14  C   UNL     1       0.694  11.211  19.307  0.00  0.00    +0.000 A 
ATOM     15  C   UNL     1       0.228  10.882  20.593  0.00  0.00    +0.000 A 
ENDBRANCH   1  12
BRANCH   3  16
ATOM     16  C   UNL     1       2.789   5.532  18.147  0.00  0.00    +0.000 A 
ATOM     17  C   UNL     1       2.083   4.342  17.976  0.00  0.00    +0.000 A 
ATOM     18  C   UNL     1       2.663   3.253  17.336  0.00  0.00    +0.000 A 
ATOM     19  C   UNL     1       3.999   3.306  16.931  0.00  0.00    +0.000 A 
ATOM     20  C   UNL     1       4.775   4.460  17.158  0.00  0.00    +0.000 A 
ATOM     21  C   UNL     1       4.121   5.596  17.696  0.00  0.00    +0.000 A 
BRANCH  20  22
ATOM     22  C   UNL     1       6.291   4.488  16.891  0.00  0.00    +0.000 C 
ATOM     23  C   UNL     1       7.111   4.813  18.139  0.00  0.00    +0.000 C 
BRANCH  22  24
ATOM     24  S   UNL     1       6.724   5.704  15.546  0.00  0.00    +0.000 S 
BRANCH  24  25
ATOM     25  C   UNL     1       6.656   4.740  14.102  0.00  0.00    +0.000 A 
ATOM     26  N   UNL     1       5.784   3.790  13.845  0.00  0.00    +0.000 NA
ATOM     27  N   UNL     1       6.055   3.292  12.588  0.00  0.00    +0.000 NA
ATOM     28  C   UNL     1       7.084   3.950  12.112  0.00  0.00    +0.000 A 
ATOM     29  N   UNL     1       7.494   4.883  13.026  0.00  0.00    +0.000 N 
ATOM     30  C   UNL     1       8.556   5.826  12.793  0.00  0.00    +0.000 C 
ENDBRANCH  24  25
ENDBRANCH  22  24
ENDBRANCH  20  22
ENDBRANCH   3  16
TORSDOF 5
ENDMDL
MODEL 5
REMARK VINA RESULT:      -8.2      0.656      1.681
REMARK  Name = 
REMARK  8 active torsions:
REMARK  status: ('A' for Active; 'I' for Inactive)
REMARK    1  A    between atoms: C_1  and  C_2
REMARK    2  A    between atoms: C_8  and  C_9
REMARK    3  A    between atoms: N_11  and  C_12
REMARK    4  A    between atoms: C_16  and  C_17
REMARK    5  A    between atoms: C_17  and  C_18
REMARK    6  A    between atoms: C_17  and  S_19
REMARK    7  A    between atoms: S_19  and  C_20
REMARK    8  A    between atoms: N_24  and  C_25
REMARK                            x       y       z     vdW  Elec       q    Type
REMARK                         _______ _______ _______ _____ _____    ______ ____
ROOT
ATOM      1  C   UNL     1       7.933   8.103  18.166  0.00  0.00    +0.000 C 
ATOM      2  O   UNL     1       8.510   7.196  18.776  0.00  0.00    +0.000 OA
ATOM      3  N   UNL     1       6.870   7.948  17.277  0.00  0.00    +0.000 N 
ATOM      4  H   UNL     1       6.619   8.773  16.740  0.00  0.00    +0.000 HD
ENDROOT
BRANCH   1  12
ATOM      5  C   UNL     1      11.120  13.774  19.435  0.00  0.00    +0.000 C 
ATOM      6  C   UNL     1       9.885  13.391  18.656  0.00  0.00    +0.000 A 
ATOM      7  C   UNL     1       9.185  14.391  17.972  0.00  0.00    +0.000 A 
ATOM      8  C   UNL     1       8.055  14.071  17.230  0.00  0.00    +0.000 A 
ATOM      9  C   UNL     1       7.624  12.747  17.155  0.00  0.00    +0.000 A 
ATOM     10  C   UNL     1       8.283  11.721  17.817  0.00  0.00    +0.000 A 
ATOM     11  N   UNL     1       7.805  10.477  17.682  0.00  0.00    +0.000 NA
ATOM     12  C   UNL     1       8.453   9.483  18.351  0.00  0.00    +0.000 A 
ATOM     13  C   UNL     1       9.565   9.696  19.154  0.00  0.00    +0.000 A 
ATOM     14  C   UNL     1      10.061  10.986  19.262  0.00  0.00    +0.000 A 
ATOM     15  C   UNL     1       9.431  12.047  18.588  0.00  0.00    +0.000 A 
ENDBRANCH   1  12
BRANCH   3  16
ATOM     16  C   UNL     1       6.242   6.716  16.976  0.00  0.00    +0.000 A 
ATOM     17  C   UNL     1       6.836   5.784  16.126  0.00  0.00    +0.000 A 
ATOM     18  C   UNL     1       6.222   4.567  15.857  0.00  0.00    +0.000 A 
ATOM     19  C   UNL     1       4.950   4.295  16.369  0.00  0.00    +0.000 A 
ATOM     20  C   UNL     1       4.276   5.242  17.165  0.00  0.00    +0.000 A 
ATOM     21  C   UNL     1       4.980   6.418  17.524  0.00  0.00    +0.000 A 
BRANCH  20  22
ATOM     22  C   UNL     1       2.809   5.052  17.590  0.00  0.00    +0.000 C 
ATOM     23  C   UNL     1       2.482   5.721  18.925  0.00  0.00    +0.000 C 
BRANCH  22  24
ATOM     24  S   UNL     1       2.357   3.246  17.691  0.00  0.00    +0.000 S 
BRANCH  24  25
ATOM     25  C   UNL     1       2.111   2.992  19.392  0.00  0.00    +0.000 A 
ATOM     26  N   UNL     1       0.959   3.041  20.024  0.00  0.00    +0.000 NA
ATOM     27  N   UNL     1       1.190   2.757  21.354  0.00  0.00    +0.000 NA
ATOM     28  C   UNL     1       2.475   2.541  21.497  0.00  0.00    +0.000 A 
ATOM     29  N   UNL     1       3.099   2.668  20.286  0.00  0.00    +0.000 N 
ATOM     30  C   UNL     1       4.502   2.425  20.074  0.00  0.00    +0.000 C 
ENDBRANCH  24  25
ENDBRANCH  22  24
ENDBRANCH  20  22
ENDBRANCH   3  16
TORSDOF 5
ENDMDL
MODEL 6
REMARK VINA RESULT:      -8.2      1.012      2.057
REMARK  Name = 
REMARK  8 active torsions:
REMARK  status: ('A' for Active; 'I' for Inactive)
REMARK    1  A    between atoms: C_1  and  C_2
REMARK    2  A    between atoms: C_8  and  C_9
REMARK    3  A    between atoms: N_11  and  C_12
REMARK    4  A    between atoms: C_16  and  C_17
REMARK    5  A    between atoms: C_17  and  C_18
REMARK    6  A    between atoms: C_17  and  S_19
REMARK    7  A    between atoms: S_19  and  C_20
REMARK    8  A    between atoms: N_24  and  C_25
REMARK                            x       y       z     vdW  Elec       q    Type
REMARK                         _______ _______ _______ _____ _____    ______ ____
ROOT
ATOM      1  C   UNL     1       8.008   7.964  18.129  0.00  0.00    +0.000 C 
ATOM      2  O   UNL     1       8.493   7.084  18.850  0.00  0.00    +0.000 OA
ATOM      3  N   UNL     1       7.128   7.762  17.067  0.00  0.00    +0.000 N 
ATOM      4  H   UNL     1       6.953   8.570  16.478  0.00  0.00    +0.000 HD
ENDROOT
BRANCH   1  12
ATOM      5  C   UNL     1      10.792  13.751  19.767  0.00  0.00    +0.000 C 
ATOM      6  C   UNL     1       9.663  13.325  18.860  0.00  0.00    +0.000 A 
ATOM      7  C   UNL     1       8.995  14.301  18.114  0.00  0.00    +0.000 A 
ATOM      8  C   UNL     1       7.965  13.941  17.254  0.00  0.00    +0.000 A 
ATOM      9  C   UNL     1       7.603  12.602  17.125  0.00  0.00    +0.000 A 
ATOM     10  C   UNL     1       8.233  11.597  17.845  0.00  0.00    +0.000 A 
ATOM     11  N   UNL     1       7.827  10.335  17.652  0.00  0.00    +0.000 NA
ATOM     12  C   UNL     1       8.444   9.362  18.378  0.00  0.00    +0.000 A 
ATOM     13  C   UNL     1       9.455   9.613  19.295  0.00  0.00    +0.000 A 
ATOM     14  C   UNL     1       9.880  10.922  19.464  0.00  0.00    +0.000 A 
ATOM     15  C   UNL     1       9.278  11.963  18.735  0.00  0.00    +0.000 A 
ENDBRANCH   1  12
BRANCH   3  16
ATOM     16  C   UNL     1       6.601   6.505  16.682  0.00  0.00    +0.000 A 
ATOM     17  C   UNL     1       7.135   5.790  15.611  0.00  0.00    +0.000 A 
ATOM     18  C   UNL     1       6.626   4.546  15.257  0.00  0.00    +0.000 A 
ATOM     19  C   UNL     1       5.508   4.031  15.919  0.00  0.00    +0.000 A 
ATOM     20  C   UNL     1       4.885   4.758  16.953  0.00  0.00    +0.000 A 
ATOM     21  C   UNL     1       5.502   5.961  17.374  0.00  0.00    +0.000 A 
BRANCH  20  22
ATOM     22  C   UNL     1       3.551   4.307  17.576  0.00  0.00    +0.000 C 
ATOM     23  C   UNL     1       3.117   5.179  18.754  0.00  0.00    +0.000 C 
BRANCH  22  24
ATOM     24  S   UNL     1       3.625   2.529  18.132  0.00  0.00    +0.000 S 
BRANCH  24  25
ATOM     25  C   UNL     1       2.908   2.577  19.714  0.00  0.00    +0.000 A 
ATOM     26  N   UNL     1       3.555   2.648  20.857  0.00  0.00    +0.000 NA
ATOM     27  N   UNL     1       2.623   2.692  21.872  0.00  0.00    +0.000 NA
ATOM     28  C   UNL     1       1.433   2.648  21.323  0.00  0.00    +0.000 A 
ATOM     29  N   UNL     1       1.559   2.585  19.961  0.00  0.00    +0.000 N 
ATOM     30  C   UNL     1       0.446   2.596  19.049  0.00  0.00    +0.000 C 
ENDBRANCH  24  25
ENDBRANCH  22  24
ENDBRANCH  20  22
ENDBRANCH   3  16
TORSDOF 5
ENDMDL
MODEL 7
REMARK VINA RESULT:      -8.0      6.404      9.327
REMARK  Name = 
REMARK  8 active torsions:
REMARK  status: ('A' for Active; 'I' for Inactive)
REMARK    1  A    between atoms: C_1  and  C_2
REMARK    2  A    between atoms: C_8  and  C_9
REMARK    3  A    between atoms: N_11  and  C_12
REMARK    4  A    between atoms: C_16  and  C_17
REMARK    5  A    between atoms: C_17  and  C_18
REMARK    6  A    between atoms: C_17  and  S_19
REMARK    7  A    between atoms: S_19  and  C_20
REMARK    8  A    between atoms: N_24  and  C_25
REMARK                            x       y       z     vdW  Elec       q    Type
REMARK                         _______ _______ _______ _____ _____    ______ ____
ROOT
ATOM      1  C   UNL     1       2.164   6.631  19.932  0.00  0.00    +0.000 C 
ATOM      2  O   UNL     1       1.446   5.894  20.617  0.00  0.00    +0.000 OA
ATOM      3  N   UNL     1       2.083   8.021  19.861  0.00  0.00    +0.000 N 
ATOM      4  H   UNL     1       2.636   8.459  19.131  0.00  0.00    +0.000 HD
ENDROOT
BRANCH   1  12
ATOM      5  C   UNL     1       5.852   3.639  15.308  0.00  0.00    +0.000 C 
ATOM      6  C   UNL     1       6.131   4.310  16.631  0.00  0.00    +0.000 A 
ATOM      7  C   UNL     1       7.456   4.408  17.069  0.00  0.00    +0.000 A 
ATOM      8  C   UNL     1       7.751   5.037  18.272  0.00  0.00    +0.000 A 
ATOM      9  C   UNL     1       6.724   5.583  19.041  0.00  0.00    +0.000 A 
ATOM     10  C   UNL     1       5.395   5.509  18.651  0.00  0.00    +0.000 A 
ATOM     11  N   UNL     1       4.474   6.070  19.447  0.00  0.00    +0.000 NA
ATOM     12  C   UNL     1       3.172   5.975  19.058  0.00  0.00    +0.000 A 
ATOM     13  C   UNL     1       2.761   5.334  17.898  0.00  0.00    +0.000 A 
ATOM     14  C   UNL     1       3.729   4.781  17.074  0.00  0.00    +0.000 A 
ATOM     15  C   UNL     1       5.089   4.856  17.427  0.00  0.00    +0.000 A 
ENDBRANCH   1  12
BRANCH   3  16
ATOM     16  C   UNL     1       1.191   8.818  20.618  0.00  0.00    +0.000 A 
ATOM     17  C   UNL     1       1.088   8.681  22.002  0.00  0.00    +0.000 A 
ATOM     18  C   UNL     1       0.227   9.487  22.738  0.00  0.00    +0.000 A 
ATOM     19  C   UNL     1      -0.616  10.390  22.087  0.00  0.00    +0.000 A 
ATOM     20  C   UNL     1      -0.606  10.503  20.683  0.00  0.00    +0.000 A 
ATOM     21  C   UNL     1       0.370   9.762  19.972  0.00  0.00    +0.000 A 
BRANCH  20  22
ATOM     22  C   UNL     1      -1.644  11.351  19.926  0.00  0.00    +0.000 C 
ATOM     23  C   UNL     1      -1.272  11.584  18.462  0.00  0.00    +0.000 C 
BRANCH  22  24
ATOM     24  S   UNL     1      -1.912  13.000  20.754  0.00  0.00    +0.000 S 
BRANCH  24  25
ATOM     25  C   UNL     1      -3.411  12.779  21.604  0.00  0.00    +0.000 A 
ATOM     26  N   UNL     1      -3.551  12.641  22.904  0.00  0.00    +0.000 NA
ATOM     27  N   UNL     1      -4.897  12.518  23.177  0.00  0.00    +0.000 NA
ATOM     28  C   UNL     1      -5.542  12.585  22.037  0.00  0.00    +0.000 A 
ATOM     29  N   UNL     1      -4.649  12.760  21.015  0.00  0.00    +0.000 N 
ATOM     30  C   UNL     1      -5.027  12.944  19.639  0.00  0.00    +0.000 C 
ENDBRANCH  24  25
ENDBRANCH  22  24
ENDBRANCH  20  22
ENDBRANCH   3  16
TORSDOF 5
ENDMDL
MODEL 8
REMARK VINA RESULT:      -8.0      5.119      7.916
REMARK  Name = 
REMARK  8 active torsions:
REMARK  status: ('A' for Active; 'I' for Inactive)
REMARK    1  A    between atoms: C_1  and  C_2
REMARK    2  A    between atoms: C_8  and  C_9
REMARK    3  A    between atoms: N_11  and  C_12
REMARK    4  A    between atoms: C_16  and  C_17
REMARK    5  A    between atoms: C_17  and  C_18
REMARK    6  A    between atoms: C_17  and  S_19
REMARK    7  A    between atoms: S_19  and  C_20
REMARK    8  A    between atoms: N_24  and  C_25
REMARK                            x       y       z     vdW  Elec       q    Type
REMARK                         _______ _______ _______ _____ _____    ______ ____
ROOT
ATOM      1  C   UNL     1       2.074   7.812  19.047  0.00  0.00    +0.000 C 
ATOM      2  O   UNL     1       2.230   7.752  17.823  0.00  0.00    +0.000 OA
ATOM      3  N   UNL     1       2.555   6.898  19.983  0.00  0.00    +0.000 N 
ATOM      4  H   UNL     1       2.202   7.006  20.929  0.00  0.00    +0.000 HD
ENDROOT
BRANCH   1  12
ATOM      5  C   UNL     1      -1.696  13.107  20.342  0.00  0.00    +0.000 C 
ATOM      6  C   UNL     1      -1.200  11.925  21.140  0.00  0.00    +0.000 A 
ATOM      7  C   UNL     1      -1.596  11.802  22.476  0.00  0.00    +0.000 A 
ATOM      8  C   UNL     1      -1.174  10.716  23.233  0.00  0.00    +0.000 A 
ATOM      9  C   UNL     1      -0.363   9.740  22.657  0.00  0.00    +0.000 A 
ATOM     10  C   UNL     1       0.058   9.819  21.337  0.00  0.00    +0.000 A 
ATOM     11  N   UNL     1       0.829   8.831  20.863  0.00  0.00    +0.000 NA
ATOM     12  C   UNL     1       1.248   8.931  19.571  0.00  0.00    +0.000 A 
ATOM     13  C   UNL     1       0.922   9.992  18.738  0.00  0.00    +0.000 A 
ATOM     14  C   UNL     1       0.103  10.993  19.237  0.00  0.00    +0.000 A 
ATOM     15  C   UNL     1      -0.361  10.935  20.564  0.00  0.00    +0.000 A 
ENDBRANCH   1  12
BRANCH   3  16
ATOM     16  C   UNL     1       3.359   5.774  19.675  0.00  0.00    +0.000 A 
ATOM     17  C   UNL     1       2.865   4.475  19.782  0.00  0.00    +0.000 A 
ATOM     18  C   UNL     1       3.656   3.380  19.452  0.00  0.00    +0.000 A 
ATOM     19  C   UNL     1       4.993   3.563  19.092  0.00  0.00    +0.000 A 
ATOM     20  C   UNL     1       5.558   4.853  19.051  0.00  0.00    +0.000 A 
ATOM     21  C   UNL     1       4.695   5.955  19.268  0.00  0.00    +0.000 A 
BRANCH  20  22
ATOM     22  C   UNL     1       7.066   5.076  18.837  0.00  0.00    +0.000 C 
ATOM     23  C   UNL     1       7.780   5.577  20.092  0.00  0.00    +0.000 C 
BRANCH  22  24
ATOM     24  S   UNL     1       7.388   6.266  17.439  0.00  0.00    +0.000 S 
BRANCH  24  25
ATOM     25  C   UNL     1       6.791   5.416  16.047  0.00  0.00    +0.000 A 
ATOM     26  N   UNL     1       7.323   4.341  15.508  0.00  0.00    +0.000 NA
ATOM     27  N   UNL     1       6.535   3.963  14.441  0.00  0.00    +0.000 NA
ATOM     28  C   UNL     1       5.543   4.817  14.358  0.00  0.00    +0.000 A 
ATOM     29  N   UNL     1       5.654   5.748  15.356  0.00  0.00    +0.000 N 
ATOM     30  C   UNL     1       4.689   6.788  15.596  0.00  0.00    +0.000 C 
ENDBRANCH  24  25
ENDBRANCH  22  24
ENDBRANCH  20  22
ENDBRANCH   3  16
TORSDOF 5
ENDMDL
MODEL 9
REMARK VINA RESULT:      -7.9      5.831      8.978
REMARK  Name = 
REMARK  8 active torsions:
REMARK  status: ('A' for Active; 'I' for Inactive)
REMARK    1  A    between atoms: C_1  and  C_2
REMARK    2  A    between atoms: C_8  and  C_9
REMARK    3  A    between atoms: N_11  and  C_12
REMARK    4  A    between atoms: C_16  and  C_17
REMARK    5  A    between atoms: C_17  and  C_18
REMARK    6  A    between atoms: C_17  and  S_19
REMARK    7  A    between atoms: S_19  and  C_20
REMARK    8  A    between atoms: N_24  and  C_25
REMARK                            x       y       z     vdW  Elec       q    Type
REMARK                         _______ _______ _______ _____ _____    ______ ____
ROOT
ATOM      1  C   UNL     1       2.192   6.729  19.848  0.00  0.00    +0.000 C 
ATOM      2  O   UNL     1       1.518   6.015  20.598  0.00  0.00    +0.000 OA
ATOM      3  N   UNL     1       2.055   8.107  19.684  0.00  0.00    +0.000 N 
ATOM      4  H   UNL     1       2.574   8.515  18.913  0.00  0.00    +0.000 HD
ENDROOT
BRANCH   1  12
ATOM      5  C   UNL     1       5.921   3.664  15.306  0.00  0.00    +0.000 C 
ATOM      6  C   UNL     1       6.183   4.329  16.635  0.00  0.00    +0.000 A 
ATOM      7  C   UNL     1       7.500   4.399  17.103  0.00  0.00    +0.000 A 
ATOM      8  C   UNL     1       7.780   5.021  18.313  0.00  0.00    +0.000 A 
ATOM      9  C   UNL     1       6.748   5.588  19.059  0.00  0.00    +0.000 A 
ATOM     10  C   UNL     1       5.426   5.542  18.639  0.00  0.00    +0.000 A 
ATOM     11  N   UNL     1       4.500   6.121  19.414  0.00  0.00    +0.000 NA
ATOM     12  C   UNL     1       3.205   6.053  18.996  0.00  0.00    +0.000 A 
ATOM     13  C   UNL     1       2.807   5.421  17.827  0.00  0.00    +0.000 A 
ATOM     14  C   UNL     1       3.783   4.849  17.024  0.00  0.00    +0.000 A 
ATOM     15  C   UNL     1       5.135   4.895  17.408  0.00  0.00    +0.000 A 
ENDBRANCH   1  12
BRANCH   3  16
ATOM     16  C   UNL     1       1.149   8.920  20.407  0.00  0.00    +0.000 A 
ATOM     17  C   UNL     1       0.766   8.604  21.709  0.00  0.00    +0.000 A 
ATOM     18  C   UNL     1      -0.104   9.423  22.418  0.00  0.00    +0.000 A 
ATOM     19  C   UNL     1      -0.680  10.536  21.800  0.00  0.00    +0.000 A 
ATOM     20  C   UNL     1      -0.387  10.847  20.458  0.00  0.00    +0.000 A 
ATOM     21  C   UNL     1       0.600  10.068  19.804  0.00  0.00    +0.000 A 
BRANCH  20  22
ATOM     22  C   UNL     1      -1.139  11.952  19.695  0.00  0.00    +0.000 C 
ATOM     23  C   UNL     1      -1.091  13.306  20.402  0.00  0.00    +0.000 C 
BRANCH  22  24
ATOM     24  S   UNL     1      -2.919  11.485  19.399  0.00  0.00    +0.000 S 
BRANCH  24  25
ATOM     25  C   UNL     1      -2.949  11.081  17.710  0.00  0.00    +0.000 A 
ATOM     26  N   UNL     1      -2.025  10.409  17.057  0.00  0.00    +0.000 NA
ATOM     27  N   UNL     1      -2.439  10.278  15.748  0.00  0.00    +0.000 NA
ATOM     28  C   UNL     1      -3.602  10.871  15.637  0.00  0.00    +0.000 A 
ATOM     29  N   UNL     1      -3.973  11.385  16.850  0.00  0.00    +0.000 N 
ATOM     30  C   UNL     1      -5.231  12.038  17.097  0.00  0.00    +0.000 C 
ENDBRANCH  24  25
ENDBRANCH  22  24
ENDBRANCH  20  22
ENDBRANCH   3  16
TORSDOF 5
ENDMDL
