MODEL 1
REMARK VINA RESULT:      -7.4      0.000      0.000
REMARK  Name = 
REMARK  9 active torsions:
REMARK  status: ('A' for Active; 'I' for Inactive)
REMARK    1  A    between atoms: C_1  and  C_2
REMARK    2  A    between atoms: C_4  and  C_5
REMARK    3  A    between atoms: C_5  and  C_6
REMARK    4  A    between atoms: C_5  and  N_8
REMARK    5  A    between atoms: C_6  and  N_7
REMARK    6  A    between atoms: C_9  and  C_11
REMARK    7  A    between atoms: C_14  and  C_15
REMARK    8  A    between atoms: C_24  and  C_25
REMARK    9  A    between atoms: C_25  and  O_26
REMARK                            x       y       z     vdW  Elec       q    Type
REMARK                         _______ _______ _______ _____ _____    ______ ____
ROOT
ATOM      1  N   UNL     1       0.776   9.604  19.415  0.00  0.00    +0.000 N 
ATOM      2  C   UNL     1       1.121   8.774  20.457  0.00  0.00    +0.000 C 
ATOM      3  O   UNL     1       0.879   9.058  21.626  0.00  0.00    +0.000 OA
ATOM      4  H   UNL     1       0.941   9.319  18.458  0.00  0.00    +0.000 HD
ENDROOT
BRANCH   2   5
ATOM      5  C   UNL     1       1.796   7.546  20.087  0.00  0.00    +0.000 A 
ATOM      6  C   UNL     1       1.906   6.328  20.727  0.00  0.00    +0.000 A 
ATOM      7  C   UNL     1       2.681   5.474  19.910  0.00  0.00    +0.000 A 
ATOM      8  C   UNL     1       3.058   6.168  18.773  0.00  0.00    +0.000 A 
ATOM      9  N   UNL     1       2.509   7.432  18.906  0.00  0.00    +0.000 N 
ATOM     10  H   UNL     1       2.585   8.178  18.229  0.00  0.00    +0.000 HD
BRANCH   8  11
ATOM     11  C   UNL     1       3.865   5.733  17.630  0.00  0.00    +0.000 A 
ATOM     12  C   UNL     1       4.014   4.363  17.363  0.00  0.00    +0.000 A 
ATOM     13  C   UNL     1       4.831   3.913  16.319  0.00  0.00    +0.000 A 
ATOM     14  C   UNL     1       5.511   4.835  15.531  0.00  0.00    +0.000 A 
ATOM     15 CL   UNL     1       6.544   4.286  14.271  0.00  0.00    +0.000 Cl
ATOM     16  C   UNL     1       5.368   6.201  15.770  0.00  0.00    +0.000 A 
ATOM     17  C   UNL     1       4.546   6.648  16.813  0.00  0.00    +0.000 A 
ENDBRANCH   8  11
ENDBRANCH   2   5
BRANCH   1  18
ATOM     18  C   UNL     1       0.055  10.861  19.613  0.00  0.00    +0.000 C 
BRANCH  18  22
ATOM     19  C   UNL     1      -2.752   9.834  15.648  0.00  0.00    +0.000 C 
ATOM     20  C   UNL     1      -2.495  10.450  16.979  0.00  0.00    +0.000 A 
ATOM     21  N   UNL     1      -1.295  10.152  17.614  0.00  0.00    +0.000 NA
ATOM     22  C   UNL     1      -1.178  10.850  18.729  0.00  0.00    +0.000 A 
ATOM     23  S   UNL     1      -2.545  11.822  19.120  0.00  0.00    +0.000 S 
ATOM     24  C   UNL     1      -3.319  11.325  17.670  0.00  0.00    +0.000 A 
BRANCH  24  25
ATOM     25  C   UNL     1      -4.672  11.840  17.319  0.00  0.00    +0.000 C 
BRANCH  25  26
ATOM     26  O   UNL     1      -5.055  12.770  18.321  0.00  0.00    +0.000 OA
ATOM     27  H   UNL     1      -4.478  13.547  18.220  0.00  0.00    +0.000 HD
ENDBRANCH  25  26
ENDBRANCH  24  25
ENDBRANCH  18  22
BRANCH  18  28
ATOM     28  C   UNL     1       0.925  12.117  19.310  0.00  0.00    +0.000 C 
BRANCH  28  29
ATOM     29  N   UNL     1       0.874  12.635  17.929  0.00  0.00    +0.000 NA
ATOM     30  H   UNL     1       0.530  11.903  17.307  0.00  0.00    +0.000 HD
ATOM     31  H   UNL     1       1.830  12.816  17.617  0.00  0.00    +0.000 HD
ENDBRANCH  28  29
ENDBRANCH  18  28
ENDBRANCH   1  18
TORSDOF 8
ENDMDL
MODEL 2
REMARK VINA RESULT:      -7.2      5.199      9.404
REMARK  Name = 
REMARK  9 active torsions:
REMARK  status: ('A' for Active; 'I' for Inactive)
REMARK    1  A    between atoms: C_1  and  C_2
REMARK    2  A    between atoms: C_4  and  C_5
REMARK    3  A    between atoms: C_5  and  C_6
REMARK    4  A    between atoms: C_5  and  N_8
REMARK    5  A    between atoms: C_6  and  N_7
REMARK    6  A    between atoms: C_9  and  C_11
REMARK    7  A    between atoms: C_14  and  C_15
REMARK    8  A    between atoms: C_24  and  C_25
REMARK    9  A    between atoms: C_25  and  O_26
REMARK                            x       y       z     vdW  Elec       q    Type
REMARK                         _______ _______ _______ _____ _____    ______ ____
ROOT
ATOM      1  N   UNL     1       4.082   5.522  17.262  0.00  0.00    +0.000 N 
ATOM      2  C   UNL     1       3.691   5.983  18.498  0.00  0.00    +0.000 C 
ATOM      3  O   UNL     1       4.020   5.423  19.539  0.00  0.00    +0.000 OA
ATOM      4  H   UNL     1       3.839   6.035  16.425  0.00  0.00    +0.000 HD
ENDROOT
BRANCH   2   5
ATOM      5  C   UNL     1       2.860   7.172  18.493  0.00  0.00    +0.000 A 
ATOM      6  C   UNL     1       2.535   8.062  17.490  0.00  0.00    +0.000 A 
ATOM      7  C   UNL     1       1.679   9.044  18.040  0.00  0.00    +0.000 A 
ATOM      8  C   UNL     1       1.486   8.764  19.382  0.00  0.00    +0.000 A 
ATOM      9  N   UNL     1       2.221   7.618  19.636  0.00  0.00    +0.000 N 
ATOM     10  H   UNL     1       2.274   7.142  20.525  0.00  0.00    +0.000 HD
BRANCH   8  11
ATOM     11  C   UNL     1       0.692   9.478  20.386  0.00  0.00    +0.000 A 
ATOM     12  C   UNL     1       0.418   8.868  21.621  0.00  0.00    +0.000 A 
ATOM     13  C   UNL     1      -0.391   9.495  22.575  0.00  0.00    +0.000 A 
ATOM     14  C   UNL     1      -0.939  10.743  22.300  0.00  0.00    +0.000 A 
ATOM     15 CL   UNL     1      -1.963  11.501  23.453  0.00  0.00    +0.000 Cl
ATOM     16  C   UNL     1      -0.670  11.373  21.085  0.00  0.00    +0.000 A 
ATOM     17  C   UNL     1       0.144  10.744  20.134  0.00  0.00    +0.000 A 
ENDBRANCH   8  11
ENDBRANCH   2   5
BRANCH   1  18
ATOM     18  C   UNL     1       4.954   4.359  17.094  0.00  0.00    +0.000 C 
BRANCH  18  22
ATOM     19  C   UNL     1       5.575   3.165  12.315  0.00  0.00    +0.000 C 
ATOM     20  C   UNL     1       5.906   3.915  13.559  0.00  0.00    +0.000 A 
ATOM     21  N   UNL     1       5.068   3.760  14.656  0.00  0.00    +0.000 NA
ATOM     22  C   UNL     1       5.550   4.406  15.700  0.00  0.00    +0.000 A 
ATOM     23  S   UNL     1       6.982   5.313  15.390  0.00  0.00    +0.000 S 
ATOM     24  C   UNL     1       6.991   4.753  13.768  0.00  0.00    +0.000 A 
BRANCH  24  25
ATOM     25  C   UNL     1       8.068   5.173  12.827  0.00  0.00    +0.000 C 
BRANCH  25  26
ATOM     26  O   UNL     1       8.924   6.068  13.521  0.00  0.00    +0.000 OA
ATOM     27  H   UNL     1       9.061   6.836  12.939  0.00  0.00    +0.000 HD
ENDBRANCH  25  26
ENDBRANCH  24  25
ENDBRANCH  18  22
BRANCH  18  28
ATOM     28  C   UNL     1       4.215   3.006  17.320  0.00  0.00    +0.000 C 
BRANCH  28  29
ATOM     29  N   UNL     1       4.354   2.396  18.655  0.00  0.00    +0.000 NA
ATOM     30  H   UNL     1       3.532   1.823  18.852  0.00  0.00    +0.000 HD
ATOM     31  H   UNL     1       4.327   3.140  19.354  0.00  0.00    +0.000 HD
ENDBRANCH  28  29
ENDBRANCH  18  28
ENDBRANCH   1  18
TORSDOF 8
ENDMDL
MODEL 3
REMARK VINA RESULT:      -7.1      7.112      8.928
REMARK  Name = 
REMARK  9 active torsions:
REMARK  status: ('A' for Active; 'I' for Inactive)
REMARK    1  A    between atoms: C_1  and  C_2
REMARK    2  A    between atoms: C_4  and  C_5
REMARK    3  A    between atoms: C_5  and  C_6
REMARK    4  A    between atoms: C_5  and  N_8
REMARK    5  A    between atoms: C_6  and  N_7
REMARK    6  A    between atoms: C_9  and  C_11
REMARK    7  A    between atoms: C_14  and  C_15
REMARK    8  A    between atoms: C_24  and  C_25
REMARK    9  A    between atoms: C_25  and  O_26
REMARK                            x       y       z     vdW  Elec       q    Type
REMARK                         _______ _______ _______ _____ _____    ______ ____
ROOT
ATOM      1  N   UNL     1       5.765   5.204  17.242  0.00  0.00    +0.000 N 
ATOM      2  C   UNL     1       6.151   6.420  16.729  0.00  0.00    +0.000 C 
ATOM      3  O   UNL     1       5.713   6.851  15.667  0.00  0.00    +0.000 OA
ATOM      4  H   UNL     1       6.104   4.900  18.146  0.00  0.00    +0.000 HD
ENDROOT
BRANCH   2   5
ATOM      5  C   UNL     1       7.116   7.160  17.519  0.00  0.00    +0.000 A 
ATOM      6  C   UNL     1       7.959   6.773  18.541  0.00  0.00    +0.000 A 
ATOM      7  C   UNL     1       8.694   7.908  18.954  0.00  0.00    +0.000 A 
ATOM      8  C   UNL     1       8.296   8.995  18.195  0.00  0.00    +0.000 A 
ATOM      9  N   UNL     1       7.329   8.514  17.328  0.00  0.00    +0.000 N 
ATOM     10  H   UNL     1       6.851   9.059  16.625  0.00  0.00    +0.000 HD
BRANCH   8  11
ATOM     11  C   UNL     1       8.750  10.388  18.238  0.00  0.00    +0.000 A 
ATOM     12  C   UNL     1       8.057  11.370  17.512  0.00  0.00    +0.000 A 
ATOM     13  C   UNL     1       8.503  12.696  17.479  0.00  0.00    +0.000 A 
ATOM     14  C   UNL     1       9.654  13.052  18.173  0.00  0.00    +0.000 A 
ATOM     15 CL   UNL     1      10.226  14.672  18.106  0.00  0.00    +0.000 Cl
ATOM     16  C   UNL     1      10.351  12.097  18.911  0.00  0.00    +0.000 A 
ATOM     17  C   UNL     1       9.899  10.770  18.945  0.00  0.00    +0.000 A 
ENDBRANCH   8  11
ENDBRANCH   2   5
BRANCH   1  18
ATOM     18  C   UNL     1       4.770   4.353  16.590  0.00  0.00    +0.000 C 
BRANCH  18  22
ATOM     19  C   UNL     1       0.687   2.360  18.592  0.00  0.00    +0.000 C 
ATOM     20  C   UNL     1       2.085   2.869  18.638  0.00  0.00    +0.000 A 
ATOM     21  N   UNL     1       2.689   3.227  17.439  0.00  0.00    +0.000 NA
ATOM     22  C   UNL     1       3.882   3.749  17.660  0.00  0.00    +0.000 A 
ATOM     23  S   UNL     1       4.378   3.743  19.310  0.00  0.00    +0.000 S 
ATOM     24  C   UNL     1       2.872   3.055  19.765  0.00  0.00    +0.000 A 
BRANCH  24  25
ATOM     25  C   UNL     1       2.575   2.759  21.195  0.00  0.00    +0.000 C 
BRANCH  25  26
ATOM     26  O   UNL     1       3.658   2.000  21.714  0.00  0.00    +0.000 OA
ATOM     27  H   UNL     1       3.518   1.930  22.675  0.00  0.00    +0.000 HD
ENDBRANCH  25  26
ENDBRANCH  24  25
ENDBRANCH  18  22
BRANCH  18  28
ATOM     28  C   UNL     1       5.407   3.228  15.720  0.00  0.00    +0.000 C 
BRANCH  28  29
ATOM     29  N   UNL     1       6.158   3.665  14.527  0.00  0.00    +0.000 NA
ATOM     30  H   UNL     1       7.082   3.993  14.811  0.00  0.00    +0.000 HD
ATOM     31  H   UNL     1       5.696   4.488  14.139  0.00  0.00    +0.000 HD
ENDBRANCH  28  29
ENDBRANCH  18  28
ENDBRANCH   1  18
TORSDOF 8
ENDMDL
MODEL 4
REMARK VINA RESULT:      -7.1      1.147      1.754
REMARK  Name = 
REMARK  9 active torsions:
REMARK  status: ('A' for Active; 'I' for Inactive)
REMARK    1  A    between atoms: C_1  and  C_2
REMARK    2  A    between atoms: C_4  and  C_5
REMARK    3  A    between atoms: C_5  and  C_6
REMARK    4  A    between atoms: C_5  and  N_8
REMARK    5  A    between atoms: C_6  and  N_7
REMARK    6  A    between atoms: C_9  and  C_11
REMARK    7  A    between atoms: C_14  and  C_15
REMARK    8  A    between atoms: C_24  and  C_25
REMARK    9  A    between atoms: C_25  and  O_26
REMARK                            x       y       z     vdW  Elec       q    Type
REMARK                         _______ _______ _______ _____ _____    ______ ____
ROOT
ATOM      1  N   UNL     1       1.031   9.496  19.609  0.00  0.00    +0.000 N 
ATOM      2  C   UNL     1       1.214   8.536  20.577  0.00  0.00    +0.000 C 
ATOM      3  O   UNL     1       0.892   8.717  21.747  0.00  0.00    +0.000 OA
ATOM      4  H   UNL     1       1.258   9.298  18.643  0.00  0.00    +0.000 HD
ENDROOT
BRANCH   2   5
ATOM      5  C   UNL     1       1.817   7.296  20.129  0.00  0.00    +0.000 A 
ATOM      6  C   UNL     1       1.766   6.013  20.634  0.00  0.00    +0.000 A 
ATOM      7  C   UNL     1       2.542   5.182  19.794  0.00  0.00    +0.000 A 
ATOM      8  C   UNL     1       3.079   5.954  18.778  0.00  0.00    +0.000 A 
ATOM      9  N   UNL     1       2.625   7.242  19.007  0.00  0.00    +0.000 N 
ATOM     10  H   UNL     1       2.825   8.045  18.427  0.00  0.00    +0.000 HD
BRANCH   8  11
ATOM     11  C   UNL     1       3.950   5.569  17.665  0.00  0.00    +0.000 A 
ATOM     12  C   UNL     1       4.537   6.561  16.863  0.00  0.00    +0.000 A 
ATOM     13  C   UNL     1       5.320   6.226  15.753  0.00  0.00    +0.000 A 
ATOM     14  C   UNL     1       5.522   4.888  15.431  0.00  0.00    +0.000 A 
ATOM     15 CL   UNL     1       6.453   4.472  14.047  0.00  0.00    +0.000 Cl
ATOM     16  C   UNL     1       4.960   3.886  16.221  0.00  0.00    +0.000 A 
ATOM     17  C   UNL     1       4.179   4.225  17.334  0.00  0.00    +0.000 A 
ENDBRANCH   8  11
ENDBRANCH   2   5
BRANCH   1  18
ATOM     18  C   UNL     1       0.400  10.786  19.887  0.00  0.00    +0.000 C 
BRANCH  18  22
ATOM     19  C   UNL     1      -4.266  11.999  18.700  0.00  0.00    +0.000 C 
ATOM     20  C   UNL     1      -2.934  11.393  18.429  0.00  0.00    +0.000 A 
ATOM     21  N   UNL     1      -1.928  11.581  19.369  0.00  0.00    +0.000 NA
ATOM     22  C   UNL     1      -0.848  10.902  19.031  0.00  0.00    +0.000 A 
ATOM     23  S   UNL     1      -0.951  10.085  17.518  0.00  0.00    +0.000 S 
ATOM     24  C   UNL     1      -2.571  10.624  17.333  0.00  0.00    +0.000 A 
BRANCH  24  25
ATOM     25  C   UNL     1      -3.363  10.242  16.130  0.00  0.00    +0.000 C 
BRANCH  25  26
ATOM     26  O   UNL     1      -3.311  11.327  15.215  0.00  0.00    +0.000 OA
ATOM     27  H   UNL     1      -3.035  10.959  14.358  0.00  0.00    +0.000 HD
ENDBRANCH  25  26
ENDBRANCH  24  25
ENDBRANCH  18  22
BRANCH  18  28
ATOM     28  C   UNL     1       1.346  11.997  19.628  0.00  0.00    +0.000 C 
BRANCH  28  29
ATOM     29  N   UNL     1       1.008  12.862  18.482  0.00  0.00    +0.000 NA
ATOM     30  H   UNL     1       1.093  13.840  18.761  0.00  0.00    +0.000 HD
ATOM     31  H   UNL     1       0.018  12.738  18.265  0.00  0.00    +0.000 HD
ENDBRANCH  28  29
ENDBRANCH  18  28
ENDBRANCH   1  18
TORSDOF 8
ENDMDL
MODEL 5
REMARK VINA RESULT:      -7.0      0.985      1.041
REMARK  Name = 
REMARK  9 active torsions:
REMARK  status: ('A' for Active; 'I' for Inactive)
REMARK    1  A    between atoms: C_1  and  C_2
REMARK    2  A    between atoms: C_4  and  C_5
REMARK    3  A    between atoms: C_5  and  C_6
REMARK    4  A    between atoms: C_5  and  N_8
REMARK    5  A    between atoms: C_6  and  N_7
REMARK    6  A    between atoms: C_9  and  C_11
REMARK    7  A    between atoms: C_14  and  C_15
REMARK    8  A    between atoms: C_24  and  C_25
REMARK    9  A    between atoms: C_25  and  O_26
REMARK                            x       y       z     vdW  Elec       q    Type
REMARK                         _______ _______ _______ _____ _____    ______ ____
ROOT
ATOM      1  N   UNL     1       0.041  10.187  19.170  0.00  0.00    +0.000 N 
ATOM      2  C   UNL     1       0.854   9.769  20.197  0.00  0.00    +0.000 C 
ATOM      3  O   UNL     1       1.084  10.471  21.177  0.00  0.00    +0.000 OA
ATOM      4  H   UNL     1      -0.172   9.565  18.401  0.00  0.00    +0.000 HD
ENDROOT
BRANCH   2   5
ATOM      5  C   UNL     1       1.430   8.446  20.047  0.00  0.00    +0.000 A 
ATOM      6  C   UNL     1       1.404   7.334  20.863  0.00  0.00    +0.000 A 
ATOM      7  C   UNL     1       2.131   6.305  20.221  0.00  0.00    +0.000 A 
ATOM      8  C   UNL     1       2.612   6.786  19.016  0.00  0.00    +0.000 A 
ATOM      9  N   UNL     1       2.174   8.098  18.934  0.00  0.00    +0.000 N 
ATOM     10  H   UNL     1       2.344   8.724  18.160  0.00  0.00    +0.000 HD
BRANCH   8  11
ATOM     11  C   UNL     1       3.420   6.118  17.992  0.00  0.00    +0.000 A 
ATOM     12  C   UNL     1       3.371   4.721  17.866  0.00  0.00    +0.000 A 
ATOM     13  C   UNL     1       4.179   4.048  16.943  0.00  0.00    +0.000 A 
ATOM     14  C   UNL     1       5.051   4.770  16.136  0.00  0.00    +0.000 A 
ATOM     15 CL   UNL     1       6.072   3.945  15.026  0.00  0.00    +0.000 Cl
ATOM     16  C   UNL     1       5.107   6.160  16.234  0.00  0.00    +0.000 A 
ATOM     17  C   UNL     1       4.294   6.831  17.157  0.00  0.00    +0.000 A 
ENDBRANCH   8  11
ENDBRANCH   2   5
BRANCH   1  18
ATOM     18  C   UNL     1      -0.649  11.477  19.185  0.00  0.00    +0.000 C 
BRANCH  18  22
ATOM     19  C   UNL     1      -3.442  10.639  15.167  0.00  0.00    +0.000 C 
ATOM     20  C   UNL     1      -3.230  11.018  16.591  0.00  0.00    +0.000 A 
ATOM     21  N   UNL     1      -1.951  10.888  17.117  0.00  0.00    +0.000 NA
ATOM     22  C   UNL     1      -1.910  11.355  18.351  0.00  0.00    +0.000 A 
ATOM     23  S   UNL     1      -3.427  11.881  18.975  0.00  0.00    +0.000 S 
ATOM     24  C   UNL     1      -4.176  11.518  17.474  0.00  0.00    +0.000 A 
BRANCH  24  25
ATOM     25  C   UNL     1      -5.632  11.761  17.275  0.00  0.00    +0.000 C 
BRANCH  25  26
ATOM     26  O   UNL     1      -5.805  13.139  16.979  0.00  0.00    +0.000 OA
ATOM     27  H   UNL     1      -6.764  13.302  16.941  0.00  0.00    +0.000 HD
ENDBRANCH  25  26
ENDBRANCH  24  25
ENDBRANCH  18  22
BRANCH  18  28
ATOM     28  C   UNL     1       0.236  12.647  18.659  0.00  0.00    +0.000 C 
BRANCH  28  29
ATOM     29  N   UNL     1       1.101  13.315  19.650  0.00  0.00    +0.000 NA
ATOM     30  H   UNL     1       1.493  14.163  19.239  0.00  0.00    +0.000 HD
ATOM     31  H   UNL     1       1.907  12.715  19.830  0.00  0.00    +0.000 HD
ENDBRANCH  28  29
ENDBRANCH  18  28
ENDBRANCH   1  18
TORSDOF 8
ENDMDL
MODEL 6
REMARK VINA RESULT:      -6.9      5.154      9.421
REMARK  Name = 
REMARK  9 active torsions:
REMARK  status: ('A' for Active; 'I' for Inactive)
REMARK    1  A    between atoms: C_1  and  C_2
REMARK    2  A    between atoms: C_4  and  C_5
REMARK    3  A    between atoms: C_5  and  C_6
REMARK    4  A    between atoms: C_5  and  N_8
REMARK    5  A    between atoms: C_6  and  N_7
REMARK    6  A    between atoms: C_9  and  C_11
REMARK    7  A    between atoms: C_14  and  C_15
REMARK    8  A    between atoms: C_24  and  C_25
REMARK    9  A    between atoms: C_25  and  O_26
REMARK                            x       y       z     vdW  Elec       q    Type
REMARK                         _______ _______ _______ _____ _____    ______ ____
ROOT
ATOM      1  N   UNL     1       4.015   5.631  17.483  0.00  0.00    +0.000 N 
ATOM      2  C   UNL     1       3.546   6.066  18.701  0.00  0.00    +0.000 C 
ATOM      3  O   UNL     1       3.773   5.461  19.744  0.00  0.00    +0.000 OA
ATOM      4  H   UNL     1       3.856   6.180  16.648  0.00  0.00    +0.000 HD
ENDROOT
BRANCH   2   5
ATOM      5  C   UNL     1       2.760   7.284  18.675  0.00  0.00    +0.000 A 
ATOM      6  C   UNL     1       2.560   8.229  17.689  0.00  0.00    +0.000 A 
ATOM      7  C   UNL     1       1.690   9.218  18.203  0.00  0.00    +0.000 A 
ATOM      8  C   UNL     1       1.363   8.888  19.507  0.00  0.00    +0.000 A 
ATOM      9  N   UNL     1       2.031   7.705  19.774  0.00  0.00    +0.000 N 
ATOM     10  H   UNL     1       1.984   7.189  20.640  0.00  0.00    +0.000 HD
BRANCH   8  11
ATOM     11  C   UNL     1       0.503   9.587  20.466  0.00  0.00    +0.000 A 
ATOM     12  C   UNL     1      -0.188  10.743  20.070  0.00  0.00    +0.000 A 
ATOM     13  C   UNL     1      -0.964  11.470  20.980  0.00  0.00    +0.000 A 
ATOM     14  C   UNL     1      -1.055  11.046  22.301  0.00  0.00    +0.000 A 
ATOM     15 CL   UNL     1      -1.977  11.956  23.430  0.00  0.00    +0.000 Cl
ATOM     16  C   UNL     1      -0.388   9.893  22.713  0.00  0.00    +0.000 A 
ATOM     17  C   UNL     1       0.385   9.165  21.799  0.00  0.00    +0.000 A 
ENDBRANCH   8  11
ENDBRANCH   2   5
BRANCH   1  18
ATOM     18  C   UNL     1       4.856   4.443  17.341  0.00  0.00    +0.000 C 
BRANCH  18  22
ATOM     19  C   UNL     1       5.756   3.424  12.566  0.00  0.00    +0.000 C 
ATOM     20  C   UNL     1       6.041   4.093  13.865  0.00  0.00    +0.000 A 
ATOM     21  N   UNL     1       5.114   3.947  14.890  0.00  0.00    +0.000 NA
ATOM     22  C   UNL     1       5.558   4.511  15.998  0.00  0.00    +0.000 A 
ATOM     23  S   UNL     1       7.064   5.331  15.837  0.00  0.00    +0.000 S 
ATOM     24  C   UNL     1       7.158   4.845  14.193  0.00  0.00    +0.000 A 
BRANCH  24  25
ATOM     25  C   UNL     1       8.328   5.232  13.354  0.00  0.00    +0.000 C 
BRANCH  25  26
ATOM     26  O   UNL     1       7.858   6.093  12.328  0.00  0.00    +0.000 OA
ATOM     27  H   UNL     1       6.903   6.209  12.472  0.00  0.00    +0.000 HD
ENDBRANCH  25  26
ENDBRANCH  24  25
ENDBRANCH  18  22
BRANCH  18  28
ATOM     28  C   UNL     1       4.057   3.111  17.465  0.00  0.00    +0.000 C 
BRANCH  28  29
ATOM     29  N   UNL     1       4.218   2.363  18.726  0.00  0.00    +0.000 NA
ATOM     30  H   UNL     1       3.383   1.799  18.893  0.00  0.00    +0.000 HD
ATOM     31  H   UNL     1       4.242   3.031  19.497  0.00  0.00    +0.000 HD
ENDBRANCH  28  29
ENDBRANCH  18  28
ENDBRANCH   1  18
TORSDOF 8
ENDMDL
MODEL 7
REMARK VINA RESULT:      -6.9      5.458      9.035
REMARK  Name = 
REMARK  9 active torsions:
REMARK  status: ('A' for Active; 'I' for Inactive)
REMARK    1  A    between atoms: C_1  and  C_2
REMARK    2  A    between atoms: C_4  and  C_5
REMARK    3  A    between atoms: C_5  and  C_6
REMARK    4  A    between atoms: C_5  and  N_8
REMARK    5  A    between atoms: C_6  and  N_7
REMARK    6  A    between atoms: C_9  and  C_11
REMARK    7  A    between atoms: C_14  and  C_15
REMARK    8  A    between atoms: C_24  and  C_25
REMARK    9  A    between atoms: C_25  and  O_26
REMARK                            x       y       z     vdW  Elec       q    Type
REMARK                         _______ _______ _______ _____ _____    ______ ____
ROOT
ATOM      1  N   UNL     1       5.659   5.950  18.170  0.00  0.00    +0.000 N 
ATOM      2  C   UNL     1       5.098   5.038  19.034  0.00  0.00    +0.000 C 
ATOM      3  O   UNL     1       5.665   3.994  19.342  0.00  0.00    +0.000 OA
ATOM      4  H   UNL     1       5.191   6.826  17.977  0.00  0.00    +0.000 HD
ENDROOT
BRANCH   2   5
ATOM      5  C   UNL     1       3.790   5.385  19.555  0.00  0.00    +0.000 A 
ATOM      6  C   UNL     1       2.762   4.610  20.050  0.00  0.00    +0.000 A 
ATOM      7  C   UNL     1       1.707   5.473  20.426  0.00  0.00    +0.000 A 
ATOM      8  C   UNL     1       2.081   6.777  20.153  0.00  0.00    +0.000 A 
ATOM      9  N   UNL     1       3.356   6.698  19.618  0.00  0.00    +0.000 N 
ATOM     10  H   UNL     1       3.920   7.485  19.331  0.00  0.00    +0.000 HD
BRANCH   8  11
ATOM     11  C   UNL     1       1.345   8.028  20.355  0.00  0.00    +0.000 A 
ATOM     12  C   UNL     1       0.596   8.215  21.528  0.00  0.00    +0.000 A 
ATOM     13  C   UNL     1      -0.170   9.370  21.721  0.00  0.00    +0.000 A 
ATOM     14  C   UNL     1      -0.196  10.352  20.737  0.00  0.00    +0.000 A 
ATOM     15 CL   UNL     1      -1.165  11.755  20.954  0.00  0.00    +0.000 Cl
ATOM     16  C   UNL     1       0.550  10.193  19.570  0.00  0.00    +0.000 A 
ATOM     17  C   UNL     1       1.319   9.037  19.381  0.00  0.00    +0.000 A 
ENDBRANCH   8  11
ENDBRANCH   2   5
BRANCH   1  18
ATOM     18  C   UNL     1       6.989   5.771  17.588  0.00  0.00    +0.000 C 
BRANCH  18  22
ATOM     19  C   UNL     1       7.882   5.339  12.724  0.00  0.00    +0.000 C 
ATOM     20  C   UNL     1       7.149   5.022  13.980  0.00  0.00    +0.000 A 
ATOM     21  N   UNL     1       7.637   5.547  15.170  0.00  0.00    +0.000 NA
ATOM     22  C   UNL     1       6.826   5.259  16.170  0.00  0.00    +0.000 A 
ATOM     23  S   UNL     1       5.488   4.258  15.749  0.00  0.00    +0.000 S 
ATOM     24  C   UNL     1       5.995   4.264  14.108  0.00  0.00    +0.000 A 
BRANCH  24  25
ATOM     25  C   UNL     1       5.214   3.531  13.072  0.00  0.00    +0.000 C 
BRANCH  25  26
ATOM     26  O   UNL     1       6.075   2.567  12.483  0.00  0.00    +0.000 OA
ATOM     27  H   UNL     1       5.590   2.175  11.735  0.00  0.00    +0.000 HD
ENDBRANCH  25  26
ENDBRANCH  24  25
ENDBRANCH  18  22
BRANCH  18  28
ATOM     28  C   UNL     1       7.889   4.801  18.412  0.00  0.00    +0.000 C 
BRANCH  28  29
ATOM     29  N   UNL     1       8.373   5.299  19.713  0.00  0.00    +0.000 NA
ATOM     30  H   UNL     1       9.332   5.634  19.611  0.00  0.00    +0.000 HD
ATOM     31  H   UNL     1       8.440   4.509  20.357  0.00  0.00    +0.000 HD
ENDBRANCH  28  29
ENDBRANCH  18  28
ENDBRANCH   1  18
TORSDOF 8
ENDMDL
MODEL 8
REMARK VINA RESULT:      -6.9      1.485      1.795
REMARK  Name = 
REMARK  9 active torsions:
REMARK  status: ('A' for Active; 'I' for Inactive)
REMARK    1  A    between atoms: C_1  and  C_2
REMARK    2  A    between atoms: C_4  and  C_5
REMARK    3  A    between atoms: C_5  and  C_6
REMARK    4  A    between atoms: C_5  and  N_8
REMARK    5  A    between atoms: C_6  and  N_7
REMARK    6  A    between atoms: C_9  and  C_11
REMARK    7  A    between atoms: C_14  and  C_15
REMARK    8  A    between atoms: C_24  and  C_25
REMARK    9  A    between atoms: C_25  and  O_26
REMARK                            x       y       z     vdW  Elec       q    Type
REMARK                         _______ _______ _______ _____ _____    ______ ____
ROOT
ATOM      1  N   UNL     1       0.524  10.035  20.041  0.00  0.00    +0.000 N 
ATOM      2  C   UNL     1       1.105   9.229  20.992  0.00  0.00    +0.000 C 
ATOM      3  O   UNL     1       1.237   9.584  22.159  0.00  0.00    +0.000 OA
ATOM      4  H   UNL     1       0.382   9.693  19.099  0.00  0.00    +0.000 HD
ENDROOT
BRANCH   2   5
ATOM      5  C   UNL     1       1.559   7.932  20.527  0.00  0.00    +0.000 A 
ATOM      6  C   UNL     1       1.359   6.658  21.017  0.00  0.00    +0.000 A 
ATOM      7  C   UNL     1       2.032   5.752  20.164  0.00  0.00    +0.000 A 
ATOM      8  C   UNL     1       2.654   6.470  19.157  0.00  0.00    +0.000 A 
ATOM      9  N   UNL     1       2.354   7.799  19.402  0.00  0.00    +0.000 N 
ATOM     10  H   UNL     1       2.645   8.580  18.832  0.00  0.00    +0.000 HD
BRANCH   8  11
ATOM     11  C   UNL     1       3.473   6.000  18.036  0.00  0.00    +0.000 A 
ATOM     12  C   UNL     1       3.543   4.627  17.751  0.00  0.00    +0.000 A 
ATOM     13  C   UNL     1       4.367   4.140  16.730  0.00  0.00    +0.000 A 
ATOM     14  C   UNL     1       5.136   5.027  15.984  0.00  0.00    +0.000 A 
ATOM     15 CL   UNL     1       6.177   4.431  14.753  0.00  0.00    +0.000 Cl
ATOM     16  C   UNL     1       5.073   6.396  16.242  0.00  0.00    +0.000 A 
ATOM     17  C   UNL     1       4.243   6.880  17.262  0.00  0.00    +0.000 A 
ENDBRANCH   8  11
ENDBRANCH   2   5
BRANCH   1  18
ATOM     18  C   UNL     1      -0.023  11.355  20.354  0.00  0.00    +0.000 C 
BRANCH  18  22
ATOM     19  C   UNL     1      -4.785  12.509  19.552  0.00  0.00    +0.000 C 
ATOM     20  C   UNL     1      -3.444  12.009  19.140  0.00  0.00    +0.000 A 
ATOM     21  N   UNL     1      -2.403  12.107  20.055  0.00  0.00    +0.000 NA
ATOM     22  C   UNL     1      -1.314  11.534  19.577  0.00  0.00    +0.000 A 
ATOM     23  S   UNL     1      -1.458  10.938  17.968  0.00  0.00    +0.000 S 
ATOM     24  C   UNL     1      -3.104  11.423  17.931  0.00  0.00    +0.000 A 
BRANCH  24  25
ATOM     25  C   UNL     1      -3.939  11.180  16.720  0.00  0.00    +0.000 C 
BRANCH  25  26
ATOM     26  O   UNL     1      -3.148  11.487  15.581  0.00  0.00    +0.000 OA
ATOM     27  H   UNL     1      -2.651  12.297  15.793  0.00  0.00    +0.000 HD
ENDBRANCH  25  26
ENDBRANCH  24  25
ENDBRANCH  18  22
BRANCH  18  28
ATOM     28  C   UNL     1       0.966  12.516  20.032  0.00  0.00    +0.000 C 
BRANCH  28  29
ATOM     29  N   UNL     1       1.920  12.880  21.096  0.00  0.00    +0.000 NA
ATOM     30  H   UNL     1       1.420  13.351  21.852  0.00  0.00    +0.000 HD
ATOM     31  H   UNL     1       2.561  13.585  20.728  0.00  0.00    +0.000 HD
ENDBRANCH  28  29
ENDBRANCH  18  28
ENDBRANCH   1  18
TORSDOF 8
ENDMDL
MODEL 9
REMARK VINA RESULT:      -6.8      1.652      1.979
REMARK  Name = 
REMARK  9 active torsions:
REMARK  status: ('A' for Active; 'I' for Inactive)
REMARK    1  A    between atoms: C_1  and  C_2
REMARK    2  A    between atoms: C_4  and  C_5
REMARK    3  A    between atoms: C_5  and  C_6
REMARK    4  A    between atoms: C_5  and  N_8
REMARK    5  A    between atoms: C_6  and  N_7
REMARK    6  A    between atoms: C_9  and  C_11
REMARK    7  A    between atoms: C_14  and  C_15
REMARK    8  A    between atoms: C_24  and  C_25
REMARK    9  A    between atoms: C_25  and  O_26
REMARK                            x       y       z     vdW  Elec       q    Type
REMARK                         _______ _______ _______ _____ _____    ______ ____
ROOT
ATOM      1  N   UNL     1      -0.394  10.126  19.516  0.00  0.00    +0.000 N 
ATOM      2  C   UNL     1       0.585   9.833  20.438  0.00  0.00    +0.000 C 
ATOM      3  O   UNL     1       0.893  10.613  21.334  0.00  0.00    +0.000 OA
ATOM      4  H   UNL     1      -0.662   9.441  18.820  0.00  0.00    +0.000 HD
ENDROOT
BRANCH   2   5
ATOM      5  C   UNL     1       1.235   8.547  20.280  0.00  0.00    +0.000 A 
ATOM      6  C   UNL     1       1.307   7.445  21.107  0.00  0.00    +0.000 A 
ATOM      7  C   UNL     1       2.073   6.455  20.450  0.00  0.00    +0.000 A 
ATOM      8  C   UNL     1       2.481   6.951  19.224  0.00  0.00    +0.000 A 
ATOM      9  N   UNL     1       1.960   8.231  19.144  0.00  0.00    +0.000 N 
ATOM     10  H   UNL     1       2.062   8.857  18.358  0.00  0.00    +0.000 HD
BRANCH   8  11
ATOM     11  C   UNL     1       3.291   6.321  18.178  0.00  0.00    +0.000 A 
ATOM     12  C   UNL     1       3.266   4.926  18.020  0.00  0.00    +0.000 A 
ATOM     13  C   UNL     1       4.078   4.289  17.075  0.00  0.00    +0.000 A 
ATOM     14  C   UNL     1       4.930   5.046  16.277  0.00  0.00    +0.000 A 
ATOM     15 CL   UNL     1       5.956   4.264  15.141  0.00  0.00    +0.000 Cl
ATOM     16  C   UNL     1       4.962   6.433  16.408  0.00  0.00    +0.000 A 
ATOM     17  C   UNL     1       4.145   7.069  17.352  0.00  0.00    +0.000 A 
ENDBRANCH   8  11
ENDBRANCH   2   5
BRANCH   1  18
ATOM     18  C   UNL     1      -1.173  11.363  19.558  0.00  0.00    +0.000 C 
BRANCH  18  22
ATOM     19  C   UNL     1      -5.546  12.028  17.304  0.00  0.00    +0.000 C 
ATOM     20  C   UNL     1      -4.133  11.565  17.366  0.00  0.00    +0.000 A 
ATOM     21  N   UNL     1      -3.391  11.885  18.497  0.00  0.00    +0.000 NA
ATOM     22  C   UNL     1      -2.199  11.321  18.442  0.00  0.00    +0.000 A 
ATOM     23  S   UNL     1      -1.873  10.461  16.985  0.00  0.00    +0.000 S 
ATOM     24  C   UNL     1      -3.455  10.814  16.417  0.00  0.00    +0.000 A 
BRANCH  24  25
ATOM     25  C   UNL     1      -3.911  10.319  15.088  0.00  0.00    +0.000 C 
BRANCH  25  26
ATOM     26  O   UNL     1      -2.756  10.020  14.318  0.00  0.00    +0.000 OA
ATOM     27  H   UNL     1      -2.782   9.065  14.131  0.00  0.00    +0.000 HD
ENDBRANCH  25  26
ENDBRANCH  24  25
ENDBRANCH  18  22
BRANCH  18  28
ATOM     28  C   UNL     1      -0.292  12.642  19.434  0.00  0.00    +0.000 C 
BRANCH  28  29
ATOM     29  N   UNL     1      -0.833  13.734  18.601  0.00  0.00    +0.000 NA
ATOM     30  H   UNL     1      -1.511  14.269  19.145  0.00  0.00    +0.000 HD
ATOM     31  H   UNL     1      -1.375  13.321  17.840  0.00  0.00    +0.000 HD
ENDBRANCH  28  29
ENDBRANCH  18  28
ENDBRANCH   1  18
TORSDOF 8
ENDMDL
