MODEL 1
REMARK VINA RESULT:      -8.2      0.000      0.000
REMARK  Name = 
REMARK  6 active torsions:
REMARK  status: ('A' for Active; 'I' for Inactive)
REMARK    1  A    between atoms: C_1  and  C_2
REMARK    2  A    between atoms: C_2  and  C_3
REMARK    3  A    between atoms: C_2  and  C_4
REMARK    4  A    between atoms: C_7  and  C_8
REMARK    5  A    between atoms: C_14  and  O_15
REMARK    6  A    between atoms: C_14  and  C_16
REMARK                            x       y       z     vdW  Elec       q    Type
REMARK                         _______ _______ _______ _____ _____    ______ ____
ROOT
ATOM      1  C   UNL     1       3.460   6.146  17.978  0.00  0.00    +0.000 C 
ATOM      2  O   UNL     1       4.628   6.447  17.709  0.00  0.00    +0.000 OA
ATOM      3  N   UNL     1       2.989   4.836  17.781  0.00  0.00    +0.000 N 
ATOM      4  C   UNL     1       3.925   3.858  17.226  0.00  0.00    +0.000 C 
ATOM      5  C   UNL     1       3.896   2.554  18.017  0.00  0.00    +0.000 C 
ATOM      6  C   UNL     1       2.477   2.008  18.118  0.00  0.00    +0.000 C 
ATOM      7  C   UNL     1       1.485   3.034  18.700  0.00  0.00    +0.000 C 
ATOM      8  C   UNL     1       1.604   4.372  17.938  0.00  0.00    +0.000 C 
ENDROOT
BRANCH   1  12
ATOM      9  C   UNL     1       1.050   9.251  19.627  0.00  0.00    +0.000 A 
ATOM     10  C   UNL     1       1.402   9.275  18.279  0.00  0.00    +0.000 A 
ATOM     11  C   UNL     1       2.188   8.256  17.749  0.00  0.00    +0.000 A 
ATOM     12  C   UNL     1       2.618   7.228  18.585  0.00  0.00    +0.000 A 
ATOM     13  N   UNL     1       2.272   7.160  19.895  0.00  0.00    +0.000 NA
ATOM     14  C   UNL     1       1.515   8.172  20.381  0.00  0.00    +0.000 A 
BRANCH   9  16
ATOM     15  C   UNL     1      -1.014  10.656  19.334  0.00  0.00    +0.000 C 
ATOM     16  C   UNL     1       0.200  10.358  20.217  0.00  0.00    +0.000 C 
ATOM     17  C   UNL     1      -0.231  10.045  21.652  0.00  0.00    +0.000 C 
ENDBRANCH   9  16
ENDBRANCH   1  12
BRANCH   7  18
ATOM     18  C   UNL     1       1.710   3.282  20.223  0.00  0.00    +0.000 C 
ATOM     19  F   UNL     1       1.593   2.144  20.950  0.00  0.00    +0.000 F 
ATOM     20  F   UNL     1       2.929   3.801  20.503  0.00  0.00    +0.000 F 
ATOM     21  F   UNL     1       0.801   4.153  20.727  0.00  0.00    +0.000 F 
ENDBRANCH   7  18
BRANCH   7  22
ATOM     22  O   UNL     1       0.160   2.490  18.459  0.00  0.00    +0.000 OA
ATOM     23  H   UNL     1      -0.428   2.761  19.187  0.00  0.00    +0.000 HD
ENDBRANCH   7  22
TORSDOF 4
ENDMDL
MODEL 2
REMARK VINA RESULT:      -8.1      0.347      1.100
REMARK  Name = 
REMARK  6 active torsions:
REMARK  status: ('A' for Active; 'I' for Inactive)
REMARK    1  A    between atoms: C_1  and  C_2
REMARK    2  A    between atoms: C_2  and  C_3
REMARK    3  A    between atoms: C_2  and  C_4
REMARK    4  A    between atoms: C_7  and  C_8
REMARK    5  A    between atoms: C_14  and  O_15
REMARK    6  A    between atoms: C_14  and  C_16
REMARK                            x       y       z     vdW  Elec       q    Type
REMARK                         _______ _______ _______ _____ _____    ______ ____
ROOT
ATOM      1  C   UNL     1       3.487   6.134  17.991  0.00  0.00    +0.000 C 
ATOM      2  O   UNL     1       4.663   6.424  17.744  0.00  0.00    +0.000 OA
ATOM      3  N   UNL     1       3.008   4.828  17.793  0.00  0.00    +0.000 N 
ATOM      4  C   UNL     1       3.947   3.837  17.262  0.00  0.00    +0.000 C 
ATOM      5  C   UNL     1       3.891   2.539  18.060  0.00  0.00    +0.000 C 
ATOM      6  C   UNL     1       2.465   2.006  18.137  0.00  0.00    +0.000 C 
ATOM      7  C   UNL     1       1.472   3.044  18.693  0.00  0.00    +0.000 C 
ATOM      8  C   UNL     1       1.616   4.376  17.926  0.00  0.00    +0.000 C 
ENDROOT
BRANCH   1  12
ATOM      9  C   UNL     1       1.073   9.270  19.575  0.00  0.00    +0.000 A 
ATOM     10  C   UNL     1       1.449   9.281  18.233  0.00  0.00    +0.000 A 
ATOM     11  C   UNL     1       2.236   8.252  17.724  0.00  0.00    +0.000 A 
ATOM     12  C   UNL     1       2.643   7.227  18.576  0.00  0.00    +0.000 A 
ATOM     13  N   UNL     1       2.274   7.172  19.880  0.00  0.00    +0.000 NA
ATOM     14  C   UNL     1       1.516   8.193  20.345  0.00  0.00    +0.000 A 
BRANCH   9  16
ATOM     15  C   UNL     1       1.026  11.681  20.285  0.00  0.00    +0.000 C 
ATOM     16  C   UNL     1       0.221  10.387  20.142  0.00  0.00    +0.000 C 
ATOM     17  C   UNL     1      -1.044  10.619  19.314  0.00  0.00    +0.000 C 
ENDBRANCH   9  16
ENDBRANCH   1  12
BRANCH   7  18
ATOM     18  C   UNL     1       1.669   3.299  20.219  0.00  0.00    +0.000 C 
ATOM     19  F   UNL     1       2.901   3.789  20.501  0.00  0.00    +0.000 F 
ATOM     20  F   UNL     1       0.773   4.175  20.731  0.00  0.00    +0.000 F 
ATOM     21  F   UNL     1       1.538   2.156  20.937  0.00  0.00    +0.000 F 
ENDBRANCH   7  18
BRANCH   7  22
ATOM     22  O   UNL     1       0.146   2.510  18.429  0.00  0.00    +0.000 OA
ATOM     23  H   UNL     1      -0.188   2.086  19.239  0.00  0.00    +0.000 HD
ENDBRANCH   7  22
TORSDOF 4
ENDMDL
MODEL 3
REMARK VINA RESULT:      -8.0      0.590      1.024
REMARK  Name = 
REMARK  6 active torsions:
REMARK  status: ('A' for Active; 'I' for Inactive)
REMARK    1  A    between atoms: C_1  and  C_2
REMARK    2  A    between atoms: C_2  and  C_3
REMARK    3  A    between atoms: C_2  and  C_4
REMARK    4  A    between atoms: C_7  and  C_8
REMARK    5  A    between atoms: C_14  and  O_15
REMARK    6  A    between atoms: C_14  and  C_16
REMARK                            x       y       z     vdW  Elec       q    Type
REMARK                         _______ _______ _______ _____ _____    ______ ____
ROOT
ATOM      1  C   UNL     1       3.471   6.113  17.951  0.00  0.00    +0.000 C 
ATOM      2  O   UNL     1       4.642   6.408  17.686  0.00  0.00    +0.000 OA
ATOM      3  N   UNL     1       2.995   4.804  17.761  0.00  0.00    +0.000 N 
ATOM      4  C   UNL     1       3.930   3.818  17.218  0.00  0.00    +0.000 C 
ATOM      5  C   UNL     1       3.893   2.520  18.018  0.00  0.00    +0.000 C 
ATOM      6  C   UNL     1       2.471   1.980  18.116  0.00  0.00    +0.000 C 
ATOM      7  C   UNL     1       1.481   3.014  18.687  0.00  0.00    +0.000 C 
ATOM      8  C   UNL     1       1.608   4.346  17.916  0.00  0.00    +0.000 C 
ENDROOT
BRANCH   1  12
ATOM      9  C   UNL     1       1.095   9.175  19.724  0.00  0.00    +0.000 A 
ATOM     10  C   UNL     1       1.507   8.080  20.479  0.00  0.00    +0.000 A 
ATOM     11  C   UNL     1       2.285   7.085  19.892  0.00  0.00    +0.000 A 
ATOM     12  C   UNL     1       2.631   7.202  18.548  0.00  0.00    +0.000 A 
ATOM     13  N   UNL     1       2.268   8.267  17.791  0.00  0.00    +0.000 NA
ATOM     14  C   UNL     1       1.505   9.212  18.389  0.00  0.00    +0.000 A 
BRANCH   9  16
ATOM     15  C   UNL     1      -0.948  10.616  19.457  0.00  0.00    +0.000 C 
ATOM     16  C   UNL     1       0.243  10.262  20.349  0.00  0.00    +0.000 C 
ATOM     17  C   UNL     1      -0.221   9.885  21.757  0.00  0.00    +0.000 C 
ENDBRANCH   9  16
ENDBRANCH   1  12
BRANCH   7  18
ATOM     18  C   UNL     1       1.700   3.272  20.209  0.00  0.00    +0.000 C 
ATOM     19  F   UNL     1       1.576   2.139  20.942  0.00  0.00    +0.000 F 
ATOM     20  F   UNL     1       2.918   3.790  20.490  0.00  0.00    +0.000 F 
ATOM     21  F   UNL     1       0.790   4.148  20.703  0.00  0.00    +0.000 F 
ENDBRANCH   7  18
BRANCH   7  22
ATOM     22  O   UNL     1       0.154   2.474  18.443  0.00  0.00    +0.000 OA
ATOM     23  H   UNL     1       0.089   2.210  17.509  0.00  0.00    +0.000 HD
ENDBRANCH   7  22
TORSDOF 4
ENDMDL
MODEL 4
REMARK VINA RESULT:      -7.9      0.727      1.534
REMARK  Name = 
REMARK  6 active torsions:
REMARK  status: ('A' for Active; 'I' for Inactive)
REMARK    1  A    between atoms: C_1  and  C_2
REMARK    2  A    between atoms: C_2  and  C_3
REMARK    3  A    between atoms: C_2  and  C_4
REMARK    4  A    between atoms: C_7  and  C_8
REMARK    5  A    between atoms: C_14  and  O_15
REMARK    6  A    between atoms: C_14  and  C_16
REMARK                            x       y       z     vdW  Elec       q    Type
REMARK                         _______ _______ _______ _____ _____    ______ ____
ROOT
ATOM      1  C   UNL     1       3.394   6.192  17.953  0.00  0.00    +0.000 C 
ATOM      2  O   UNL     1       4.546   6.519  17.649  0.00  0.00    +0.000 OA
ATOM      3  N   UNL     1       2.933   4.882  17.732  0.00  0.00    +0.000 N 
ATOM      4  C   UNL     1       3.860   3.936  17.110  0.00  0.00    +0.000 C 
ATOM      5  C   UNL     1       3.881   2.607  17.858  0.00  0.00    +0.000 C 
ATOM      6  C   UNL     1       2.475   2.036  17.997  0.00  0.00    +0.000 C 
ATOM      7  C   UNL     1       1.493   3.028  18.651  0.00  0.00    +0.000 C 
ATOM      8  C   UNL     1       1.562   4.391  17.929  0.00  0.00    +0.000 C 
ENDROOT
BRANCH   1  12
ATOM      9  C   UNL     1       1.042   9.134  19.948  0.00  0.00    +0.000 A 
ATOM     10  C   UNL     1       1.480   8.002  20.632  0.00  0.00    +0.000 A 
ATOM     11  C   UNL     1       2.249   7.047  19.973  0.00  0.00    +0.000 A 
ATOM     12  C   UNL     1       2.561   7.240  18.629  0.00  0.00    +0.000 A 
ATOM     13  N   UNL     1       2.174   8.342  17.941  0.00  0.00    +0.000 NA
ATOM     14  C   UNL     1       1.419   9.246  18.608  0.00  0.00    +0.000 A 
BRANCH   9  16
ATOM     15  C   UNL     1      -0.080   9.778  22.103  0.00  0.00    +0.000 C 
ATOM     16  C   UNL     1       0.200  10.178  20.653  0.00  0.00    +0.000 C 
ATOM     17  C   UNL     1       0.834  11.568  20.582  0.00  0.00    +0.000 C 
ENDBRANCH   9  16
ENDBRANCH   1  12
BRANCH   7  18
ATOM     18  C   UNL     1       1.775   3.230  20.171  0.00  0.00    +0.000 C 
ATOM     19  F   UNL     1       3.015   3.726  20.400  0.00  0.00    +0.000 F 
ATOM     20  F   UNL     1       0.899   4.074  20.766  0.00  0.00    +0.000 F 
ATOM     21  F   UNL     1       1.699   2.060  20.853  0.00  0.00    +0.000 F 
ENDBRANCH   7  18
BRANCH   7  22
ATOM     22  O   UNL     1       0.166   2.472  18.444  0.00  0.00    +0.000 OA
ATOM     23  H   UNL     1      -0.333   2.533  19.278  0.00  0.00    +0.000 HD
ENDBRANCH   7  22
TORSDOF 4
ENDMDL
MODEL 5
REMARK VINA RESULT:      -7.6      3.461      6.272
REMARK  Name = 
REMARK  6 active torsions:
REMARK  status: ('A' for Active; 'I' for Inactive)
REMARK    1  A    between atoms: C_1  and  C_2
REMARK    2  A    between atoms: C_2  and  C_3
REMARK    3  A    between atoms: C_2  and  C_4
REMARK    4  A    between atoms: C_7  and  C_8
REMARK    5  A    between atoms: C_14  and  O_15
REMARK    6  A    between atoms: C_14  and  C_16
REMARK                            x       y       z     vdW  Elec       q    Type
REMARK                         _______ _______ _______ _____ _____    ______ ____
ROOT
ATOM      1  C   UNL     1       4.276   5.864  17.766  0.00  0.00    +0.000 C 
ATOM      2  O   UNL     1       3.660   6.933  17.688  0.00  0.00    +0.000 OA
ATOM      3  N   UNL     1       4.148   5.038  18.897  0.00  0.00    +0.000 N 
ATOM      4  C   UNL     1       3.280   5.504  19.979  0.00  0.00    +0.000 C 
ATOM      5  C   UNL     1       2.340   4.400  20.451  0.00  0.00    +0.000 C 
ATOM      6  C   UNL     1       3.118   3.145  20.829  0.00  0.00    +0.000 C 
ATOM      7  C   UNL     1       4.035   2.649  19.693  0.00  0.00    +0.000 C 
ATOM      8  C   UNL     1       4.909   3.812  19.175  0.00  0.00    +0.000 C 
ENDROOT
BRANCH   1  12
ATOM      9  C   UNL     1       6.531   4.717  14.336  0.00  0.00    +0.000 A 
ATOM     10  C   UNL     1       5.337   4.066  14.642  0.00  0.00    +0.000 A 
ATOM     11  C   UNL     1       4.607   4.449  15.763  0.00  0.00    +0.000 A 
ATOM     12  C   UNL     1       5.091   5.478  16.569  0.00  0.00    +0.000 A 
ATOM     13  N   UNL     1       6.235   6.148  16.285  0.00  0.00    +0.000 NA
ATOM     14  C   UNL     1       6.926   5.746  15.193  0.00  0.00    +0.000 A 
BRANCH   9  16
ATOM     15  C   UNL     1       6.483   3.516  12.127  0.00  0.00    +0.000 C 
ATOM     16  C   UNL     1       7.338   4.306  13.121  0.00  0.00    +0.000 C 
ATOM     17  C   UNL     1       7.999   5.506  12.440  0.00  0.00    +0.000 C 
ENDBRANCH   9  16
ENDBRANCH   1  12
BRANCH   7  18
ATOM     18  C   UNL     1       3.232   2.033  18.506  0.00  0.00    +0.000 C 
ATOM     19  F   UNL     1       2.752   2.982  17.666  0.00  0.00    +0.000 F 
ATOM     20  F   UNL     1       3.967   1.180  17.754  0.00  0.00    +0.000 F 
ATOM     21  F   UNL     1       2.158   1.329  18.942  0.00  0.00    +0.000 F 
ENDBRANCH   7  18
BRANCH   7  22
ATOM     22  O   UNL     1       4.910   1.655  20.291  0.00  0.00    +0.000 OA
ATOM     23  H   UNL     1       4.392   0.852  20.478  0.00  0.00    +0.000 HD
ENDBRANCH   7  22
TORSDOF 4
ENDMDL
MODEL 6
REMARK VINA RESULT:      -7.6      3.110      5.958
REMARK  Name = 
REMARK  6 active torsions:
REMARK  status: ('A' for Active; 'I' for Inactive)
REMARK    1  A    between atoms: C_1  and  C_2
REMARK    2  A    between atoms: C_2  and  C_3
REMARK    3  A    between atoms: C_2  and  C_4
REMARK    4  A    between atoms: C_7  and  C_8
REMARK    5  A    between atoms: C_14  and  O_15
REMARK    6  A    between atoms: C_14  and  C_16
REMARK                            x       y       z     vdW  Elec       q    Type
REMARK                         _______ _______ _______ _____ _____    ______ ____
ROOT
ATOM      1  C   UNL     1       3.608   5.896  17.940  0.00  0.00    +0.000 C 
ATOM      2  O   UNL     1       2.984   6.946  17.756  0.00  0.00    +0.000 OA
ATOM      3  N   UNL     1       3.459   5.167  19.133  0.00  0.00    +0.000 N 
ATOM      4  C   UNL     1       2.558   5.712  20.149  0.00  0.00    +0.000 C 
ATOM      5  C   UNL     1       1.616   4.640  20.688  0.00  0.00    +0.000 C 
ATOM      6  C   UNL     1       2.397   3.431  21.191  0.00  0.00    +0.000 C 
ATOM      7  C   UNL     1       3.348   2.853  20.126  0.00  0.00    +0.000 C 
ATOM      8  C   UNL     1       4.224   3.979  19.534  0.00  0.00    +0.000 C 
ENDROOT
BRANCH   1  12
ATOM      9  C   UNL     1       6.061   4.622  14.695  0.00  0.00    +0.000 A 
ATOM     10  C   UNL     1       5.932   5.978  14.989  0.00  0.00    +0.000 A 
ATOM     11  C   UNL     1       5.130   6.385  16.051  0.00  0.00    +0.000 A 
ATOM     12  C   UNL     1       4.460   5.420  16.801  0.00  0.00    +0.000 A 
ATOM     13  N   UNL     1       4.584   4.092  16.559  0.00  0.00    +0.000 NA
ATOM     14  C   UNL     1       5.364   3.731  15.512  0.00  0.00    +0.000 A 
BRANCH   9  16
ATOM     15  C   UNL     1       6.091   3.472  12.459  0.00  0.00    +0.000 C 
ATOM     16  C   UNL     1       6.926   4.167  13.537  0.00  0.00    +0.000 C 
ATOM     17  C   UNL     1       7.738   5.319  12.942  0.00  0.00    +0.000 C 
ENDBRANCH   9  16
ENDBRANCH   1  12
BRANCH   7  18
ATOM     18  C   UNL     1       2.585   2.129  18.975  0.00  0.00    +0.000 C 
ATOM     19  F   UNL     1       1.485   1.475  19.423  0.00  0.00    +0.000 F 
ATOM     20  F   UNL     1       2.169   2.972  18.001  0.00  0.00    +0.000 F 
ATOM     21  F   UNL     1       3.362   1.198  18.368  0.00  0.00    +0.000 F 
ENDBRANCH   7  18
BRANCH   7  22
ATOM     22  O   UNL     1       4.217   1.924  20.829  0.00  0.00    +0.000 OA
ATOM     23  H   UNL     1       4.473   2.318  21.682  0.00  0.00    +0.000 HD
ENDBRANCH   7  22
TORSDOF 4
ENDMDL
MODEL 7
REMARK VINA RESULT:      -7.5      2.837      5.869
REMARK  Name = 
REMARK  6 active torsions:
REMARK  status: ('A' for Active; 'I' for Inactive)
REMARK    1  A    between atoms: C_1  and  C_2
REMARK    2  A    between atoms: C_2  and  C_3
REMARK    3  A    between atoms: C_2  and  C_4
REMARK    4  A    between atoms: C_7  and  C_8
REMARK    5  A    between atoms: C_14  and  O_15
REMARK    6  A    between atoms: C_14  and  C_16
REMARK                            x       y       z     vdW  Elec       q    Type
REMARK                         _______ _______ _______ _____ _____    ______ ____
ROOT
ATOM      1  C   UNL     1       3.625   6.239  18.084  0.00  0.00    +0.000 C 
ATOM      2  O   UNL     1       3.336   7.439  18.039  0.00  0.00    +0.000 OA
ATOM      3  N   UNL     1       3.157   5.421  19.128  0.00  0.00    +0.000 N 
ATOM      4  C   UNL     1       2.337   6.052  20.163  0.00  0.00    +0.000 C 
ATOM      5  C   UNL     1       1.088   5.229  20.458  0.00  0.00    +0.000 C 
ATOM      6  C   UNL     1       1.450   3.789  20.800  0.00  0.00    +0.000 C 
ATOM      7  C   UNL     1       2.314   3.119  19.714  0.00  0.00    +0.000 C 
ATOM      8  C   UNL     1       3.521   4.019  19.372  0.00  0.00    +0.000 C 
ENDROOT
BRANCH   1  12
ATOM      9  C   UNL     1       5.879   4.646  14.835  0.00  0.00    +0.000 A 
ATOM     10  C   UNL     1       5.180   3.796  15.690  0.00  0.00    +0.000 A 
ATOM     11  C   UNL     1       4.446   4.325  16.747  0.00  0.00    +0.000 A 
ATOM     12  C   UNL     1       4.430   5.706  16.936  0.00  0.00    +0.000 A 
ATOM     13  N   UNL     1       5.077   6.563  16.108  0.00  0.00    +0.000 NA
ATOM     14  C   UNL     1       5.789   6.015  15.096  0.00  0.00    +0.000 A 
BRANCH   9  16
ATOM     15  C   UNL     1       5.779   3.450  12.626  0.00  0.00    +0.000 C 
ATOM     16  C   UNL     1       6.686   4.082  13.684  0.00  0.00    +0.000 C 
ATOM     17  C   UNL     1       7.603   5.135  13.058  0.00  0.00    +0.000 C 
ENDBRANCH   9  16
ENDBRANCH   1  12
BRANCH   7  18
ATOM     18  C   UNL     1       1.507   2.816  18.414  0.00  0.00    +0.000 C 
ATOM     19  F   UNL     1       0.322   2.213  18.677  0.00  0.00    +0.000 F 
ATOM     20  F   UNL     1       1.230   3.925  17.690  0.00  0.00    +0.000 F 
ATOM     21  F   UNL     1       2.186   1.981  17.588  0.00  0.00    +0.000 F 
ENDBRANCH   7  18
BRANCH   7  22
ATOM     22  O   UNL     1       2.817   1.890  20.304  0.00  0.00    +0.000 OA
ATOM     23  H   UNL     1       2.881   2.009  21.268  0.00  0.00    +0.000 HD
ENDBRANCH   7  22
TORSDOF 4
ENDMDL
MODEL 8
REMARK VINA RESULT:      -7.1      2.987      4.294
REMARK  Name = 
REMARK  6 active torsions:
REMARK  status: ('A' for Active; 'I' for Inactive)
REMARK    1  A    between atoms: C_1  and  C_2
REMARK    2  A    between atoms: C_2  and  C_3
REMARK    3  A    between atoms: C_2  and  C_4
REMARK    4  A    between atoms: C_7  and  C_8
REMARK    5  A    between atoms: C_14  and  O_15
REMARK    6  A    between atoms: C_14  and  C_16
REMARK                            x       y       z     vdW  Elec       q    Type
REMARK                         _______ _______ _______ _____ _____    ______ ____
ROOT
ATOM      1  C   UNL     1       3.039   4.945  18.019  0.00  0.00    +0.000 C 
ATOM      2  O   UNL     1       2.211   4.324  17.344  0.00  0.00    +0.000 OA
ATOM      3  N   UNL     1       4.411   4.650  17.930  0.00  0.00    +0.000 N 
ATOM      4  C   UNL     1       4.812   3.570  17.028  0.00  0.00    +0.000 C 
ATOM      5  C   UNL     1       5.986   3.988  16.149  0.00  0.00    +0.000 C 
ATOM      6  C   UNL     1       7.146   4.501  16.995  0.00  0.00    +0.000 C 
ATOM      7  C   UNL     1       6.730   5.638  17.947  0.00  0.00    +0.000 C 
ATOM      8  C   UNL     1       5.484   5.219  18.757  0.00  0.00    +0.000 C 
ENDROOT
BRANCH   1  12
ATOM      9  C   UNL     1       1.514   8.167  20.356  0.00  0.00    +0.000 A 
ATOM     10  C   UNL     1       1.908   8.380  19.037  0.00  0.00    +0.000 A 
ATOM     11  C   UNL     1       2.403   7.322  18.280  0.00  0.00    +0.000 A 
ATOM     12  C   UNL     1       2.504   6.061  18.865  0.00  0.00    +0.000 A 
ATOM     13  N   UNL     1       2.105   5.814  20.137  0.00  0.00    +0.000 NA
ATOM     14  C   UNL     1       1.637   6.866  20.848  0.00  0.00    +0.000 A 
BRANCH   9  16
ATOM     15  C   UNL     1       0.672  10.536  20.324  0.00  0.00    +0.000 C 
ATOM     16  C   UNL     1       0.978   9.312  21.191  0.00  0.00    +0.000 C 
ATOM     17  C   UNL     1      -0.248   8.900  22.008  0.00  0.00    +0.000 C 
ENDBRANCH   9  16
ENDBRANCH   1  12
BRANCH   7  18
ATOM     18  C   UNL     1       6.434   6.970  17.191  0.00  0.00    +0.000 C 
ATOM     19  F   UNL     1       6.022   6.755  15.918  0.00  0.00    +0.000 F 
ATOM     20  F   UNL     1       5.480   7.720  17.790  0.00  0.00    +0.000 F 
ATOM     21  F   UNL     1       7.538   7.753  17.109  0.00  0.00    +0.000 F 
ENDBRANCH   7  18
BRANCH   7  22
ATOM     22  O   UNL     1       7.837   5.809  18.874  0.00  0.00    +0.000 OA
ATOM     23  H   UNL     1       8.482   5.096  18.726  0.00  0.00    +0.000 HD
ENDBRANCH   7  22
TORSDOF 4
ENDMDL
