MODEL 1
REMARK VINA RESULT:      -7.2      0.000      0.000
REMARK  Name = 
REMARK  5 active torsions:
REMARK  status: ('A' for Active; 'I' for Inactive)
REMARK    1  A    between atoms: C_1  and  O_2
REMARK    2  A    between atoms: O_2  and  C_3
REMARK    3  A    between atoms: C_12  and  O_13
REMARK    4  A    between atoms: O_13  and  C_14
REMARK    5  A    between atoms: C_17  and  C_18
REMARK                            x       y       z     vdW  Elec       q    Type
REMARK                         _______ _______ _______ _____ _____    ______ ____
ROOT
ATOM      1  C   UNL     1       0.517   8.303  20.914  0.00  0.00    +0.000 A 
ATOM      2  C   UNL     1       0.801   6.984  21.314  0.00  0.00    +0.000 A 
ATOM      3  C   UNL     1       1.760   6.203  20.654  0.00  0.00    +0.000 A 
ATOM      4  C   UNL     1       2.061   4.894  21.050  0.00  0.00    +0.000 A 
ATOM      5  C   UNL     1       3.022   4.192  20.343  0.00  0.00    +0.000 A 
ATOM      6  N   UNL     1       3.693   4.690  19.284  0.00  0.00    +0.000 NA
ATOM      7  C   UNL     1       3.392   5.960  18.904  0.00  0.00    +0.000 A 
ATOM      8  C   UNL     1       2.436   6.750  19.560  0.00  0.00    +0.000 A 
ATOM      9  C   UNL     1       2.149   8.063  19.128  0.00  0.00    +0.000 A 
ATOM     10  C   UNL     1       1.184   8.851  19.799  0.00  0.00    +0.000 A 
ATOM     11  N   UNL     1       2.875   8.554  18.017  0.00  0.00    +0.000 N 
ATOM     12  C   UNL     1       3.803   7.771  17.372  0.00  0.00    +0.000 C 
ATOM     13  C   UNL     1       4.122   6.509  17.730  0.00  0.00    +0.000 C 
ATOM     14  H   UNL     1       2.648   9.484  17.686  0.00  0.00    +0.000 HD
ENDROOT
BRANCH  13  15
ATOM     15  C   UNL     1       5.135   5.784  16.943  0.00  0.00    +0.000 A 
ATOM     16  C   UNL     1       4.955   5.593  15.565  0.00  0.00    +0.000 A 
ATOM     17  C   UNL     1       5.912   4.906  14.813  0.00  0.00    +0.000 A 
ATOM     18  C   UNL     1       7.053   4.405  15.437  0.00  0.00    +0.000 A 
ATOM     19  C   UNL     1       7.223   4.588  16.805  0.00  0.00    +0.000 A 
ATOM     20  F   UNL     1       8.318   4.096  17.402  0.00  0.00    +0.000 F 
ATOM     21  C   UNL     1       6.279   5.271  17.564  0.00  0.00    +0.000 A 
ENDBRANCH  13  15
BRANCH   1  23
ATOM     22  C   UNL     1      -0.025   9.693  22.770  0.00  0.00    +0.000 C 
ATOM     23  O   UNL     1      -0.432   9.050  21.565  0.00  0.00    +0.000 OA
ENDBRANCH   1  23
BRANCH  10  24
ATOM     24  O   UNL     1       1.030  10.103  19.249  0.00  0.00    +0.000 OA
ATOM     25  C   UNL     1      -0.123  10.375  18.466  0.00  0.00    +0.000 C 
ENDBRANCH  10  24
TORSDOF 3
ENDMDL
MODEL 2
REMARK VINA RESULT:      -7.2      3.101      4.961
REMARK  Name = 
REMARK  5 active torsions:
REMARK  status: ('A' for Active; 'I' for Inactive)
REMARK    1  A    between atoms: C_1  and  O_2
REMARK    2  A    between atoms: O_2  and  C_3
REMARK    3  A    between atoms: C_12  and  O_13
REMARK    4  A    between atoms: O_13  and  C_14
REMARK    5  A    between atoms: C_17  and  C_18
REMARK                            x       y       z     vdW  Elec       q    Type
REMARK                         _______ _______ _______ _____ _____    ______ ____
ROOT
ATOM      1  C   UNL     1       2.914   4.550  20.144  0.00  0.00    +0.000 A 
ATOM      2  C   UNL     1       2.977   5.845  19.596  0.00  0.00    +0.000 A 
ATOM      3  C   UNL     1       3.596   6.096  18.365  0.00  0.00    +0.000 A 
ATOM      4  C   UNL     1       3.654   7.378  17.803  0.00  0.00    +0.000 A 
ATOM      5  C   UNL     1       4.284   7.538  16.581  0.00  0.00    +0.000 A 
ATOM      6  N   UNL     1       4.855   6.531  15.889  0.00  0.00    +0.000 NA
ATOM      7  C   UNL     1       4.798   5.291  16.443  0.00  0.00    +0.000 A 
ATOM      8  C   UNL     1       4.179   5.030  17.674  0.00  0.00    +0.000 A 
ATOM      9  C   UNL     1       4.147   3.727  18.218  0.00  0.00    +0.000 A 
ATOM     10  C   UNL     1       3.518   3.476  19.459  0.00  0.00    +0.000 A 
ATOM     11  N   UNL     1       4.752   2.695  17.463  0.00  0.00    +0.000 N 
ATOM     12  C   UNL     1       5.368   2.958  16.261  0.00  0.00    +0.000 C 
ATOM     13  C   UNL     1       5.437   4.179  15.689  0.00  0.00    +0.000 C 
ATOM     14  H   UNL     1       4.759   1.765  17.865  0.00  0.00    +0.000 HD
ENDROOT
BRANCH  13  15
ATOM     15  C   UNL     1       6.132   4.317  14.397  0.00  0.00    +0.000 A 
ATOM     16  C   UNL     1       5.675   3.617  13.271  0.00  0.00    +0.000 A 
ATOM     17  C   UNL     1       6.330   3.743  12.043  0.00  0.00    +0.000 A 
ATOM     18  C   UNL     1       7.449   4.568  11.936  0.00  0.00    +0.000 A 
ATOM     19  C   UNL     1       7.905   5.252  13.058  0.00  0.00    +0.000 A 
ATOM     20  F   UNL     1       8.987   6.037  12.953  0.00  0.00    +0.000 F 
ATOM     21  C   UNL     1       7.261   5.136  14.285  0.00  0.00    +0.000 A 
ENDBRANCH  13  15
BRANCH   1  23
ATOM     22  C   UNL     1       1.290   3.333  21.390  0.00  0.00    +0.000 C 
ATOM     23  O   UNL     1       2.314   4.325  21.357  0.00  0.00    +0.000 OA
ENDBRANCH   1  23
BRANCH  10  24
ATOM     24  O   UNL     1       3.579   2.154  19.840  0.00  0.00    +0.000 OA
ATOM     25  C   UNL     1       4.613   1.736  20.718  0.00  0.00    +0.000 C 
ENDBRANCH  10  24
TORSDOF 3
ENDMDL
MODEL 3
REMARK VINA RESULT:      -7.2      1.047      1.417
REMARK  Name = 
REMARK  5 active torsions:
REMARK  status: ('A' for Active; 'I' for Inactive)
REMARK    1  A    between atoms: C_1  and  O_2
REMARK    2  A    between atoms: O_2  and  C_3
REMARK    3  A    between atoms: C_12  and  O_13
REMARK    4  A    between atoms: O_13  and  C_14
REMARK    5  A    between atoms: C_17  and  C_18
REMARK                            x       y       z     vdW  Elec       q    Type
REMARK                         _______ _______ _______ _____ _____    ______ ____
ROOT
ATOM      1  C   UNL     1       0.707   8.106  20.918  0.00  0.00    +0.000 A 
ATOM      2  C   UNL     1       0.985   6.776  21.283  0.00  0.00    +0.000 A 
ATOM      3  C   UNL     1       1.908   5.994  20.577  0.00  0.00    +0.000 A 
ATOM      4  C   UNL     1       2.203   4.673  20.938  0.00  0.00    +0.000 A 
ATOM      5  C   UNL     1       3.128   3.971  20.185  0.00  0.00    +0.000 A 
ATOM      6  N   UNL     1       3.770   4.480  19.113  0.00  0.00    +0.000 NA
ATOM      7  C   UNL     1       3.474   5.760  18.766  0.00  0.00    +0.000 A 
ATOM      8  C   UNL     1       2.554   6.551  19.470  0.00  0.00    +0.000 A 
ATOM      9  C   UNL     1       2.272   7.876  19.072  0.00  0.00    +0.000 A 
ATOM     10  C   UNL     1       1.343   8.665  19.791  0.00  0.00    +0.000 A 
ATOM     11  N   UNL     1       2.966   8.377  17.946  0.00  0.00    +0.000 N 
ATOM     12  C   UNL     1       3.860   7.594  17.254  0.00  0.00    +0.000 C 
ATOM     13  C   UNL     1       4.171   6.321  17.578  0.00  0.00    +0.000 C 
ATOM     14  H   UNL     1       2.741   9.317  17.640  0.00  0.00    +0.000 HD
ENDROOT
BRANCH  13  15
ATOM     15  C   UNL     1       5.146   5.597  16.743  0.00  0.00    +0.000 A 
ATOM     16  C   UNL     1       6.466   5.426  17.186  0.00  0.00    +0.000 A 
ATOM     17  C   UNL     1       7.395   4.740  16.398  0.00  0.00    +0.000 A 
ATOM     18  C   UNL     1       7.009   4.224  15.163  0.00  0.00    +0.000 A 
ATOM     19  C   UNL     1       5.702   4.404  14.723  0.00  0.00    +0.000 A 
ATOM     20  F   UNL     1       5.338   3.914  13.529  0.00  0.00    +0.000 F 
ATOM     21  C   UNL     1       4.767   5.083  15.498  0.00  0.00    +0.000 A 
ENDBRANCH  13  15
BRANCH   1  23
ATOM     22  C   UNL     1       0.270   9.538  22.771  0.00  0.00    +0.000 C 
ATOM     23  O   UNL     1      -0.209   8.853  21.615  0.00  0.00    +0.000 OA
ENDBRANCH   1  23
BRANCH  10  24
ATOM     24  O   UNL     1       1.188   9.929  19.269  0.00  0.00    +0.000 OA
ATOM     25  C   UNL     1       0.011  10.233  18.535  0.00  0.00    +0.000 C 
ENDBRANCH  10  24
TORSDOF 3
ENDMDL
MODEL 4
REMARK VINA RESULT:      -6.9      2.583      4.402
REMARK  Name = 
REMARK  5 active torsions:
REMARK  status: ('A' for Active; 'I' for Inactive)
REMARK    1  A    between atoms: C_1  and  O_2
REMARK    2  A    between atoms: O_2  and  C_3
REMARK    3  A    between atoms: C_12  and  O_13
REMARK    4  A    between atoms: O_13  and  C_14
REMARK    5  A    between atoms: C_17  and  C_18
REMARK                            x       y       z     vdW  Elec       q    Type
REMARK                         _______ _______ _______ _____ _____    ______ ____
ROOT
ATOM      1  C   UNL     1      -1.890  12.198  20.238  0.00  0.00    +0.000 A 
ATOM      2  C   UNL     1      -1.381  11.636  21.424  0.00  0.00    +0.000 A 
ATOM      3  C   UNL     1      -0.409  10.628  21.405  0.00  0.00    +0.000 A 
ATOM      4  C   UNL     1       0.115  10.070  22.578  0.00  0.00    +0.000 A 
ATOM      5  C   UNL     1       1.073   9.077  22.469  0.00  0.00    +0.000 A 
ATOM      6  N   UNL     1       1.539   8.603  21.295  0.00  0.00    +0.000 NA
ATOM      7  C   UNL     1       1.022   9.147  20.162  0.00  0.00    +0.000 A 
ATOM      8  C   UNL     1       0.051  10.159  20.171  0.00  0.00    +0.000 A 
ATOM      9  C   UNL     1      -0.464  10.693  18.969  0.00  0.00    +0.000 A 
ATOM     10  C   UNL     1      -1.442  11.714  18.992  0.00  0.00    +0.000 A 
ATOM     11  N   UNL     1       0.051  10.175  17.757  0.00  0.00    +0.000 N 
ATOM     12  C   UNL     1       0.995   9.175  17.754  0.00  0.00    +0.000 C 
ATOM     13  C   UNL     1       1.525   8.620  18.865  0.00  0.00    +0.000 C 
ATOM     14  H   UNL     1      -0.340  10.533  16.894  0.00  0.00    +0.000 HD
ENDROOT
BRANCH  13  15
ATOM     15  C   UNL     1       2.528   7.552  18.713  0.00  0.00    +0.000 A 
ATOM     16  C   UNL     1       2.564   6.482  19.620  0.00  0.00    +0.000 A 
ATOM     17  C   UNL     1       3.514   5.465  19.480  0.00  0.00    +0.000 A 
ATOM     18  C   UNL     1       4.434   5.516  18.435  0.00  0.00    +0.000 A 
ATOM     19  C   UNL     1       4.402   6.583  17.544  0.00  0.00    +0.000 A 
ATOM     20  F   UNL     1       5.295   6.632  16.546  0.00  0.00    +0.000 F 
ATOM     21  C   UNL     1       3.461   7.600  17.671  0.00  0.00    +0.000 A 
ENDBRANCH  13  15
BRANCH   1  23
ATOM     22  C   UNL     1      -4.203  12.744  20.395  0.00  0.00    +0.000 C 
ATOM     23  O   UNL     1      -2.850  13.178  20.275  0.00  0.00    +0.000 OA
ENDBRANCH   1  23
BRANCH  10  24
ATOM     24  O   UNL     1      -1.832  12.118  17.735  0.00  0.00    +0.000 OA
ATOM     25  C   UNL     1      -2.935  11.474  17.115  0.00  0.00    +0.000 C 
ENDBRANCH  10  24
TORSDOF 3
ENDMDL
MODEL 5
REMARK VINA RESULT:      -6.8      2.722      4.430
REMARK  Name = 
REMARK  5 active torsions:
REMARK  status: ('A' for Active; 'I' for Inactive)
REMARK    1  A    between atoms: C_1  and  O_2
REMARK    2  A    between atoms: O_2  and  C_3
REMARK    3  A    between atoms: C_12  and  O_13
REMARK    4  A    between atoms: O_13  and  C_14
REMARK    5  A    between atoms: C_17  and  C_18
REMARK                            x       y       z     vdW  Elec       q    Type
REMARK                         _______ _______ _______ _____ _____    ______ ____
ROOT
ATOM      1  C   UNL     1      -2.014  12.143  20.298  0.00  0.00    +0.000 A 
ATOM      2  C   UNL     1      -1.465  11.604  21.476  0.00  0.00    +0.000 A 
ATOM      3  C   UNL     1      -0.471  10.617  21.443  0.00  0.00    +0.000 A 
ATOM      4  C   UNL     1       0.092  10.081  22.608  0.00  0.00    +0.000 A 
ATOM      5  C   UNL     1       1.070   9.108  22.485  0.00  0.00    +0.000 A 
ATOM      6  N   UNL     1       1.518   8.635  21.304  0.00  0.00    +0.000 NA
ATOM      7  C   UNL     1       0.963   9.156  20.179  0.00  0.00    +0.000 A 
ATOM      8  C   UNL     1      -0.030  10.147  20.202  0.00  0.00    +0.000 A 
ATOM      9  C   UNL     1      -0.585  10.658  19.009  0.00  0.00    +0.000 A 
ATOM     10  C   UNL     1      -1.585  11.658  19.046  0.00  0.00    +0.000 A 
ATOM     11  N   UNL     1      -0.088  10.141  17.790  0.00  0.00    +0.000 N 
ATOM     12  C   UNL     1       0.878   9.162  17.772  0.00  0.00    +0.000 C 
ATOM     13  C   UNL     1       1.446   8.629  18.875  0.00  0.00    +0.000 C 
ATOM     14  H   UNL     1      -0.507  10.483  16.933  0.00  0.00    +0.000 HD
ENDROOT
BRANCH  13  15
ATOM     15  C   UNL     1       2.469   7.582  18.708  0.00  0.00    +0.000 A 
ATOM     16  C   UNL     1       3.401   7.665  17.662  0.00  0.00    +0.000 A 
ATOM     17  C   UNL     1       4.374   6.675  17.498  0.00  0.00    +0.000 A 
ATOM     18  C   UNL     1       4.417   5.595  18.377  0.00  0.00    +0.000 A 
ATOM     19  C   UNL     1       3.486   5.510  19.406  0.00  0.00    +0.000 A 
ATOM     20  F   UNL     1       3.526   4.464  20.244  0.00  0.00    +0.000 F 
ATOM     21  C   UNL     1       2.514   6.490  19.582  0.00  0.00    +0.000 A 
ENDBRANCH  13  15
BRANCH   1  23
ATOM     22  C   UNL     1      -3.989  12.947  21.360  0.00  0.00    +0.000 C 
ATOM     23  O   UNL     1      -2.994  13.102  20.350  0.00  0.00    +0.000 OA
ENDBRANCH   1  23
BRANCH  10  24
ATOM     24  O   UNL     1      -2.013  12.042  17.795  0.00  0.00    +0.000 OA
ATOM     25  C   UNL     1      -3.182  11.444  17.253  0.00  0.00    +0.000 C 
ENDBRANCH  10  24
TORSDOF 3
ENDMDL
MODEL 6
REMARK VINA RESULT:      -6.8      3.603      7.035
REMARK  Name = 
REMARK  5 active torsions:
REMARK  status: ('A' for Active; 'I' for Inactive)
REMARK    1  A    between atoms: C_1  and  O_2
REMARK    2  A    between atoms: O_2  and  C_3
REMARK    3  A    between atoms: C_12  and  O_13
REMARK    4  A    between atoms: O_13  and  C_14
REMARK    5  A    between atoms: C_17  and  C_18
REMARK                            x       y       z     vdW  Elec       q    Type
REMARK                         _______ _______ _______ _____ _____    ______ ____
ROOT
ATOM      1  C   UNL     1       3.694   3.829  19.568  0.00  0.00    +0.000 A 
ATOM      2  C   UNL     1       4.100   4.603  18.465  0.00  0.00    +0.000 A 
ATOM      3  C   UNL     1       3.652   5.918  18.281  0.00  0.00    +0.000 A 
ATOM      4  C   UNL     1       4.058   6.703  17.195  0.00  0.00    +0.000 A 
ATOM      5  C   UNL     1       3.568   7.993  17.090  0.00  0.00    +0.000 A 
ATOM      6  N   UNL     1       2.713   8.549  17.972  0.00  0.00    +0.000 NA
ATOM      7  C   UNL     1       2.321   7.780  19.021  0.00  0.00    +0.000 A 
ATOM      8  C   UNL     1       2.766   6.463  19.215  0.00  0.00    +0.000 A 
ATOM      9  C   UNL     1       2.329   5.695  20.316  0.00  0.00    +0.000 A 
ATOM     10  C   UNL     1       2.786   4.370  20.501  0.00  0.00    +0.000 A 
ATOM     11  N   UNL     1       1.436   6.313  21.223  0.00  0.00    +0.000 N 
ATOM     12  C   UNL     1       0.994   7.600  21.023  0.00  0.00    +0.000 C 
ATOM     13  C   UNL     1       1.370   8.386  19.991  0.00  0.00    +0.000 C 
ATOM     14  H   UNL     1       1.095   5.753  21.996  0.00  0.00    +0.000 HD
ENDROOT
BRANCH  13  15
ATOM     15  C   UNL     1       0.813   9.747  19.899  0.00  0.00    +0.000 A 
ATOM     16  C   UNL     1       1.112  10.700  20.884  0.00  0.00    +0.000 A 
ATOM     17  C   UNL     1       0.588  11.993  20.802  0.00  0.00    +0.000 A 
ATOM     18  C   UNL     1      -0.242  12.338  19.737  0.00  0.00    +0.000 A 
ATOM     19  C   UNL     1      -0.545  11.387  18.768  0.00  0.00    +0.000 A 
ATOM     20  F   UNL     1      -1.351  11.721  17.750  0.00  0.00    +0.000 F 
ATOM     21  C   UNL     1      -0.027  10.098  18.837  0.00  0.00    +0.000 A 
ENDBRANCH  13  15
BRANCH   1  23
ATOM     22  C   UNL     1       3.682   1.586  18.766  0.00  0.00    +0.000 C 
ATOM     23  O   UNL     1       4.134   2.539  19.726  0.00  0.00    +0.000 OA
ENDBRANCH   1  23
BRANCH  10  24
ATOM     24  O   UNL     1       2.262   3.768  21.622  0.00  0.00    +0.000 OA
ATOM     25  C   UNL     1       1.314   2.721  21.464  0.00  0.00    +0.000 C 
ENDBRANCH  10  24
TORSDOF 3
ENDMDL
MODEL 7
REMARK VINA RESULT:      -6.7      3.595      6.958
REMARK  Name = 
REMARK  5 active torsions:
REMARK  status: ('A' for Active; 'I' for Inactive)
REMARK    1  A    between atoms: C_1  and  O_2
REMARK    2  A    between atoms: O_2  and  C_3
REMARK    3  A    between atoms: C_12  and  O_13
REMARK    4  A    between atoms: O_13  and  C_14
REMARK    5  A    between atoms: C_17  and  C_18
REMARK                            x       y       z     vdW  Elec       q    Type
REMARK                         _______ _______ _______ _____ _____    ______ ____
ROOT
ATOM      1  C   UNL     1       3.771   3.850  19.561  0.00  0.00    +0.000 A 
ATOM      2  C   UNL     1       4.176   4.623  18.457  0.00  0.00    +0.000 A 
ATOM      3  C   UNL     1       3.708   5.929  18.260  0.00  0.00    +0.000 A 
ATOM      4  C   UNL     1       4.114   6.713  17.173  0.00  0.00    +0.000 A 
ATOM      5  C   UNL     1       3.603   7.995  17.053  0.00  0.00    +0.000 A 
ATOM      6  N   UNL     1       2.728   8.542  17.922  0.00  0.00    +0.000 NA
ATOM      7  C   UNL     1       2.337   7.773  18.971  0.00  0.00    +0.000 A 
ATOM      8  C   UNL     1       2.802   6.465  19.179  0.00  0.00    +0.000 A 
ATOM      9  C   UNL     1       2.365   5.697  20.280  0.00  0.00    +0.000 A 
ATOM     10  C   UNL     1       2.842   4.381  20.479  0.00  0.00    +0.000 A 
ATOM     11  N   UNL     1       1.451   6.306  21.172  0.00  0.00    +0.000 N 
ATOM     12  C   UNL     1       0.990   7.584  20.958  0.00  0.00    +0.000 C 
ATOM     13  C   UNL     1       1.364   8.369  19.925  0.00  0.00    +0.000 C 
ATOM     14  H   UNL     1       1.111   5.745  21.945  0.00  0.00    +0.000 HD
ENDROOT
BRANCH  13  15
ATOM     15  C   UNL     1       0.786   9.719  19.818  0.00  0.00    +0.000 A 
ATOM     16  C   UNL     1      -0.036  10.051  18.731  0.00  0.00    +0.000 A 
ATOM     17  C   UNL     1      -0.588  11.331  18.623  0.00  0.00    +0.000 A 
ATOM     18  C   UNL     1      -0.318  12.286  19.600  0.00  0.00    +0.000 A 
ATOM     19  C   UNL     1       0.506  11.957  20.671  0.00  0.00    +0.000 A 
ATOM     20  F   UNL     1       0.772  12.882  21.605  0.00  0.00    +0.000 F 
ATOM     21  C   UNL     1       1.060  10.686  20.791  0.00  0.00    +0.000 A 
ENDBRANCH  13  15
BRANCH   1  23
ATOM     22  C   UNL     1       3.722   1.580  18.839  0.00  0.00    +0.000 C 
ATOM     23  O   UNL     1       4.231   2.568  19.732  0.00  0.00    +0.000 OA
ENDBRANCH   1  23
BRANCH  10  24
ATOM     24  O   UNL     1       2.315   3.777  21.598  0.00  0.00    +0.000 OA
ATOM     25  C   UNL     1       1.303   2.794  21.439  0.00  0.00    +0.000 C 
ENDBRANCH  10  24
TORSDOF 3
ENDMDL
MODEL 8
REMARK VINA RESULT:      -6.6      2.693      3.961
REMARK  Name = 
REMARK  5 active torsions:
REMARK  status: ('A' for Active; 'I' for Inactive)
REMARK    1  A    between atoms: C_1  and  O_2
REMARK    2  A    between atoms: O_2  and  C_3
REMARK    3  A    between atoms: C_12  and  O_13
REMARK    4  A    between atoms: O_13  and  C_14
REMARK    5  A    between atoms: C_17  and  C_18
REMARK                            x       y       z     vdW  Elec       q    Type
REMARK                         _______ _______ _______ _____ _____    ______ ____
ROOT
ATOM      1  C   UNL     1       0.141  12.476  20.503  0.00  0.00    +0.000 A 
ATOM      2  C   UNL     1      -0.014  11.448  21.452  0.00  0.00    +0.000 A 
ATOM      3  C   UNL     1       0.454  10.149  21.215  0.00  0.00    +0.000 A 
ATOM      4  C   UNL     1       0.317   9.120  22.156  0.00  0.00    +0.000 A 
ATOM      5  C   UNL     1       0.808   7.865  21.841  0.00  0.00    +0.000 A 
ATOM      6  N   UNL     1       1.414   7.562  20.675  0.00  0.00    +0.000 NA
ATOM      7  C   UNL     1       1.538   8.565  19.766  0.00  0.00    +0.000 A 
ATOM      8  C   UNL     1       1.076   9.869  19.995  0.00  0.00    +0.000 A 
ATOM      9  C   UNL     1       1.220  10.881  19.021  0.00  0.00    +0.000 A 
ATOM     10  C   UNL     1       0.751  12.192  19.264  0.00  0.00    +0.000 A 
ATOM     11  N   UNL     1       1.864  10.528  17.811  0.00  0.00    +0.000 N 
ATOM     12  C   UNL     1       2.306   9.245  17.587  0.00  0.00    +0.000 C 
ATOM     13  C   UNL     1       2.196   8.233  18.473  0.00  0.00    +0.000 C 
ATOM     14  H   UNL     1       1.940  11.244  17.098  0.00  0.00    +0.000 HD
ENDROOT
BRANCH  13  15
ATOM     15  C   UNL     1       2.711   6.905  18.098  0.00  0.00    +0.000 A 
ATOM     16  C   UNL     1       4.056   6.747  17.730  0.00  0.00    +0.000 A 
ATOM     17  C   UNL     1       4.552   5.490  17.373  0.00  0.00    +0.000 A 
ATOM     18  C   UNL     1       3.703   4.384  17.379  0.00  0.00    +0.000 A 
ATOM     19  C   UNL     1       2.368   4.546  17.734  0.00  0.00    +0.000 A 
ATOM     20  F   UNL     1       1.554   3.481  17.729  0.00  0.00    +0.000 F 
ATOM     21  C   UNL     1       1.864   5.791  18.093  0.00  0.00    +0.000 A 
ENDBRANCH  13  15
BRANCH   1  23
ATOM     22  C   UNL     1       0.144  14.386  21.927  0.00  0.00    +0.000 C 
ATOM     23  O   UNL     1      -0.333  13.740  20.748  0.00  0.00    +0.000 OA
ENDBRANCH   1  23
BRANCH  10  24
ATOM     24  O   UNL     1       0.973  13.051  18.212  0.00  0.00    +0.000 OA
ATOM     25  C   UNL     1       2.048  13.976  18.291  0.00  0.00    +0.000 C 
ENDBRANCH  10  24
TORSDOF 3
ENDMDL
MODEL 9
REMARK VINA RESULT:      -6.6      3.228      5.083
REMARK  Name = 
REMARK  5 active torsions:
REMARK  status: ('A' for Active; 'I' for Inactive)
REMARK    1  A    between atoms: C_1  and  O_2
REMARK    2  A    between atoms: O_2  and  C_3
REMARK    3  A    between atoms: C_12  and  O_13
REMARK    4  A    between atoms: O_13  and  C_14
REMARK    5  A    between atoms: C_17  and  C_18
REMARK                            x       y       z     vdW  Elec       q    Type
REMARK                         _______ _______ _______ _____ _____    ______ ____
ROOT
ATOM      1  C   UNL     1       2.872   4.567  20.208  0.00  0.00    +0.000 A 
ATOM      2  C   UNL     1       2.931   5.853  19.638  0.00  0.00    +0.000 A 
ATOM      3  C   UNL     1       3.548   6.085  18.402  0.00  0.00    +0.000 A 
ATOM      4  C   UNL     1       3.602   7.356  17.818  0.00  0.00    +0.000 A 
ATOM      5  C   UNL     1       4.231   7.497  16.593  0.00  0.00    +0.000 A 
ATOM      6  N   UNL     1       4.804   6.480  15.918  0.00  0.00    +0.000 NA
ATOM      7  C   UNL     1       4.751   5.250  16.493  0.00  0.00    +0.000 A 
ATOM      8  C   UNL     1       4.133   5.008  17.729  0.00  0.00    +0.000 A 
ATOM      9  C   UNL     1       4.105   3.715  18.295  0.00  0.00    +0.000 A 
ATOM     10  C   UNL     1       3.478   3.483  19.541  0.00  0.00    +0.000 A 
ATOM     11  N   UNL     1       4.713   2.671  17.557  0.00  0.00    +0.000 N 
ATOM     12  C   UNL     1       5.326   2.916  16.350  0.00  0.00    +0.000 C 
ATOM     13  C   UNL     1       5.391   4.127  15.757  0.00  0.00    +0.000 C 
ATOM     14  H   UNL     1       4.722   1.748  17.975  0.00  0.00    +0.000 HD
ENDROOT
BRANCH  13  15
ATOM     15  C   UNL     1       6.085   4.245  14.463  0.00  0.00    +0.000 A 
ATOM     16  C   UNL     1       7.149   5.146  14.311  0.00  0.00    +0.000 A 
ATOM     17  C   UNL     1       7.812   5.262  13.086  0.00  0.00    +0.000 A 
ATOM     18  C   UNL     1       7.411   4.480  12.005  0.00  0.00    +0.000 A 
ATOM     19  C   UNL     1       6.349   3.594  12.156  0.00  0.00    +0.000 A 
ATOM     20  F   UNL     1       5.960   2.850  11.111  0.00  0.00    +0.000 F 
ATOM     21  C   UNL     1       5.682   3.468  13.371  0.00  0.00    +0.000 A 
ENDBRANCH  13  15
BRANCH   1  23
ATOM     22  C   UNL     1       1.290   3.331  21.488  0.00  0.00    +0.000 C 
ATOM     23  O   UNL     1       2.273   4.361  21.425  0.00  0.00    +0.000 OA
ENDBRANCH   1  23
BRANCH  10  24
ATOM     24  O   UNL     1       3.543   2.168  19.944  0.00  0.00    +0.000 OA
ATOM     25  C   UNL     1       4.602   1.759  20.797  0.00  0.00    +0.000 C 
ENDBRANCH  10  24
TORSDOF 3
ENDMDL
