MODEL 1
REMARK VINA RESULT:      -7.4      0.000      0.000
REMARK  Name = 
REMARK  8 active torsions:
REMARK  status: ('A' for Active; 'I' for Inactive)
REMARK    1  A    between atoms: C_1  and  C_2
REMARK    2  A    between atoms: C_2  and  C_3
REMARK    3  A    between atoms: C_3  and  C_4
REMARK    4  A    between atoms: N_7  and  C_8
REMARK    5  A    between atoms: C_11  and  C_12
REMARK    6  A    between atoms: C_14  and  C_15
REMARK    7  A    between atoms: N_22  and  C_23
REMARK    8  A    between atoms: C_26  and  C_27
REMARK                            x       y       z     vdW  Elec       q    Type
REMARK                         _______ _______ _______ _____ _____    ______ ____
ROOT
ATOM      1  C   UNL     1       0.019  10.887  19.151  0.00  0.00    +0.000 C 
ATOM      2  C   UNL     1      -1.302  10.177  18.759  0.00  0.00    +0.000 C 
ATOM      3  C   UNL     1       1.107   9.878  18.726  0.00  0.00    +0.000 C 
ATOM      4  O   UNL     1       1.455   9.680  17.569  0.00  0.00    +0.000 OA
ATOM      5  N   UNL     1       1.425   9.120  19.835  0.00  0.00    +0.000 N 
ATOM      6  C   UNL     1       0.980   9.749  21.003  0.00  0.00    +0.000 C 
ATOM      7  S   UNL     1       1.307   9.214  22.565  0.00  0.00    +0.000 S 
ATOM      8  N   UNL     1       0.233  10.905  20.606  0.00  0.00    +0.000 N 
ENDROOT
BRANCH   8   9
ATOM      9  C   UNL     1      -0.369  11.871  21.480  0.00  0.00    +0.000 A 
ATOM     10  C   UNL     1       0.188  13.145  21.659  0.00  0.00    +0.000 A 
ATOM     11  C   UNL     1      -0.347  14.063  22.574  0.00  0.00    +0.000 A 
ATOM     12  C   UNL     1      -1.483  13.742  23.313  0.00  0.00    +0.000 A 
ATOM     13  C   UNL     1      -2.041  14.681  24.336  0.00  0.00    +0.000 C 
ATOM     14  C   UNL     1      -2.095  12.512  23.090  0.00  0.00    +0.000 A 
ATOM     15  C   UNL     1      -1.550  11.600  22.179  0.00  0.00    +0.000 A 
ENDBRANCH   8   9
BRANCH   5  16
ATOM     16  C   UNL     1       1.890   7.780  19.728  0.00  0.00    +0.000 A 
ATOM     17  C   UNL     1       1.420   6.813  20.621  0.00  0.00    +0.000 A 
ATOM     18  C   UNL     1       1.838   5.485  20.537  0.00  0.00    +0.000 A 
ATOM     19  C   UNL     1       2.749   5.087  19.553  0.00  0.00    +0.000 A 
ATOM     20  C   UNL     1       3.224   6.030  18.625  0.00  0.00    +0.000 A 
ATOM     21  C   UNL     1       2.762   7.374  18.709  0.00  0.00    +0.000 A 
BRANCH  20  22
ATOM     22  C   UNL     1       4.219   5.688  17.541  0.00  0.00    +0.000 C 
ATOM     23  F   UNL     1       3.886   4.624  16.764  0.00  0.00    +0.000 F 
ATOM     24  F   UNL     1       4.410   6.725  16.680  0.00  0.00    +0.000 F 
ATOM     25  F   UNL     1       5.447   5.398  18.052  0.00  0.00    +0.000 F 
ENDBRANCH  20  22
BRANCH  19  26
ATOM     26  C   UNL     1       3.143   3.705  19.549  0.00  0.00    +0.000 C 
ATOM     27  N   UNL     1       3.506   2.603  19.560  0.00  0.00    +0.000 NA
ENDBRANCH  19  26
ENDBRANCH   5  16
BRANCH   1  29
ATOM     28  C   UNL     1       1.539  12.865  18.450  0.00  0.00    +0.000 C 
ATOM     29  C   UNL     1       0.152  12.237  18.418  0.00  0.00    +0.000 C 
ENDBRANCH   1  29
TORSDOF 5
ENDMDL
MODEL 2
REMARK VINA RESULT:      -7.4      0.300      1.015
REMARK  Name = 
REMARK  8 active torsions:
REMARK  status: ('A' for Active; 'I' for Inactive)
REMARK    1  A    between atoms: C_1  and  C_2
REMARK    2  A    between atoms: C_2  and  C_3
REMARK    3  A    between atoms: C_3  and  C_4
REMARK    4  A    between atoms: N_7  and  C_8
REMARK    5  A    between atoms: C_11  and  C_12
REMARK    6  A    between atoms: C_14  and  C_15
REMARK    7  A    between atoms: N_22  and  C_23
REMARK    8  A    between atoms: C_26  and  C_27
REMARK                            x       y       z     vdW  Elec       q    Type
REMARK                         _______ _______ _______ _____ _____    ______ ____
ROOT
ATOM      1  C   UNL     1       0.131  10.848  19.189  0.00  0.00    +0.000 C 
ATOM      2  C   UNL     1      -1.204  10.175  18.779  0.00  0.00    +0.000 C 
ATOM      3  C   UNL     1       1.197   9.819  18.758  0.00  0.00    +0.000 C 
ATOM      4  O   UNL     1       1.548   9.627  17.601  0.00  0.00    +0.000 OA
ATOM      5  N   UNL     1       1.489   9.039  19.859  0.00  0.00    +0.000 N 
ATOM      6  C   UNL     1       1.051   9.663  21.032  0.00  0.00    +0.000 C 
ATOM      7  S   UNL     1       1.353   9.100  22.589  0.00  0.00    +0.000 S 
ATOM      8  N   UNL     1       0.335  10.842  20.645  0.00  0.00    +0.000 N 
ENDROOT
BRANCH   8   9
ATOM      9  C   UNL     1      -0.249  11.810  21.528  0.00  0.00    +0.000 A 
ATOM     10  C   UNL     1      -1.368  11.504  22.315  0.00  0.00    +0.000 A 
ATOM     11  C   UNL     1      -1.994  12.468  23.117  0.00  0.00    +0.000 A 
ATOM     12  C   UNL     1      -1.492  13.766  23.182  0.00  0.00    +0.000 A 
ATOM     13  C   UNL     1      -2.173  14.829  23.986  0.00  0.00    +0.000 C 
ATOM     14  C   UNL     1      -0.334  14.067  22.470  0.00  0.00    +0.000 A 
ATOM     15  C   UNL     1       0.280  13.098  21.667  0.00  0.00    +0.000 A 
ENDBRANCH   8   9
BRANCH   5  16
ATOM     16  C   UNL     1       1.922   7.689  19.737  0.00  0.00    +0.000 A 
ATOM     17  C   UNL     1       1.427   6.723  20.619  0.00  0.00    +0.000 A 
ATOM     18  C   UNL     1       1.814   5.387  20.520  0.00  0.00    +0.000 A 
ATOM     19  C   UNL     1       2.717   4.979  19.533  0.00  0.00    +0.000 A 
ATOM     20  C   UNL     1       3.215   5.921  18.617  0.00  0.00    +0.000 A 
ATOM     21  C   UNL     1       2.786   7.273  18.715  0.00  0.00    +0.000 A 
BRANCH  20  22
ATOM     22  C   UNL     1       4.204   5.567  17.530  0.00  0.00    +0.000 C 
ATOM     23  F   UNL     1       3.835   4.536  16.725  0.00  0.00    +0.000 F 
ATOM     24  F   UNL     1       4.441   6.617  16.697  0.00  0.00    +0.000 F 
ATOM     25  F   UNL     1       5.416   5.217  18.040  0.00  0.00    +0.000 F 
ENDBRANCH  20  22
BRANCH  19  26
ATOM     26  C   UNL     1       3.078   3.587  19.514  0.00  0.00    +0.000 C 
ATOM     27  N   UNL     1       3.322   2.453  19.507  0.00  0.00    +0.000 NA
ENDBRANCH  19  26
ENDBRANCH   5  16
BRANCH   1  29
ATOM     28  C   UNL     1      -0.991  12.943  18.157  0.00  0.00    +0.000 C 
ATOM     29  C   UNL     1       0.302  12.203  18.474  0.00  0.00    +0.000 C 
ENDBRANCH   1  29
TORSDOF 5
ENDMDL
MODEL 3
REMARK VINA RESULT:      -7.0      2.037      2.713
REMARK  Name = 
REMARK  8 active torsions:
REMARK  status: ('A' for Active; 'I' for Inactive)
REMARK    1  A    between atoms: C_1  and  C_2
REMARK    2  A    between atoms: C_2  and  C_3
REMARK    3  A    between atoms: C_3  and  C_4
REMARK    4  A    between atoms: N_7  and  C_8
REMARK    5  A    between atoms: C_11  and  C_12
REMARK    6  A    between atoms: C_14  and  C_15
REMARK    7  A    between atoms: N_22  and  C_23
REMARK    8  A    between atoms: C_26  and  C_27
REMARK                            x       y       z     vdW  Elec       q    Type
REMARK                         _______ _______ _______ _____ _____    ______ ____
ROOT
ATOM      1  C   UNL     1      -0.050  12.246  19.533  0.00  0.00    +0.000 C 
ATOM      2  C   UNL     1      -0.867  12.078  18.227  0.00  0.00    +0.000 C 
ATOM      3  C   UNL     1       1.231  11.429  19.261  0.00  0.00    +0.000 C 
ATOM      4  O   UNL     1       2.147  11.798  18.537  0.00  0.00    +0.000 OA
ATOM      5  N   UNL     1       1.038  10.168  19.786  0.00  0.00    +0.000 N 
ATOM      6  C   UNL     1      -0.027  10.172  20.694  0.00  0.00    +0.000 C 
ATOM      7  S   UNL     1      -0.477   8.863  21.651  0.00  0.00    +0.000 S 
ATOM      8  N   UNL     1      -0.618  11.477  20.650  0.00  0.00    +0.000 N 
ENDROOT
BRANCH   8   9
ATOM      9  C   UNL     1      -1.712  11.942  21.453  0.00  0.00    +0.000 A 
ATOM     10  C   UNL     1      -1.640  11.955  22.853  0.00  0.00    +0.000 A 
ATOM     11  C   UNL     1      -2.733  12.330  23.646  0.00  0.00    +0.000 A 
ATOM     12  C   UNL     1      -3.926  12.739  23.055  0.00  0.00    +0.000 A 
ATOM     13  C   UNL     1      -5.127  13.090  23.877  0.00  0.00    +0.000 C 
ATOM     14  C   UNL     1      -3.990  12.808  21.666  0.00  0.00    +0.000 A 
ATOM     15  C   UNL     1      -2.894  12.426  20.883  0.00  0.00    +0.000 A 
ENDBRANCH   8   9
BRANCH   5  16
ATOM     16  C   UNL     1       1.674   9.016  19.244  0.00  0.00    +0.000 A 
ATOM     17  C   UNL     1       2.289   9.092  17.991  0.00  0.00    +0.000 A 
ATOM     18  C   UNL     1       2.939   7.990  17.436  0.00  0.00    +0.000 A 
ATOM     19  C   UNL     1       2.987   6.772  18.122  0.00  0.00    +0.000 A 
ATOM     20  C   UNL     1       2.398   6.669  19.393  0.00  0.00    +0.000 A 
ATOM     21  C   UNL     1       1.766   7.812  19.957  0.00  0.00    +0.000 A 
BRANCH  20  22
ATOM     22  C   UNL     1       2.392   5.388  20.195  0.00  0.00    +0.000 C 
ATOM     23  F   UNL     1       3.608   4.807  20.369  0.00  0.00    +0.000 F 
ATOM     24  F   UNL     1       1.892   5.574  21.447  0.00  0.00    +0.000 F 
ATOM     25  F   UNL     1       1.610   4.433  19.621  0.00  0.00    +0.000 F 
ENDBRANCH  20  22
BRANCH  19  26
ATOM     26  C   UNL     1       3.659   5.682  17.469  0.00  0.00    +0.000 C 
ATOM     27  N   UNL     1       4.209   4.782  16.985  0.00  0.00    +0.000 NA
ENDBRANCH  19  26
ENDBRANCH   5  16
BRANCH   1  29
ATOM     28  C   UNL     1      -0.151  14.693  18.689  0.00  0.00    +0.000 C 
ATOM     29  C   UNL     1       0.249  13.734  19.803  0.00  0.00    +0.000 C 
ENDBRANCH   1  29
TORSDOF 5
ENDMDL
MODEL 4
REMARK VINA RESULT:      -7.0      1.668      2.345
REMARK  Name = 
REMARK  8 active torsions:
REMARK  status: ('A' for Active; 'I' for Inactive)
REMARK    1  A    between atoms: C_1  and  C_2
REMARK    2  A    between atoms: C_2  and  C_3
REMARK    3  A    between atoms: C_3  and  C_4
REMARK    4  A    between atoms: N_7  and  C_8
REMARK    5  A    between atoms: C_11  and  C_12
REMARK    6  A    between atoms: C_14  and  C_15
REMARK    7  A    between atoms: N_22  and  C_23
REMARK    8  A    between atoms: C_26  and  C_27
REMARK                            x       y       z     vdW  Elec       q    Type
REMARK                         _______ _______ _______ _____ _____    ______ ____
ROOT
ATOM      1  C   UNL     1       0.114  11.082  19.018  0.00  0.00    +0.000 C 
ATOM      2  C   UNL     1      -1.169  10.397  18.483  0.00  0.00    +0.000 C 
ATOM      3  C   UNL     1       1.247  10.175  18.495  0.00  0.00    +0.000 C 
ATOM      4  O   UNL     1       1.638  10.153  17.334  0.00  0.00    +0.000 OA
ATOM      5  N   UNL     1       1.555   9.276  19.496  0.00  0.00    +0.000 N 
ATOM      6  C   UNL     1       1.053   9.720  20.725  0.00  0.00    +0.000 C 
ATOM      7  S   UNL     1       1.348   8.979  22.206  0.00  0.00    +0.000 S 
ATOM      8  N   UNL     1       0.281  10.900  20.468  0.00  0.00    +0.000 N 
ENDROOT
BRANCH   8   9
ATOM      9  C   UNL     1      -0.379  11.714  21.447  0.00  0.00    +0.000 A 
ATOM     10  C   UNL     1      -1.499  11.251  22.150  0.00  0.00    +0.000 A 
ATOM     11  C   UNL     1      -2.199  12.069  23.048  0.00  0.00    +0.000 A 
ATOM     12  C   UNL     1      -1.772  13.372  23.295  0.00  0.00    +0.000 A 
ATOM     13  C   UNL     1      -2.532  14.285  24.205  0.00  0.00    +0.000 C 
ATOM     14  C   UNL     1      -0.614  13.822  22.666  0.00  0.00    +0.000 A 
ATOM     15  C   UNL     1       0.074  12.999  21.767  0.00  0.00    +0.000 A 
ENDBRANCH   8   9
BRANCH   5  16
ATOM     16  C   UNL     1       2.067   7.979  19.218  0.00  0.00    +0.000 A 
ATOM     17  C   UNL     1       3.001   7.810  18.191  0.00  0.00    +0.000 A 
ATOM     18  C   UNL     1       3.539   6.556  17.901  0.00  0.00    +0.000 A 
ATOM     19  C   UNL     1       3.151   5.428  18.632  0.00  0.00    +0.000 A 
ATOM     20  C   UNL     1       2.231   5.568  19.685  0.00  0.00    +0.000 A 
ATOM     21  C   UNL     1       1.716   6.859  19.986  0.00  0.00    +0.000 A 
BRANCH  20  22
ATOM     22  C   UNL     1       1.748   4.400  20.515  0.00  0.00    +0.000 C 
ATOM     23  F   UNL     1       1.966   3.174  19.971  0.00  0.00    +0.000 F 
ATOM     24  F   UNL     1       2.340   4.369  21.740  0.00  0.00    +0.000 F 
ATOM     25  F   UNL     1       0.409   4.464  20.750  0.00  0.00    +0.000 F 
ENDBRANCH  20  22
BRANCH  19  26
ATOM     26  C   UNL     1       3.738   4.172  18.254  0.00  0.00    +0.000 C 
ATOM     27  N   UNL     1       4.206   3.142  17.995  0.00  0.00    +0.000 NA
ENDBRANCH  19  26
ENDBRANCH   5  16
BRANCH   1  29
ATOM     28  C   UNL     1       1.618  13.139  18.549  0.00  0.00    +0.000 C 
ATOM     29  C   UNL     1       0.225  12.525  18.487  0.00  0.00    +0.000 C 
ENDBRANCH   1  29
TORSDOF 5
ENDMDL
MODEL 5
REMARK VINA RESULT:      -6.9      2.008      2.620
REMARK  Name = 
REMARK  8 active torsions:
REMARK  status: ('A' for Active; 'I' for Inactive)
REMARK    1  A    between atoms: C_1  and  C_2
REMARK    2  A    between atoms: C_2  and  C_3
REMARK    3  A    between atoms: C_3  and  C_4
REMARK    4  A    between atoms: N_7  and  C_8
REMARK    5  A    between atoms: C_11  and  C_12
REMARK    6  A    between atoms: C_14  and  C_15
REMARK    7  A    between atoms: N_22  and  C_23
REMARK    8  A    between atoms: C_26  and  C_27
REMARK                            x       y       z     vdW  Elec       q    Type
REMARK                         _______ _______ _______ _____ _____    ______ ____
ROOT
ATOM      1  C   UNL     1       0.019  12.178  19.483  0.00  0.00    +0.000 C 
ATOM      2  C   UNL     1      -0.804  12.011  18.181  0.00  0.00    +0.000 C 
ATOM      3  C   UNL     1       1.286  11.340  19.215  0.00  0.00    +0.000 C 
ATOM      4  O   UNL     1       2.206  11.688  18.486  0.00  0.00    +0.000 OA
ATOM      5  N   UNL     1       1.075  10.086  19.751  0.00  0.00    +0.000 N 
ATOM      6  C   UNL     1       0.013  10.115  20.662  0.00  0.00    +0.000 C 
ATOM      7  S   UNL     1      -0.455   8.821  21.632  0.00  0.00    +0.000 S 
ATOM      8  N   UNL     1      -0.558  11.428  20.608  0.00  0.00    +0.000 N 
ENDROOT
BRANCH   8   9
ATOM      9  C   UNL     1      -1.642  11.916  21.410  0.00  0.00    +0.000 A 
ATOM     10  C   UNL     1      -2.851  12.331  20.835  0.00  0.00    +0.000 A 
ATOM     11  C   UNL     1      -3.883  12.887  21.603  0.00  0.00    +0.000 A 
ATOM     12  C   UNL     1      -3.747  13.011  22.984  0.00  0.00    +0.000 A 
ATOM     13  C   UNL     1      -4.810  13.651  23.820  0.00  0.00    +0.000 C 
ATOM     14  C   UNL     1      -2.586  12.531  23.582  0.00  0.00    +0.000 A 
ATOM     15  C   UNL     1      -1.558  11.983  22.806  0.00  0.00    +0.000 A 
ENDBRANCH   8   9
BRANCH   5  16
ATOM     16  C   UNL     1       1.692   8.920  19.219  0.00  0.00    +0.000 A 
ATOM     17  C   UNL     1       2.282   8.968  17.952  0.00  0.00    +0.000 A 
ATOM     18  C   UNL     1       2.913   7.852  17.403  0.00  0.00    +0.000 A 
ATOM     19  C   UNL     1       2.966   6.646  18.111  0.00  0.00    +0.000 A 
ATOM     20  C   UNL     1       2.402   6.570  19.396  0.00  0.00    +0.000 A 
ATOM     21  C   UNL     1       1.790   7.728  19.951  0.00  0.00    +0.000 A 
BRANCH  20  22
ATOM     22  C   UNL     1       2.404   5.304  20.221  0.00  0.00    +0.000 C 
ATOM     23  F   UNL     1       1.673   4.279  19.710  0.00  0.00    +0.000 F 
ATOM     24  F   UNL     1       3.660   4.810  20.391  0.00  0.00    +0.000 F 
ATOM     25  F   UNL     1       1.915   5.513  21.473  0.00  0.00    +0.000 F 
ENDBRANCH  20  22
BRANCH  19  26
ATOM     26  C   UNL     1       3.616   5.539  17.464  0.00  0.00    +0.000 C 
ATOM     27  N   UNL     1       4.125   4.616  16.978  0.00  0.00    +0.000 NA
ENDBRANCH  19  26
ENDBRANCH   5  16
BRANCH   1  29
ATOM     28  C   UNL     1      -0.294  14.648  18.767  0.00  0.00    +0.000 C 
ATOM     29  C   UNL     1       0.342  13.664  19.739  0.00  0.00    +0.000 C 
ENDBRANCH   1  29
TORSDOF 5
ENDMDL
MODEL 6
REMARK VINA RESULT:      -6.9      3.408      8.787
REMARK  Name = 
REMARK  8 active torsions:
REMARK  status: ('A' for Active; 'I' for Inactive)
REMARK    1  A    between atoms: C_1  and  C_2
REMARK    2  A    between atoms: C_2  and  C_3
REMARK    3  A    between atoms: C_3  and  C_4
REMARK    4  A    between atoms: N_7  and  C_8
REMARK    5  A    between atoms: C_11  and  C_12
REMARK    6  A    between atoms: C_14  and  C_15
REMARK    7  A    between atoms: N_22  and  C_23
REMARK    8  A    between atoms: C_26  and  C_27
REMARK                            x       y       z     vdW  Elec       q    Type
REMARK                         _______ _______ _______ _____ _____    ______ ____
ROOT
ATOM      1  C   UNL     1       3.243   4.408  18.539  0.00  0.00    +0.000 C 
ATOM      2  C   UNL     1       1.909   4.006  17.858  0.00  0.00    +0.000 C 
ATOM      3  C   UNL     1       2.788   5.286  19.723  0.00  0.00    +0.000 C 
ATOM      4  O   UNL     1       2.291   4.854  20.755  0.00  0.00    +0.000 OA
ATOM      5  N   UNL     1       2.840   6.601  19.309  0.00  0.00    +0.000 N 
ATOM      6  C   UNL     1       3.628   6.722  18.159  0.00  0.00    +0.000 C 
ATOM      7  S   UNL     1       4.054   8.181  17.437  0.00  0.00    +0.000 S 
ATOM      8  N   UNL     1       3.994   5.398  17.753  0.00  0.00    +0.000 N 
ENDROOT
BRANCH   8   9
ATOM      9  C   UNL     1       4.839   5.051  16.646  0.00  0.00    +0.000 A 
ATOM     10  C   UNL     1       6.203   5.372  16.637  0.00  0.00    +0.000 A 
ATOM     11  C   UNL     1       7.016   5.110  15.525  0.00  0.00    +0.000 A 
ATOM     12  C   UNL     1       6.490   4.484  14.398  0.00  0.00    +0.000 A 
ATOM     13  C   UNL     1       7.322   4.243  13.177  0.00  0.00    +0.000 C 
ATOM     14  C   UNL     1       5.156   4.086  14.421  0.00  0.00    +0.000 A 
ATOM     15  C   UNL     1       4.351   4.357  15.533  0.00  0.00    +0.000 A 
ENDBRANCH   8   9
BRANCH   5  16
ATOM     16  C   UNL     1       1.980   7.599  19.846  0.00  0.00    +0.000 A 
ATOM     17  C   UNL     1       1.903   7.772  21.231  0.00  0.00    +0.000 A 
ATOM     18  C   UNL     1       1.085   8.752  21.794  0.00  0.00    +0.000 A 
ATOM     19  C   UNL     1       0.312   9.587  20.981  0.00  0.00    +0.000 A 
ATOM     20  C   UNL     1       0.383   9.453  19.583  0.00  0.00    +0.000 A 
ATOM     21  C   UNL     1       1.246   8.468  19.027  0.00  0.00    +0.000 A 
BRANCH  20  22
ATOM     22  C   UNL     1      -0.429  10.304  18.634  0.00  0.00    +0.000 C 
ATOM     23  F   UNL     1      -1.741  10.445  18.960  0.00  0.00    +0.000 F 
ATOM     24  F   UNL     1       0.063  11.569  18.538  0.00  0.00    +0.000 F 
ATOM     25  F   UNL     1      -0.419   9.804  17.368  0.00  0.00    +0.000 F 
ENDBRANCH  20  22
BRANCH  19  26
ATOM     26  C   UNL     1      -0.518  10.555  21.643  0.00  0.00    +0.000 C 
ATOM     27  N   UNL     1      -1.152  11.370  22.174  0.00  0.00    +0.000 NA
ENDBRANCH  19  26
ENDBRANCH   5  16
BRANCH   1  29
ATOM     28  C   UNL     1       3.528   1.835  18.426  0.00  0.00    +0.000 C 
ATOM     29  C   UNL     1       4.020   3.159  18.998  0.00  0.00    +0.000 C 
ENDBRANCH   1  29
TORSDOF 5
ENDMDL
MODEL 7
REMARK VINA RESULT:      -6.8      1.864      2.367
REMARK  Name = 
REMARK  8 active torsions:
REMARK  status: ('A' for Active; 'I' for Inactive)
REMARK    1  A    between atoms: C_1  and  C_2
REMARK    2  A    between atoms: C_2  and  C_3
REMARK    3  A    between atoms: C_3  and  C_4
REMARK    4  A    between atoms: N_7  and  C_8
REMARK    5  A    between atoms: C_11  and  C_12
REMARK    6  A    between atoms: C_14  and  C_15
REMARK    7  A    between atoms: N_22  and  C_23
REMARK    8  A    between atoms: C_26  and  C_27
REMARK                            x       y       z     vdW  Elec       q    Type
REMARK                         _______ _______ _______ _____ _____    ______ ____
ROOT
ATOM      1  C   UNL     1       0.202  11.029  18.771  0.00  0.00    +0.000 C 
ATOM      2  C   UNL     1      -0.898  10.457  17.841  0.00  0.00    +0.000 C 
ATOM      3  C   UNL     1       1.449  10.200  18.402  0.00  0.00    +0.000 C 
ATOM      4  O   UNL     1       2.109  10.355  17.382  0.00  0.00    +0.000 OA
ATOM      5  N   UNL     1       1.528   9.150  19.294  0.00  0.00    +0.000 N 
ATOM      6  C   UNL     1       0.733   9.402  20.419  0.00  0.00    +0.000 C 
ATOM      7  S   UNL     1       0.680   8.431  21.792  0.00  0.00    +0.000 S 
ATOM      8  N   UNL     1       0.018  10.618  20.170  0.00  0.00    +0.000 N 
ENDROOT
BRANCH   8   9
ATOM      9  C   UNL     1      -0.878  11.277  21.076  0.00  0.00    +0.000 A 
ATOM     10  C   UNL     1      -0.693  11.217  22.464  0.00  0.00    +0.000 A 
ATOM     11  C   UNL     1      -1.611  11.788  23.357  0.00  0.00    +0.000 A 
ATOM     12  C   UNL     1      -2.728  12.470  22.881  0.00  0.00    +0.000 A 
ATOM     13  C   UNL     1      -3.751  13.040  23.813  0.00  0.00    +0.000 C 
ATOM     14  C   UNL     1      -2.885  12.608  21.505  0.00  0.00    +0.000 A 
ATOM     15  C   UNL     1      -1.967  12.030  20.622  0.00  0.00    +0.000 A 
ENDBRANCH   8   9
BRANCH   5  16
ATOM     16  C   UNL     1       2.123   7.905  18.949  0.00  0.00    +0.000 A 
ATOM     17  C   UNL     1       3.106   7.861  17.955  0.00  0.00    +0.000 A 
ATOM     18  C   UNL     1       3.725   6.662  17.602  0.00  0.00    +0.000 A 
ATOM     19  C   UNL     1       3.371   5.465  18.233  0.00  0.00    +0.000 A 
ATOM     20  C   UNL     1       2.402   5.478  19.251  0.00  0.00    +0.000 A 
ATOM     21  C   UNL     1       1.804   6.715  19.619  0.00  0.00    +0.000 A 
BRANCH  20  22
ATOM     22  C   UNL     1       1.952   4.230  19.973  0.00  0.00    +0.000 C 
ATOM     23  F   UNL     1       2.929   3.564  20.644  0.00  0.00    +0.000 F 
ATOM     24  F   UNL     1       0.989   4.496  20.897  0.00  0.00    +0.000 F 
ATOM     25  F   UNL     1       1.407   3.319  19.121  0.00  0.00    +0.000 F 
ENDBRANCH  20  22
BRANCH  19  26
ATOM     26  C   UNL     1       4.043   4.273  17.794  0.00  0.00    +0.000 C 
ATOM     27  N   UNL     1       4.544   3.286  17.444  0.00  0.00    +0.000 NA
ENDBRANCH  19  26
ENDBRANCH   5  16
BRANCH   1  29
ATOM     28  C   UNL     1       1.575  13.173  19.251  0.00  0.00    +0.000 C 
ATOM     29  C   UNL     1       0.403  12.536  18.516  0.00  0.00    +0.000 C 
ENDBRANCH   1  29
TORSDOF 5
ENDMDL
MODEL 8
REMARK VINA RESULT:      -6.8      4.839      8.809
REMARK  Name = 
REMARK  8 active torsions:
REMARK  status: ('A' for Active; 'I' for Inactive)
REMARK    1  A    between atoms: C_1  and  C_2
REMARK    2  A    between atoms: C_2  and  C_3
REMARK    3  A    between atoms: C_3  and  C_4
REMARK    4  A    between atoms: N_7  and  C_8
REMARK    5  A    between atoms: C_11  and  C_12
REMARK    6  A    between atoms: C_14  and  C_15
REMARK    7  A    between atoms: N_22  and  C_23
REMARK    8  A    between atoms: C_26  and  C_27
REMARK                            x       y       z     vdW  Elec       q    Type
REMARK                         _______ _______ _______ _____ _____    ______ ____
ROOT
ATOM      1  C   UNL     1      -0.230  10.919  18.893  0.00  0.00    +0.000 C 
ATOM      2  C   UNL     1       0.775  12.055  18.572  0.00  0.00    +0.000 C 
ATOM      3  C   UNL     1      -1.308  11.625  19.741  0.00  0.00    +0.000 C 
ATOM      4  O   UNL     1      -2.165  12.373  19.290  0.00  0.00    +0.000 OA
ATOM      5  N   UNL     1      -0.982  11.434  21.068  0.00  0.00    +0.000 N 
ATOM      6  C   UNL     1      -0.066  10.384  21.202  0.00  0.00    +0.000 C 
ATOM      7  S   UNL     1       0.459   9.750  22.670  0.00  0.00    +0.000 S 
ATOM      8  N   UNL     1       0.301   9.968  19.881  0.00  0.00    +0.000 N 
ENDROOT
BRANCH   8   9
ATOM      9  C   UNL     1       1.182   8.888  19.544  0.00  0.00    +0.000 A 
ATOM     10  C   UNL     1       1.886   8.867  18.332  0.00  0.00    +0.000 A 
ATOM     11  C   UNL     1       2.684   7.776  17.960  0.00  0.00    +0.000 A 
ATOM     12  C   UNL     1       2.830   6.685  18.813  0.00  0.00    +0.000 A 
ATOM     13  C   UNL     1       3.631   5.484  18.416  0.00  0.00    +0.000 C 
ATOM     14  C   UNL     1       2.203   6.724  20.055  0.00  0.00    +0.000 A 
ATOM     15  C   UNL     1       1.403   7.815  20.415  0.00  0.00    +0.000 A 
ENDBRANCH   8   9
BRANCH   5  16
ATOM     16  C   UNL     1      -1.339  12.370  22.078  0.00  0.00    +0.000 A 
ATOM     17  C   UNL     1      -0.542  13.499  22.287  0.00  0.00    +0.000 A 
ATOM     18  C   UNL     1      -0.870  14.448  23.255  0.00  0.00    +0.000 A 
ATOM     19  C   UNL     1      -2.010  14.289  24.051  0.00  0.00    +0.000 A 
ATOM     20  C   UNL     1      -2.844  13.176  23.851  0.00  0.00    +0.000 A 
ATOM     21  C   UNL     1      -2.510  12.234  22.839  0.00  0.00    +0.000 A 
BRANCH  20  22
ATOM     22  C   UNL     1      -4.085  12.921  24.676  0.00  0.00    +0.000 C 
ATOM     23  F   UNL     1      -4.603  11.669  24.570  0.00  0.00    +0.000 F 
ATOM     24  F   UNL     1      -3.860  13.113  26.004  0.00  0.00    +0.000 F 
ATOM     25  F   UNL     1      -5.098  13.766  24.344  0.00  0.00    +0.000 F 
ENDBRANCH  20  22
BRANCH  19  26
ATOM     26  C   UNL     1      -2.263  15.302  25.038  0.00  0.00    +0.000 C 
ATOM     27  N   UNL     1      -2.422  16.139  25.827  0.00  0.00    +0.000 NA
ENDBRANCH  19  26
ENDBRANCH   5  16
BRANCH   1  29
ATOM     28  C   UNL     1      -2.203   9.723  17.715  0.00  0.00    +0.000 C 
ATOM     29  C   UNL     1      -0.805  10.316  17.596  0.00  0.00    +0.000 C 
ENDBRANCH   1  29
TORSDOF 5
ENDMDL
MODEL 9
REMARK VINA RESULT:      -6.8      4.819      8.815
REMARK  Name = 
REMARK  8 active torsions:
REMARK  status: ('A' for Active; 'I' for Inactive)
REMARK    1  A    between atoms: C_1  and  C_2
REMARK    2  A    between atoms: C_2  and  C_3
REMARK    3  A    between atoms: C_3  and  C_4
REMARK    4  A    between atoms: N_7  and  C_8
REMARK    5  A    between atoms: C_11  and  C_12
REMARK    6  A    between atoms: C_14  and  C_15
REMARK    7  A    between atoms: N_22  and  C_23
REMARK    8  A    between atoms: C_26  and  C_27
REMARK                            x       y       z     vdW  Elec       q    Type
REMARK                         _______ _______ _______ _____ _____    ______ ____
ROOT
ATOM      1  C   UNL     1      -0.166  10.768  18.943  0.00  0.00    +0.000 C 
ATOM      2  C   UNL     1       0.892  11.859  18.637  0.00  0.00    +0.000 C 
ATOM      3  C   UNL     1      -1.237  11.527  19.755  0.00  0.00    +0.000 C 
ATOM      4  O   UNL     1      -2.051  12.305  19.273  0.00  0.00    +0.000 OA
ATOM      5  N   UNL     1      -0.954  11.339  21.093  0.00  0.00    +0.000 N 
ATOM      6  C   UNL     1      -0.086  10.254  21.262  0.00  0.00    +0.000 C 
ATOM      7  S   UNL     1       0.375   9.617  22.750  0.00  0.00    +0.000 S 
ATOM      8  N   UNL     1       0.298   9.809  19.956  0.00  0.00    +0.000 N 
ENDROOT
BRANCH   8   9
ATOM      9  C   UNL     1       1.144   8.690  19.654  0.00  0.00    +0.000 A 
ATOM     10  C   UNL     1       1.257   7.600  20.527  0.00  0.00    +0.000 A 
ATOM     11  C   UNL     1       2.143   6.542  20.279  0.00  0.00    +0.000 A 
ATOM     12  C   UNL     1       2.919   6.529  19.122  0.00  0.00    +0.000 A 
ATOM     13  C   UNL     1       3.913   5.441  18.860  0.00  0.00    +0.000 C 
ATOM     14  C   UNL     1       2.761   7.564  18.205  0.00  0.00    +0.000 A 
ATOM     15  C   UNL     1       1.878   8.618  18.465  0.00  0.00    +0.000 A 
ENDBRANCH   8   9
BRANCH   5  16
ATOM     16  C   UNL     1      -1.299  12.300  22.083  0.00  0.00    +0.000 A 
ATOM     17  C   UNL     1      -0.487  13.423  22.268  0.00  0.00    +0.000 A 
ATOM     18  C   UNL     1      -0.802  14.397  23.216  0.00  0.00    +0.000 A 
ATOM     19  C   UNL     1      -1.943  14.269  24.014  0.00  0.00    +0.000 A 
ATOM     20  C   UNL     1      -2.793  13.163  23.838  0.00  0.00    +0.000 A 
ATOM     21  C   UNL     1      -2.471  12.196  22.845  0.00  0.00    +0.000 A 
BRANCH  20  22
ATOM     22  C   UNL     1      -4.037  12.942  24.667  0.00  0.00    +0.000 C 
ATOM     23  F   UNL     1      -3.869  13.074  26.009  0.00  0.00    +0.000 F 
ATOM     24  F   UNL     1      -5.030  13.810  24.334  0.00  0.00    +0.000 F 
ATOM     25  F   UNL     1      -4.554  11.696  24.484  0.00  0.00    +0.000 F 
ENDBRANCH  20  22
BRANCH  19  26
ATOM     26  C   UNL     1      -2.183  15.306  24.980  0.00  0.00    +0.000 C 
ATOM     27  N   UNL     1      -2.384  16.175  25.723  0.00  0.00    +0.000 NA
ENDBRANCH  19  26
ENDBRANCH   5  16
BRANCH   1  29
ATOM     28  C   UNL     1      -2.182   9.714  17.704  0.00  0.00    +0.000 C 
ATOM     29  C   UNL     1      -0.732  10.174  17.638  0.00  0.00    +0.000 C 
ENDBRANCH   1  29
TORSDOF 5
ENDMDL
