MODEL 1
REMARK VINA RESULT:      -7.9      0.000      0.000
REMARK  Name = 
REMARK  3 active torsions:
REMARK  status: ('A' for Active; 'I' for Inactive)
REMARK    1  A    between atoms: C_2  and  C_3
REMARK    2  A    between atoms: C_3  and  N_4
REMARK    3  A    between atoms: C_7  and  N_8
REMARK                            x       y       z     vdW  Elec       q    Type
REMARK                         _______ _______ _______ _____ _____    ______ ____
ROOT
ATOM      1  N   UNL     1       5.301   3.570  16.802  0.00  0.00    +0.000 N 
ATOM      2  C   UNL     1       4.170   3.542  17.600  0.00  0.00    +0.000 A 
ATOM      3  C   UNL     1       2.905   3.921  17.173  0.00  0.00    +0.000 A 
ATOM      4  N   UNL     1       1.796   3.895  17.950  0.00  0.00    +0.000 NA
ATOM      5  C   UNL     1       1.971   3.435  19.191  0.00  0.00    +0.000 A 
ATOM      6  C   UNL     1       0.872   3.386  20.032  0.00  0.00    +0.000 A 
ATOM      7  C   UNL     1       0.976   2.886  21.325  0.00  0.00    +0.000 A 
ATOM      8  C   UNL     1       2.205   2.423  21.783  0.00  0.00    +0.000 A 
ATOM      9  C   UNL     1       3.326   2.490  20.943  0.00  0.00    +0.000 A 
ATOM     10  C   UNL     1       3.241   2.997  19.651  0.00  0.00    +0.000 A 
ATOM     11  N   UNL     1       4.336   3.071  18.850  0.00  0.00    +0.000 NA
ATOM     12  H   UNL     1       6.105   3.456  17.418  0.00  0.00    +0.000 HD
ENDROOT
BRANCH   1  16
ATOM     13  N   UNL     1       7.109   6.741  16.746  0.00  0.00    +0.000 NA
ATOM     14  C   UNL     1       7.686   5.422  16.440  0.00  0.00    +0.000 C 
ATOM     15  C   UNL     1       6.916   4.744  15.315  0.00  0.00    +0.000 C 
ATOM     16  C   UNL     1       5.449   4.520  15.693  0.00  0.00    +0.000 C 
ATOM     17  C   UNL     1       4.857   5.883  16.073  0.00  0.00    +0.000 C 
ATOM     18  C   UNL     1       5.694   6.608  17.134  0.00  0.00    +0.000 C 
BRANCH  13  19
ATOM     19  C   UNL     1       7.868   7.386  17.833  0.00  0.00    +0.000 C 
BRANCH  19  21
ATOM     20  C   UNL     1       8.700   9.697  18.365  0.00  0.00    +0.000 C 
ATOM     21  C   UNL     1       7.861   8.885  17.706  0.00  0.00    +0.000 C 
ENDBRANCH  19  21
ENDBRANCH  13  19
ENDBRANCH   1  16
TORSDOF 3
ENDMDL
MODEL 2
REMARK VINA RESULT:      -7.7      2.234      7.087
REMARK  Name = 
REMARK  3 active torsions:
REMARK  status: ('A' for Active; 'I' for Inactive)
REMARK    1  A    between atoms: C_2  and  C_3
REMARK    2  A    between atoms: C_3  and  N_4
REMARK    3  A    between atoms: C_7  and  N_8
REMARK                            x       y       z     vdW  Elec       q    Type
REMARK                         _______ _______ _______ _____ _____    ______ ____
ROOT
ATOM      1  N   UNL     1       4.653   4.676  17.302  0.00  0.00    +0.000 N 
ATOM      2  C   UNL     1       5.469   4.782  16.188  0.00  0.00    +0.000 A 
ATOM      3  C   UNL     1       6.639   5.528  16.147  0.00  0.00    +0.000 A 
ATOM      4  N   UNL     1       7.440   5.635  15.060  0.00  0.00    +0.000 NA
ATOM      5  C   UNL     1       7.059   4.932  13.991  0.00  0.00    +0.000 A 
ATOM      6  C   UNL     1       7.839   5.003  12.849  0.00  0.00    +0.000 A 
ATOM      7  C   UNL     1       7.519   4.270  11.711  0.00  0.00    +0.000 A 
ATOM      8  C   UNL     1       6.398   3.449  11.720  0.00  0.00    +0.000 A 
ATOM      9  C   UNL     1       5.592   3.390  12.865  0.00  0.00    +0.000 A 
ATOM     10  C   UNL     1       5.892   4.124  14.007  0.00  0.00    +0.000 A 
ATOM     11  N   UNL     1       5.097   4.070  15.108  0.00  0.00    +0.000 NA
ATOM     12  H   UNL     1       3.775   4.263  16.990  0.00  0.00    +0.000 HD
ENDROOT
BRANCH   1  16
ATOM     13  N   UNL     1       2.171   5.109  19.945  0.00  0.00    +0.000 NA
ATOM     14  C   UNL     1       3.418   4.333  20.059  0.00  0.00    +0.000 C 
ATOM     15  C   UNL     1       4.625   5.201  19.735  0.00  0.00    +0.000 C 
ATOM     16  C   UNL     1       4.561   5.744  18.305  0.00  0.00    +0.000 C 
ATOM     17  C   UNL     1       3.236   6.503  18.159  0.00  0.00    +0.000 C 
ATOM     18  C   UNL     1       2.029   5.657  18.584  0.00  0.00    +0.000 C 
BRANCH  13  19
ATOM     19  C   UNL     1       1.012   4.257  20.267  0.00  0.00    +0.000 C 
BRANCH  19  21
ATOM     20  C   UNL     1       0.720   2.259  18.771  0.00  0.00    +0.000 C 
ATOM     21  C   UNL     1       1.244   2.825  19.867  0.00  0.00    +0.000 C 
ENDBRANCH  19  21
ENDBRANCH  13  19
ENDBRANCH   1  16
TORSDOF 3
ENDMDL
MODEL 3
REMARK VINA RESULT:      -7.4      0.726      1.114
REMARK  Name = 
REMARK  3 active torsions:
REMARK  status: ('A' for Active; 'I' for Inactive)
REMARK    1  A    between atoms: C_2  and  C_3
REMARK    2  A    between atoms: C_3  and  N_4
REMARK    3  A    between atoms: C_7  and  N_8
REMARK                            x       y       z     vdW  Elec       q    Type
REMARK                         _______ _______ _______ _____ _____    ______ ____
ROOT
ATOM      1  N   UNL     1       5.301   3.377  16.702  0.00  0.00    +0.000 N 
ATOM      2  C   UNL     1       4.162   3.373  17.488  0.00  0.00    +0.000 A 
ATOM      3  C   UNL     1       2.892   3.687  17.023  0.00  0.00    +0.000 A 
ATOM      4  N   UNL     1       1.775   3.684  17.788  0.00  0.00    +0.000 NA
ATOM      5  C   UNL     1       1.947   3.316  19.060  0.00  0.00    +0.000 A 
ATOM      6  C   UNL     1       0.840   3.295  19.891  0.00  0.00    +0.000 A 
ATOM      7  C   UNL     1       0.941   2.888  21.217  0.00  0.00    +0.000 A 
ATOM      8  C   UNL     1       2.176   2.492  21.718  0.00  0.00    +0.000 A 
ATOM      9  C   UNL     1       3.305   2.533  20.888  0.00  0.00    +0.000 A 
ATOM     10  C   UNL     1       3.222   2.946  19.562  0.00  0.00    +0.000 A 
ATOM     11  N   UNL     1       4.325   2.995  18.770  0.00  0.00    +0.000 NA
ATOM     12  H   UNL     1       6.100   3.329  17.333  0.00  0.00    +0.000 HD
ENDROOT
BRANCH   1  16
ATOM     13  N   UNL     1       6.881   6.663  16.485  0.00  0.00    +0.000 NA
ATOM     14  C   UNL     1       7.564   5.371  16.306  0.00  0.00    +0.000 C 
ATOM     15  C   UNL     1       6.902   4.557  15.204  0.00  0.00    +0.000 C 
ATOM     16  C   UNL     1       5.437   4.252  15.531  0.00  0.00    +0.000 C 
ATOM     17  C   UNL     1       4.731   5.591  15.778  0.00  0.00    +0.000 C 
ATOM     18  C   UNL     1       5.461   6.453  16.818  0.00  0.00    +0.000 C 
BRANCH  13  19
ATOM     19  C   UNL     1       7.536   7.440  17.552  0.00  0.00    +0.000 C 
BRANCH  19  21
ATOM     20  C   UNL     1       7.477   5.903  19.539  0.00  0.00    +0.000 C 
ATOM     21  C   UNL     1       8.166   6.548  18.587  0.00  0.00    +0.000 C 
ENDBRANCH  19  21
ENDBRANCH  13  19
ENDBRANCH   1  16
TORSDOF 3
ENDMDL
MODEL 4
REMARK VINA RESULT:      -7.3      4.765      6.654
REMARK  Name = 
REMARK  3 active torsions:
REMARK  status: ('A' for Active; 'I' for Inactive)
REMARK    1  A    between atoms: C_2  and  C_3
REMARK    2  A    between atoms: C_3  and  N_4
REMARK    3  A    between atoms: C_7  and  N_8
REMARK                            x       y       z     vdW  Elec       q    Type
REMARK                         _______ _______ _______ _____ _____    ______ ____
ROOT
ATOM      1  N   UNL     1       2.641   6.429  19.968  0.00  0.00    +0.000 N 
ATOM      2  C   UNL     1       1.947   7.616  20.124  0.00  0.00    +0.000 A 
ATOM      3  C   UNL     1       1.782   8.561  19.120  0.00  0.00    +0.000 A 
ATOM      4  N   UNL     1       1.104   9.724  19.268  0.00  0.00    +0.000 NA
ATOM      5  C   UNL     1       0.545   9.917  20.465  0.00  0.00    +0.000 A 
ATOM      6  C   UNL     1      -0.161  11.090  20.675  0.00  0.00    +0.000 A 
ATOM      7  C   UNL     1      -0.798  11.341  21.885  0.00  0.00    +0.000 A 
ATOM      8  C   UNL     1      -0.728  10.396  22.903  0.00  0.00    +0.000 A 
ATOM      9  C   UNL     1       0.004   9.217  22.704  0.00  0.00    +0.000 A 
ATOM     10  C   UNL     1       0.654   8.956  21.503  0.00  0.00    +0.000 A 
ATOM     11  N   UNL     1       1.372   7.816  21.325  0.00  0.00    +0.000 NA
ATOM     12  H   UNL     1       2.790   6.045  20.900  0.00  0.00    +0.000 HD
ENDROOT
BRANCH   1  16
ATOM     13  N   UNL     1       3.626   3.498  18.025  0.00  0.00    +0.000 NA
ATOM     14  C   UNL     1       2.643   4.511  17.607  0.00  0.00    +0.000 C 
ATOM     15  C   UNL     1       3.262   5.901  17.616  0.00  0.00    +0.000 C 
ATOM     16  C   UNL     1       3.748   6.292  19.014  0.00  0.00    +0.000 C 
ATOM     17  C   UNL     1       4.728   5.209  19.482  0.00  0.00    +0.000 C 
ATOM     18  C   UNL     1       4.133   3.799  19.375  0.00  0.00    +0.000 C 
BRANCH  13  19
ATOM     19  C   UNL     1       3.012   2.157  18.007  0.00  0.00    +0.000 C 
BRANCH  19  21
ATOM     20  C   UNL     1       0.674   2.199  18.927  0.00  0.00    +0.000 C 
ATOM     21  C   UNL     1       1.988   1.998  19.097  0.00  0.00    +0.000 C 
ENDBRANCH  19  21
ENDBRANCH  13  19
ENDBRANCH   1  16
TORSDOF 3
ENDMDL
MODEL 5
REMARK VINA RESULT:      -7.2      4.495      6.529
REMARK  Name = 
REMARK  3 active torsions:
REMARK  status: ('A' for Active; 'I' for Inactive)
REMARK    1  A    between atoms: C_2  and  C_3
REMARK    2  A    between atoms: C_3  and  N_4
REMARK    3  A    between atoms: C_7  and  N_8
REMARK                            x       y       z     vdW  Elec       q    Type
REMARK                         _______ _______ _______ _____ _____    ______ ____
ROOT
ATOM      1  N   UNL     1       3.038   6.368  19.232  0.00  0.00    +0.000 N 
ATOM      2  C   UNL     1       2.431   7.599  19.054  0.00  0.00    +0.000 A 
ATOM      3  C   UNL     1       2.508   8.345  17.886  0.00  0.00    +0.000 A 
ATOM      4  N   UNL     1       1.916   9.550  17.707  0.00  0.00    +0.000 NA
ATOM      5  C   UNL     1       1.190   9.994  18.735  0.00  0.00    +0.000 A 
ATOM      6  C   UNL     1       0.561  11.222  18.610  0.00  0.00    +0.000 A 
ATOM      7  C   UNL     1      -0.238  11.729  19.629  0.00  0.00    +0.000 A 
ATOM      8  C   UNL     1      -0.411  10.991  20.794  0.00  0.00    +0.000 A 
ATOM      9  C   UNL     1       0.241   9.758  20.936  0.00  0.00    +0.000 A 
ATOM     10  C   UNL     1       1.051   9.241  19.930  0.00  0.00    +0.000 A 
ATOM     11  N   UNL     1       1.690   8.052  20.083  0.00  0.00    +0.000 NA
ATOM     12  H   UNL     1       3.003   6.159  20.229  0.00  0.00    +0.000 HD
ENDROOT
BRANCH   1  16
ATOM     13  N   UNL     1       4.070   3.076  18.034  0.00  0.00    +0.000 NA
ATOM     14  C   UNL     1       3.255   4.045  17.281  0.00  0.00    +0.000 C 
ATOM     15  C   UNL     1       3.981   5.376  17.152  0.00  0.00    +0.000 C 
ATOM     16  C   UNL     1       4.269   5.996  18.523  0.00  0.00    +0.000 C 
ATOM     17  C   UNL     1       5.065   4.968  19.336  0.00  0.00    +0.000 C 
ATOM     18  C   UNL     1       4.378   3.597  19.377  0.00  0.00    +0.000 C 
BRANCH  13  19
ATOM     19  C   UNL     1       3.355   1.792  18.145  0.00  0.00    +0.000 C 
BRANCH  19  21
ATOM     20  C   UNL     1       0.963   2.186  18.808  0.00  0.00    +0.000 C 
ATOM     21  C   UNL     1       2.224   1.866  19.134  0.00  0.00    +0.000 C 
ENDBRANCH  19  21
ENDBRANCH  13  19
ENDBRANCH   1  16
TORSDOF 3
ENDMDL
MODEL 6
REMARK VINA RESULT:      -7.2      4.516      5.449
REMARK  Name = 
REMARK  3 active torsions:
REMARK  status: ('A' for Active; 'I' for Inactive)
REMARK    1  A    between atoms: C_2  and  C_3
REMARK    2  A    between atoms: C_3  and  N_4
REMARK    3  A    between atoms: C_7  and  N_8
REMARK                            x       y       z     vdW  Elec       q    Type
REMARK                         _______ _______ _______ _____ _____    ______ ____
ROOT
ATOM      1  N   UNL     1       3.060   6.762  18.241  0.00  0.00    +0.000 N 
ATOM      2  C   UNL     1       2.254   7.563  19.030  0.00  0.00    +0.000 A 
ATOM      3  C   UNL     1       1.912   7.272  20.344  0.00  0.00    +0.000 A 
ATOM      4  N   UNL     1       1.123   8.052  21.120  0.00  0.00    +0.000 NA
ATOM      5  C   UNL     1       0.697   9.185  20.556  0.00  0.00    +0.000 A 
ATOM      6  C   UNL     1      -0.114  10.023  21.302  0.00  0.00    +0.000 A 
ATOM      7  C   UNL     1      -0.565  11.234  20.788  0.00  0.00    +0.000 A 
ATOM      8  C   UNL     1      -0.193  11.613  19.503  0.00  0.00    +0.000 A 
ATOM      9  C   UNL     1       0.609  10.758  18.735  0.00  0.00    +0.000 A 
ATOM     10  C   UNL     1       1.060   9.539  19.230  0.00  0.00    +0.000 A 
ATOM     11  N   UNL     1       1.826   8.712  18.472  0.00  0.00    +0.000 NA
ATOM     12  H   UNL     1       2.964   7.094  17.282  0.00  0.00    +0.000 HD
ENDROOT
BRANCH   1  16
ATOM     13  N   UNL     1       6.004   4.606  18.096  0.00  0.00    +0.000 NA
ATOM     14  C   UNL     1       5.514   5.306  19.295  0.00  0.00    +0.000 C 
ATOM     15  C   UNL     1       4.069   4.928  19.588  0.00  0.00    +0.000 C 
ATOM     16  C   UNL     1       3.142   5.309  18.431  0.00  0.00    +0.000 C 
ATOM     17  C   UNL     1       3.681   4.632  17.165  0.00  0.00    +0.000 C 
ATOM     18  C   UNL     1       5.167   4.935  16.929  0.00  0.00    +0.000 C 
BRANCH  13  19
ATOM     19  C   UNL     1       7.405   4.980  17.829  0.00  0.00    +0.000 C 
BRANCH  19  21
ATOM     20  C   UNL     1       7.727   7.462  17.607  0.00  0.00    +0.000 C 
ATOM     21  C   UNL     1       7.728   6.350  18.357  0.00  0.00    +0.000 C 
ENDBRANCH  19  21
ENDBRANCH  13  19
ENDBRANCH   1  16
TORSDOF 3
ENDMDL
MODEL 7
REMARK VINA RESULT:      -7.1      4.524      5.842
REMARK  Name = 
REMARK  3 active torsions:
REMARK  status: ('A' for Active; 'I' for Inactive)
REMARK    1  A    between atoms: C_2  and  C_3
REMARK    2  A    between atoms: C_3  and  N_4
REMARK    3  A    between atoms: C_7  and  N_8
REMARK                            x       y       z     vdW  Elec       q    Type
REMARK                         _______ _______ _______ _____ _____    ______ ____
ROOT
ATOM      1  N   UNL     1       3.197   6.719  18.479  0.00  0.00    +0.000 N 
ATOM      2  C   UNL     1       2.324   7.568  19.138  0.00  0.00    +0.000 A 
ATOM      3  C   UNL     1       1.977   7.444  20.476  0.00  0.00    +0.000 A 
ATOM      4  N   UNL     1       1.124   8.272  21.125  0.00  0.00    +0.000 NA
ATOM      5  C   UNL     1       0.635   9.280  20.400  0.00  0.00    +0.000 A 
ATOM      6  C   UNL     1      -0.244  10.160  21.010  0.00  0.00    +0.000 A 
ATOM      7  C   UNL     1      -0.763  11.252  20.324  0.00  0.00    +0.000 A 
ATOM      8  C   UNL     1      -0.393  11.467  19.001  0.00  0.00    +0.000 A 
ATOM      9  C   UNL     1       0.479  10.568  18.371  0.00  0.00    +0.000 A 
ATOM     10  C   UNL     1       1.000   9.466  19.040  0.00  0.00    +0.000 A 
ATOM     11  N   UNL     1       1.833   8.593  18.417  0.00  0.00    +0.000 NA
ATOM     12  H   UNL     1       3.097   6.903  17.482  0.00  0.00    +0.000 HD
ENDROOT
BRANCH   1  16
ATOM     13  N   UNL     1       5.588   4.269  17.209  0.00  0.00    +0.000 NA
ATOM     14  C   UNL     1       5.829   5.204  18.320  0.00  0.00    +0.000 C 
ATOM     15  C   UNL     1       4.778   5.035  19.407  0.00  0.00    +0.000 C 
ATOM     16  C   UNL     1       3.370   5.316  18.877  0.00  0.00    +0.000 C 
ATOM     17  C   UNL     1       3.133   4.387  17.680  0.00  0.00    +0.000 C 
ATOM     18  C   UNL     1       4.250   4.488  16.633  0.00  0.00    +0.000 C 
BRANCH  13  19
ATOM     19  C   UNL     1       6.617   4.442  16.167  0.00  0.00    +0.000 C 
BRANCH  19  21
ATOM     20  C   UNL     1       6.249   3.956  13.729  0.00  0.00    +0.000 C 
ATOM     21  C   UNL     1       6.006   4.700  14.817  0.00  0.00    +0.000 C 
ENDBRANCH  19  21
ENDBRANCH  13  19
ENDBRANCH   1  16
TORSDOF 3
ENDMDL
MODEL 8
REMARK VINA RESULT:      -7.0      1.644      3.491
REMARK  Name = 
REMARK  3 active torsions:
REMARK  status: ('A' for Active; 'I' for Inactive)
REMARK    1  A    between atoms: C_2  and  C_3
REMARK    2  A    between atoms: C_3  and  N_4
REMARK    3  A    between atoms: C_7  and  N_8
REMARK                            x       y       z     vdW  Elec       q    Type
REMARK                         _______ _______ _______ _____ _____    ______ ____
ROOT
ATOM      1  N   UNL     1       5.688   4.797  17.749  0.00  0.00    +0.000 N 
ATOM      2  C   UNL     1       4.478   4.587  18.387  0.00  0.00    +0.000 A 
ATOM      3  C   UNL     1       3.282   5.178  18.004  0.00  0.00    +0.000 A 
ATOM      4  N   UNL     1       2.095   4.975  18.625  0.00  0.00    +0.000 NA
ATOM      5  C   UNL     1       2.118   4.116  19.646  0.00  0.00    +0.000 A 
ATOM      6  C   UNL     1       0.933   3.869  20.320  0.00  0.00    +0.000 A 
ATOM      7  C   UNL     1       0.878   2.960  21.370  0.00  0.00    +0.000 A 
ATOM      8  C   UNL     1       2.031   2.282  21.750  0.00  0.00    +0.000 A 
ATOM      9  C   UNL     1       3.238   2.544  21.086  0.00  0.00    +0.000 A 
ATOM     10  C   UNL     1       3.312   3.458  20.040  0.00  0.00    +0.000 A 
ATOM     11  N   UNL     1       4.489   3.714  19.413  0.00  0.00    +0.000 NA
ATOM     12  H   UNL     1       6.416   4.426  18.359  0.00  0.00    +0.000 HD
ENDROOT
BRANCH   1  16
ATOM     13  N   UNL     1       6.751   5.266  14.287  0.00  0.00    +0.000 NA
ATOM     14  C   UNL     1       5.355   5.205  14.754  0.00  0.00    +0.000 C 
ATOM     15  C   UNL     1       5.097   6.258  15.822  0.00  0.00    +0.000 C 
ATOM     16  C   UNL     1       5.992   6.049  17.046  0.00  0.00    +0.000 C 
ATOM     17  C   UNL     1       7.447   6.051  16.560  0.00  0.00    +0.000 C 
ATOM     18  C   UNL     1       7.679   5.059  15.412  0.00  0.00    +0.000 C 
BRANCH  13  19
ATOM     19  C   UNL     1       6.984   4.245  13.250  0.00  0.00    +0.000 C 
BRANCH  19  21
ATOM     20  C   UNL     1       5.621   2.697  11.814  0.00  0.00    +0.000 C 
ATOM     21  C   UNL     1       5.700   3.608  12.795  0.00  0.00    +0.000 C 
ENDBRANCH  19  21
ENDBRANCH  13  19
ENDBRANCH   1  16
TORSDOF 3
ENDMDL
MODEL 9
REMARK VINA RESULT:      -6.9      3.566      5.257
REMARK  Name = 
REMARK  3 active torsions:
REMARK  status: ('A' for Active; 'I' for Inactive)
REMARK    1  A    between atoms: C_2  and  C_3
REMARK    2  A    between atoms: C_3  and  N_4
REMARK    3  A    between atoms: C_7  and  N_8
REMARK                            x       y       z     vdW  Elec       q    Type
REMARK                         _______ _______ _______ _____ _____    ______ ____
ROOT
ATOM      1  N   UNL     1       5.011   6.084  17.357  0.00  0.00    +0.000 N 
ATOM      2  C   UNL     1       3.989   6.640  18.106  0.00  0.00    +0.000 A 
ATOM      3  C   UNL     1       3.578   6.160  19.342  0.00  0.00    +0.000 A 
ATOM      4  N   UNL     1       2.579   6.700  20.079  0.00  0.00    +0.000 NA
ATOM      5  C   UNL     1       2.001   7.786  19.560  0.00  0.00    +0.000 A 
ATOM      6  C   UNL     1       0.972   8.382  20.269  0.00  0.00    +0.000 A 
ATOM      7  C   UNL     1       0.350   9.535  19.804  0.00  0.00    +0.000 A 
ATOM      8  C   UNL     1       0.769  10.103  18.606  0.00  0.00    +0.000 A 
ATOM      9  C   UNL     1       1.796   9.492  17.873  0.00  0.00    +0.000 A 
ATOM     10  C   UNL     1       2.422   8.333  18.320  0.00  0.00    +0.000 A 
ATOM     11  N   UNL     1       3.406   7.741  17.595  0.00  0.00    +0.000 NA
ATOM     12  H   UNL     1       4.950   6.487  16.422  0.00  0.00    +0.000 HD
ENDROOT
BRANCH   1  16
ATOM     13  N   UNL     1       6.242   3.880  14.718  0.00  0.00    +0.000 NA
ATOM     14  C   UNL     1       7.079   4.713  15.598  0.00  0.00    +0.000 C 
ATOM     15  C   UNL     1       6.812   4.390  17.061  0.00  0.00    +0.000 C 
ATOM     16  C   UNL     1       5.352   4.659  17.439  0.00  0.00    +0.000 C 
ATOM     17  C   UNL     1       4.471   3.842  16.486  0.00  0.00    +0.000 C 
ATOM     18  C   UNL     1       4.814   4.094  15.012  0.00  0.00    +0.000 C 
BRANCH  13  19
ATOM     19  C   UNL     1       6.516   4.201  13.305  0.00  0.00    +0.000 C 
BRANCH  19  21
ATOM     20  C   UNL     1       4.815   3.317  11.680  0.00  0.00    +0.000 C 
ATOM     21  C   UNL     1       5.950   3.162  12.377  0.00  0.00    +0.000 C 
ENDBRANCH  19  21
ENDBRANCH  13  19
ENDBRANCH   1  16
TORSDOF 3
ENDMDL
