MODEL 1
REMARK VINA RESULT:      -7.3      0.000      0.000
REMARK  Name = 
REMARK  13 active torsions:
REMARK  status: ('A' for Active; 'I' for Inactive)
REMARK    1  A    between atoms: C_1  and  O_2
REMARK    2  A    between atoms: O_2  and  C_3
REMARK    3  A    between atoms: C_5  and  C_6
REMARK    4  A    between atoms: C_6  and  O_7
REMARK    5  A    between atoms: O_7  and  C_8
REMARK    6  A    between atoms: C_11  and  C_12
REMARK    7  A    between atoms: N_14  and  N_15
REMARK    8  A    between atoms: C_16  and  C_17
REMARK    9  A    between atoms: C_22  and  O_23
REMARK   10  A    between atoms: C_27  and  O_28
REMARK   11  A    between atoms: O_28  and  C_29
REMARK   12  A    between atoms: C_30  and  O_31
REMARK   13  A    between atoms: O_31  and  C_32
REMARK                            x       y       z     vdW  Elec       q    Type
REMARK                         _______ _______ _______ _____ _____    ______ ____
ROOT
ATOM      1  C   UNL     1      -0.711  11.290  22.680  0.00  0.00    +0.000 A 
ATOM      2  C   UNL     1      -0.703   9.946  23.060  0.00  0.00    +0.000 A 
ATOM      3  C   UNL     1      -0.036   8.999  22.282  0.00  0.00    +0.000 A 
ATOM      4  C   UNL     1       0.617   9.391  21.109  0.00  0.00    +0.000 A 
ATOM      5  C   UNL     1       0.536  10.725  20.684  0.00  0.00    +0.000 A 
ATOM      6  C   UNL     1      -0.132  11.670  21.469  0.00  0.00    +0.000 A 
ENDROOT
BRANCH   4   7
ATOM      7  C   UNL     1       1.385   8.415  20.288  0.00  0.00    +0.000 C 
ATOM      8  O   UNL     1       1.666   8.700  19.128  0.00  0.00    +0.000 OA
ATOM      9  N   UNL     1       1.748   7.246  20.946  0.00  0.00    +0.000 N 
ATOM     10  H   UNL     1       1.597   7.136  21.941  0.00  0.00    +0.000 HD
BRANCH   9  11
ATOM     11  N   UNL     1       2.434   6.281  20.277  0.00  0.00    +0.000 NA
ATOM     12  C   UNL     1       1.734   5.282  19.844  0.00  0.00    +0.000 C 
BRANCH  12  13
ATOM     13  C   UNL     1       2.369   4.167  19.115  0.00  0.00    +0.000 A 
ATOM     14  C   UNL     1       2.130   2.851  19.528  0.00  0.00    +0.000 A 
ATOM     15  C   UNL     1       2.705   1.781  18.838  0.00  0.00    +0.000 A 
ATOM     16  C   UNL     1       3.516   2.027  17.731  0.00  0.00    +0.000 A 
ATOM     17  C   UNL     1       3.759   3.337  17.313  0.00  0.00    +0.000 A 
ATOM     18  C   UNL     1       3.182   4.407  18.002  0.00  0.00    +0.000 A 
BRANCH  18  19
ATOM     19  O   UNL     1       3.412   5.687  17.583  0.00  0.00    +0.000 OA
ATOM     20  H   UNL     1       3.446   5.696  16.612  0.00  0.00    +0.000 HD
ENDBRANCH  18  19
ENDBRANCH  12  13
ENDBRANCH   9  11
ENDBRANCH   4   7
BRANCH   1  21
ATOM     21  O   UNL     1      -1.255  12.301  23.427  0.00  0.00    +0.000 OA
BRANCH  21  22
ATOM     22  C   UNL     1      -1.610  13.456  22.660  0.00  0.00    +0.000 C 
BRANCH  22  25
ATOM     23  C   UNL     1      -5.397  13.043  22.357  0.00  0.00    +0.000 A 
ATOM     24  C   UNL     1      -4.020  12.884  22.127  0.00  0.00    +0.000 A 
ATOM     25  C   UNL     1      -3.089  13.734  22.718  0.00  0.00    +0.000 A 
ATOM     26  C   UNL     1      -3.560  14.798  23.488  0.00  0.00    +0.000 A 
ATOM     27  C   UNL     1      -4.931  15.035  23.659  0.00  0.00    +0.000 A 
ATOM     28  C   UNL     1      -5.877  14.159  23.081  0.00  0.00    +0.000 A 
BRANCH  23  30
ATOM     29  C   UNL     1      -6.254  11.935  20.455  0.00  0.00    +0.000 C 
ATOM     30  O   UNL     1      -6.276  12.103  21.875  0.00  0.00    +0.000 OA
ENDBRANCH  23  30
BRANCH  27  31
ATOM     31  O   UNL     1      -5.142  16.142  24.444  0.00  0.00    +0.000 OA
ATOM     32  C   UNL     1      -4.035  16.829  25.003  0.00  0.00    +0.000 C 
ENDBRANCH  27  31
BRANCH  28  33
ATOM     33  O   UNL     1      -7.188  14.478  23.299  0.00  0.00    +0.000 OA
ATOM     34  C   UNL     1      -7.916  13.910  24.372  0.00  0.00    +0.000 C 
ENDBRANCH  28  33
ENDBRANCH  22  25
ENDBRANCH  21  22
ENDBRANCH   1  21
TORSDOF 10
ENDMDL
MODEL 2
REMARK VINA RESULT:      -7.1      2.347     11.927
REMARK  Name = 
REMARK  13 active torsions:
REMARK  status: ('A' for Active; 'I' for Inactive)
REMARK    1  A    between atoms: C_1  and  O_2
REMARK    2  A    between atoms: O_2  and  C_3
REMARK    3  A    between atoms: C_5  and  C_6
REMARK    4  A    between atoms: C_6  and  O_7
REMARK    5  A    between atoms: O_7  and  C_8
REMARK    6  A    between atoms: C_11  and  C_12
REMARK    7  A    between atoms: N_14  and  N_15
REMARK    8  A    between atoms: C_16  and  C_17
REMARK    9  A    between atoms: C_22  and  O_23
REMARK   10  A    between atoms: C_27  and  O_28
REMARK   11  A    between atoms: O_28  and  C_29
REMARK   12  A    between atoms: C_30  and  O_31
REMARK   13  A    between atoms: O_31  and  C_32
REMARK                            x       y       z     vdW  Elec       q    Type
REMARK                         _______ _______ _______ _____ _____    ______ ____
ROOT
ATOM      1  C   UNL     1       1.460   9.075  18.800  0.00  0.00    +0.000 A 
ATOM      2  C   UNL     1       1.335   8.558  20.092  0.00  0.00    +0.000 A 
ATOM      3  C   UNL     1       0.628   9.264  21.066  0.00  0.00    +0.000 A 
ATOM      4  C   UNL     1       0.052  10.499  20.756  0.00  0.00    +0.000 A 
ATOM      5  C   UNL     1       0.251  11.057  19.485  0.00  0.00    +0.000 A 
ATOM      6  C   UNL     1       0.958  10.344  18.512  0.00  0.00    +0.000 A 
ENDROOT
BRANCH   4   7
ATOM      7  C   UNL     1      -0.756  11.249  21.758  0.00  0.00    +0.000 C 
ATOM      8  O   UNL     1      -0.386  11.271  22.928  0.00  0.00    +0.000 OA
ATOM      9  N   UNL     1      -1.872  11.900  21.248  0.00  0.00    +0.000 N 
ATOM     10  H   UNL     1      -2.043  11.948  20.251  0.00  0.00    +0.000 HD
BRANCH   9  11
ATOM     11  N   UNL     1      -2.687  12.597  22.085  0.00  0.00    +0.000 NA
ATOM     12  C   UNL     1      -3.887  12.823  21.653  0.00  0.00    +0.000 C 
BRANCH  12  13
ATOM     13  C   UNL     1      -4.858  13.580  22.467  0.00  0.00    +0.000 A 
ATOM     14  C   UNL     1      -4.482  14.812  23.016  0.00  0.00    +0.000 A 
ATOM     15  C   UNL     1      -5.394  15.554  23.771  0.00  0.00    +0.000 A 
ATOM     16  C   UNL     1      -6.684  15.065  23.974  0.00  0.00    +0.000 A 
ATOM     17  C   UNL     1      -7.065  13.837  23.429  0.00  0.00    +0.000 A 
ATOM     18  C   UNL     1      -6.155  13.097  22.672  0.00  0.00    +0.000 A 
BRANCH  18  19
ATOM     19  O   UNL     1      -6.535  11.901  22.131  0.00  0.00    +0.000 OA
ATOM     20  H   UNL     1      -7.335  12.041  21.597  0.00  0.00    +0.000 HD
ENDBRANCH  18  19
ENDBRANCH  12  13
ENDBRANCH   9  11
ENDBRANCH   4   7
BRANCH   1  21
ATOM     21  O   UNL     1       2.051   8.413  17.757  0.00  0.00    +0.000 OA
BRANCH  21  22
ATOM     22  C   UNL     1       3.289   7.785  18.101  0.00  0.00    +0.000 C 
BRANCH  22  25
ATOM     23  C   UNL     1       4.330   4.268  17.027  0.00  0.00    +0.000 A 
ATOM     24  C   UNL     1       4.260   5.670  17.100  0.00  0.00    +0.000 A 
ATOM     25  C   UNL     1       3.259   6.303  17.833  0.00  0.00    +0.000 A 
ATOM     26  C   UNL     1       2.280   5.513  18.435  0.00  0.00    +0.000 A 
ATOM     27  C   UNL     1       2.273   4.118  18.301  0.00  0.00    +0.000 A 
ATOM     28  C   UNL     1       3.301   3.471  17.580  0.00  0.00    +0.000 A 
BRANCH  23  30
ATOM     29  C   UNL     1       5.722   4.194  15.119  0.00  0.00    +0.000 C 
ATOM     30  O   UNL     1       5.409   3.676  16.416  0.00  0.00    +0.000 OA
ENDBRANCH  23  30
BRANCH  27  31
ATOM     31  O   UNL     1       1.207   3.567  18.971  0.00  0.00    +0.000 OA
ATOM     32  C   UNL     1       0.964   3.926  20.321  0.00  0.00    +0.000 C 
ENDBRANCH  27  31
BRANCH  28  33
ATOM     33  O   UNL     1       3.203   2.110  17.501  0.00  0.00    +0.000 OA
ATOM     34  C   UNL     1       3.677   1.276  18.541  0.00  0.00    +0.000 C 
ENDBRANCH  28  33
ENDBRANCH  22  25
ENDBRANCH  21  22
ENDBRANCH   1  21
TORSDOF 10
ENDMDL
MODEL 3
REMARK VINA RESULT:      -7.1      2.679     12.211
REMARK  Name = 
REMARK  13 active torsions:
REMARK  status: ('A' for Active; 'I' for Inactive)
REMARK    1  A    between atoms: C_1  and  O_2
REMARK    2  A    between atoms: O_2  and  C_3
REMARK    3  A    between atoms: C_5  and  C_6
REMARK    4  A    between atoms: C_6  and  O_7
REMARK    5  A    between atoms: O_7  and  C_8
REMARK    6  A    between atoms: C_11  and  C_12
REMARK    7  A    between atoms: N_14  and  N_15
REMARK    8  A    between atoms: C_16  and  C_17
REMARK    9  A    between atoms: C_22  and  O_23
REMARK   10  A    between atoms: C_27  and  O_28
REMARK   11  A    between atoms: O_28  and  C_29
REMARK   12  A    between atoms: C_30  and  O_31
REMARK   13  A    between atoms: O_31  and  C_32
REMARK                            x       y       z     vdW  Elec       q    Type
REMARK                         _______ _______ _______ _____ _____    ______ ____
ROOT
ATOM      1  C   UNL     1       1.348   8.614  20.634  0.00  0.00    +0.000 A 
ATOM      2  C   UNL     1       1.103   8.620  22.009  0.00  0.00    +0.000 A 
ATOM      3  C   UNL     1       0.266   9.586  22.569  0.00  0.00    +0.000 A 
ATOM      4  C   UNL     1      -0.320  10.562  21.756  0.00  0.00    +0.000 A 
ATOM      5  C   UNL     1      -0.004  10.606  20.391  0.00  0.00    +0.000 A 
ATOM      6  C   UNL     1       0.833   9.634  19.834  0.00  0.00    +0.000 A 
ENDROOT
BRANCH   4   7
ATOM      7  C   UNL     1      -1.261  11.571  22.316  0.00  0.00    +0.000 C 
ATOM      8  O   UNL     1      -1.231  11.814  23.518  0.00  0.00    +0.000 OA
ATOM      9  N   UNL     1      -2.091  12.183  21.385  0.00  0.00    +0.000 N 
ATOM     10  H   UNL     1      -1.970  12.030  20.392  0.00  0.00    +0.000 HD
BRANCH   9  11
ATOM     11  N   UNL     1      -3.001  13.106  21.799  0.00  0.00    +0.000 NA
ATOM     12  C   UNL     1      -4.239  12.727  21.790  0.00  0.00    +0.000 C 
BRANCH  12  13
ATOM     13  C   UNL     1      -5.319  13.644  22.205  0.00  0.00    +0.000 A 
ATOM     14  C   UNL     1      -6.349  13.945  21.305  0.00  0.00    +0.000 A 
ATOM     15  C   UNL     1      -7.391  14.794  21.686  0.00  0.00    +0.000 A 
ATOM     16  C   UNL     1      -7.405  15.340  22.969  0.00  0.00    +0.000 A 
ATOM     17  C   UNL     1      -6.381  15.044  23.872  0.00  0.00    +0.000 A 
ATOM     18  C   UNL     1      -5.341  14.193  23.492  0.00  0.00    +0.000 A 
BRANCH  18  19
ATOM     19  O   UNL     1      -4.347  13.897  24.381  0.00  0.00    +0.000 OA
ATOM     20  H   UNL     1      -3.492  14.135  23.984  0.00  0.00    +0.000 HD
ENDBRANCH  18  19
ENDBRANCH  12  13
ENDBRANCH   9  11
ENDBRANCH   4   7
BRANCH   1  21
ATOM     21  O   UNL     1       2.076   7.653  19.983  0.00  0.00    +0.000 OA
BRANCH  21  22
ATOM     22  C   UNL     1       2.107   7.818  18.562  0.00  0.00    +0.000 C 
BRANCH  22  25
ATOM     23  C   UNL     1       5.315   6.509  16.951  0.00  0.00    +0.000 A 
ATOM     24  C   UNL     1       4.300   7.386  17.370  0.00  0.00    +0.000 A 
ATOM     25  C   UNL     1       3.112   6.904  17.913  0.00  0.00    +0.000 A 
ATOM     26  C   UNL     1       2.921   5.523  17.964  0.00  0.00    +0.000 A 
ATOM     27  C   UNL     1       3.878   4.627  17.468  0.00  0.00    +0.000 A 
ATOM     28  C   UNL     1       5.094   5.113  16.940  0.00  0.00    +0.000 A 
BRANCH  23  30
ATOM     29  C   UNL     1       7.489   7.168  17.602  0.00  0.00    +0.000 C 
ATOM     30  O   UNL     1       6.528   7.020  16.553  0.00  0.00    +0.000 OA
ENDBRANCH  23  30
BRANCH  27  31
ATOM     31  O   UNL     1       3.456   3.328  17.620  0.00  0.00    +0.000 OA
ATOM     32  C   UNL     1       2.140   3.064  18.074  0.00  0.00    +0.000 C 
ENDBRANCH  27  31
BRANCH  28  33
ATOM     33  O   UNL     1       5.960   4.162  16.477  0.00  0.00    +0.000 OA
ATOM     34  C   UNL     1       6.006   3.811  15.107  0.00  0.00    +0.000 C 
ENDBRANCH  28  33
ENDBRANCH  22  25
ENDBRANCH  21  22
ENDBRANCH   1  21
TORSDOF 10
ENDMDL
MODEL 4
REMARK VINA RESULT:      -7.0      4.233     11.954
REMARK  Name = 
REMARK  13 active torsions:
REMARK  status: ('A' for Active; 'I' for Inactive)
REMARK    1  A    between atoms: C_1  and  O_2
REMARK    2  A    between atoms: O_2  and  C_3
REMARK    3  A    between atoms: C_5  and  C_6
REMARK    4  A    between atoms: C_6  and  O_7
REMARK    5  A    between atoms: O_7  and  C_8
REMARK    6  A    between atoms: C_11  and  C_12
REMARK    7  A    between atoms: N_14  and  N_15
REMARK    8  A    between atoms: C_16  and  C_17
REMARK    9  A    between atoms: C_22  and  O_23
REMARK   10  A    between atoms: C_27  and  O_28
REMARK   11  A    between atoms: O_28  and  C_29
REMARK   12  A    between atoms: C_30  and  O_31
REMARK   13  A    between atoms: O_31  and  C_32
REMARK                            x       y       z     vdW  Elec       q    Type
REMARK                         _______ _______ _______ _____ _____    ______ ____
ROOT
ATOM      1  C   UNL     1       2.193   4.597  18.610  0.00  0.00    +0.000 A 
ATOM      2  C   UNL     1       1.946   4.604  19.985  0.00  0.00    +0.000 A 
ATOM      3  C   UNL     1       1.732   5.810  20.654  0.00  0.00    +0.000 A 
ATOM      4  C   UNL     1       1.778   7.018  19.952  0.00  0.00    +0.000 A 
ATOM      5  C   UNL     1       2.111   7.015  18.590  0.00  0.00    +0.000 A 
ATOM      6  C   UNL     1       2.322   5.804  17.924  0.00  0.00    +0.000 A 
ENDROOT
BRANCH   4   7
ATOM      7  C   UNL     1       1.499   8.316  20.626  0.00  0.00    +0.000 C 
ATOM      8  O   UNL     1       1.453   8.355  21.852  0.00  0.00    +0.000 OA
ATOM      9  N   UNL     1       1.342   9.402  19.775  0.00  0.00    +0.000 N 
ATOM     10  H   UNL     1       1.524   9.322  18.782  0.00  0.00    +0.000 HD
BRANCH   9  11
ATOM     11  N   UNL     1       1.064  10.630  20.292  0.00  0.00    +0.000 NA
ATOM     12  C   UNL     1       0.402  11.434  19.523  0.00  0.00    +0.000 C 
BRANCH  12  13
ATOM     13  C   UNL     1       0.052  12.797  19.969  0.00  0.00    +0.000 A 
ATOM     14  C   UNL     1       0.324  13.178  21.289  0.00  0.00    +0.000 A 
ATOM     15  C   UNL     1       0.020  14.471  21.724  0.00  0.00    +0.000 A 
ATOM     16  C   UNL     1      -0.552  15.384  20.838  0.00  0.00    +0.000 A 
ATOM     17  C   UNL     1      -0.824  15.009  19.520  0.00  0.00    +0.000 A 
ATOM     18  C   UNL     1      -0.518  13.718  19.085  0.00  0.00    +0.000 A 
BRANCH  18  19
ATOM     19  O   UNL     1      -0.775  13.359  17.791  0.00  0.00    +0.000 OA
ATOM     20  H   UNL     1      -1.385  14.008  17.403  0.00  0.00    +0.000 HD
ENDBRANCH  18  19
ENDBRANCH  12  13
ENDBRANCH   9  11
ENDBRANCH   4   7
BRANCH   1  21
ATOM     21  O   UNL     1       2.320   3.461  17.854  0.00  0.00    +0.000 OA
BRANCH  21  22
ATOM     22  C   UNL     1       3.574   2.794  18.023  0.00  0.00    +0.000 C 
BRANCH  22  25
ATOM     23  C   UNL     1       6.015   5.137  16.248  0.00  0.00    +0.000 A 
ATOM     24  C   UNL     1       5.060   4.130  16.466  0.00  0.00    +0.000 A 
ATOM     25  C   UNL     1       4.737   3.711  17.754  0.00  0.00    +0.000 A 
ATOM     26  C   UNL     1       5.439   4.266  18.825  0.00  0.00    +0.000 A 
ATOM     27  C   UNL     1       6.461   5.206  18.630  0.00  0.00    +0.000 A 
ATOM     28  C   UNL     1       6.773   5.650  17.326  0.00  0.00    +0.000 A 
BRANCH  23  30
ATOM     29  C   UNL     1       6.918   4.746  14.099  0.00  0.00    +0.000 C 
ATOM     30  O   UNL     1       6.206   5.624  14.977  0.00  0.00    +0.000 OA
ENDBRANCH  23  30
BRANCH  27  31
ATOM     31  O   UNL     1       7.006   5.591  19.831  0.00  0.00    +0.000 OA
ATOM     32  C   UNL     1       8.360   5.286  20.118  0.00  0.00    +0.000 C 
ENDBRANCH  27  31
BRANCH  28  33
ATOM     33  O   UNL     1       7.787   6.562  17.239  0.00  0.00    +0.000 OA
ATOM     34  C   UNL     1       7.566   7.937  17.490  0.00  0.00    +0.000 C 
ENDBRANCH  28  33
ENDBRANCH  22  25
ENDBRANCH  21  22
ENDBRANCH   1  21
TORSDOF 10
ENDMDL
MODEL 5
REMARK VINA RESULT:      -7.0      2.904     11.880
REMARK  Name = 
REMARK  13 active torsions:
REMARK  status: ('A' for Active; 'I' for Inactive)
REMARK    1  A    between atoms: C_1  and  O_2
REMARK    2  A    between atoms: O_2  and  C_3
REMARK    3  A    between atoms: C_5  and  C_6
REMARK    4  A    between atoms: C_6  and  O_7
REMARK    5  A    between atoms: O_7  and  C_8
REMARK    6  A    between atoms: C_11  and  C_12
REMARK    7  A    between atoms: N_14  and  N_15
REMARK    8  A    between atoms: C_16  and  C_17
REMARK    9  A    between atoms: C_22  and  O_23
REMARK   10  A    between atoms: C_27  and  O_28
REMARK   11  A    between atoms: O_28  and  C_29
REMARK   12  A    between atoms: C_30  and  O_31
REMARK   13  A    between atoms: O_31  and  C_32
REMARK                            x       y       z     vdW  Elec       q    Type
REMARK                         _______ _______ _______ _____ _____    ______ ____
ROOT
ATOM      1  C   UNL     1       1.551   8.833  18.789  0.00  0.00    +0.000 A 
ATOM      2  C   UNL     1       1.402   8.541  20.147  0.00  0.00    +0.000 A 
ATOM      3  C   UNL     1       0.993   9.533  21.039  0.00  0.00    +0.000 A 
ATOM      4  C   UNL     1       0.744  10.830  20.578  0.00  0.00    +0.000 A 
ATOM      5  C   UNL     1       0.977  11.142  19.231  0.00  0.00    +0.000 A 
ATOM      6  C   UNL     1       1.384  10.143  18.341  0.00  0.00    +0.000 A 
ENDROOT
BRANCH   4   7
ATOM      7  C   UNL     1       0.252  11.895  21.494  0.00  0.00    +0.000 C 
ATOM      8  O   UNL     1       0.911  12.922  21.624  0.00  0.00    +0.000 OA
ATOM      9  N   UNL     1      -0.963  11.628  22.113  0.00  0.00    +0.000 N 
ATOM     10  H   UNL     1      -1.515  10.819  21.857  0.00  0.00    +0.000 HD
BRANCH   9  11
ATOM     11  N   UNL     1      -1.488  12.531  22.985  0.00  0.00    +0.000 NA
ATOM     12  C   UNL     1      -2.320  13.386  22.484  0.00  0.00    +0.000 C 
BRANCH  12  13
ATOM     13  C   UNL     1      -2.946  14.423  23.328  0.00  0.00    +0.000 A 
ATOM     14  C   UNL     1      -4.310  14.701  23.176  0.00  0.00    +0.000 A 
ATOM     15  C   UNL     1      -4.925  15.664  23.981  0.00  0.00    +0.000 A 
ATOM     16  C   UNL     1      -4.177  16.345  24.940  0.00  0.00    +0.000 A 
ATOM     17  C   UNL     1      -2.816  16.072  25.097  0.00  0.00    +0.000 A 
ATOM     18  C   UNL     1      -2.202  15.108  24.294  0.00  0.00    +0.000 A 
BRANCH  18  19
ATOM     19  O   UNL     1      -0.873  14.835  24.458  0.00  0.00    +0.000 OA
ATOM     20  H   UNL     1      -0.684  14.767  25.409  0.00  0.00    +0.000 HD
ENDBRANCH  18  19
ENDBRANCH  12  13
ENDBRANCH   9  11
ENDBRANCH   4   7
BRANCH   1  21
ATOM     21  O   UNL     1       1.854   7.905  17.828  0.00  0.00    +0.000 OA
BRANCH  21  22
ATOM     22  C   UNL     1       3.255   7.641  17.705  0.00  0.00    +0.000 C 
BRANCH  22  25
ATOM     23  C   UNL     1       3.016   3.994  18.820  0.00  0.00    +0.000 A 
ATOM     24  C   UNL     1       2.653   5.316  18.511  0.00  0.00    +0.000 A 
ATOM     25  C   UNL     1       3.619   6.283  18.243  0.00  0.00    +0.000 A 
ATOM     26  C   UNL     1       4.963   5.926  18.360  0.00  0.00    +0.000 A 
ATOM     27  C   UNL     1       5.353   4.639  18.756  0.00  0.00    +0.000 A 
ATOM     28  C   UNL     1       4.376   3.650  19.004  0.00  0.00    +0.000 A 
BRANCH  23  30
ATOM     29  C   UNL     1       0.940   3.400  19.779  0.00  0.00    +0.000 C 
ATOM     30  O   UNL     1       2.039   3.035  18.939  0.00  0.00    +0.000 OA
ENDBRANCH  23  30
BRANCH  27  31
ATOM     31  O   UNL     1       6.722   4.537  18.809  0.00  0.00    +0.000 OA
ATOM     32  C   UNL     1       7.509   5.706  18.965  0.00  0.00    +0.000 C 
ENDBRANCH  27  31
BRANCH  28  33
ATOM     33  O   UNL     1       4.855   2.430  19.390  0.00  0.00    +0.000 OA
ATOM     34  C   UNL     1       4.630   1.928  20.694  0.00  0.00    +0.000 C 
ENDBRANCH  28  33
ENDBRANCH  22  25
ENDBRANCH  21  22
ENDBRANCH   1  21
TORSDOF 10
ENDMDL
MODEL 6
REMARK VINA RESULT:      -7.0      3.515     12.689
REMARK  Name = 
REMARK  13 active torsions:
REMARK  status: ('A' for Active; 'I' for Inactive)
REMARK    1  A    between atoms: C_1  and  O_2
REMARK    2  A    between atoms: O_2  and  C_3
REMARK    3  A    between atoms: C_5  and  C_6
REMARK    4  A    between atoms: C_6  and  O_7
REMARK    5  A    between atoms: O_7  and  C_8
REMARK    6  A    between atoms: C_11  and  C_12
REMARK    7  A    between atoms: N_14  and  N_15
REMARK    8  A    between atoms: C_16  and  C_17
REMARK    9  A    between atoms: C_22  and  O_23
REMARK   10  A    between atoms: C_27  and  O_28
REMARK   11  A    between atoms: O_28  and  C_29
REMARK   12  A    between atoms: C_30  and  O_31
REMARK   13  A    between atoms: O_31  and  C_32
REMARK                            x       y       z     vdW  Elec       q    Type
REMARK                         _______ _______ _______ _____ _____    ______ ____
ROOT
ATOM      1  C   UNL     1       3.159   5.345  18.913  0.00  0.00    +0.000 A 
ATOM      2  C   UNL     1       2.926   6.502  18.166  0.00  0.00    +0.000 A 
ATOM      3  C   UNL     1       2.237   7.577  18.730  0.00  0.00    +0.000 A 
ATOM      4  C   UNL     1       1.764   7.493  20.043  0.00  0.00    +0.000 A 
ATOM      5  C   UNL     1       1.923   6.300  20.762  0.00  0.00    +0.000 A 
ATOM      6  C   UNL     1       2.616   5.227  20.193  0.00  0.00    +0.000 A 
ENDROOT
BRANCH   4   7
ATOM      7  C   UNL     1       1.074   8.643  20.691  0.00  0.00    +0.000 C 
ATOM      8  O   UNL     1       0.890   8.623  21.904  0.00  0.00    +0.000 OA
ATOM      9  N   UNL     1       0.722   9.679  19.835  0.00  0.00    +0.000 N 
ATOM     10  H   UNL     1       1.023   9.687  18.868  0.00  0.00    +0.000 HD
BRANCH   9  11
ATOM     11  N   UNL     1       0.069  10.767  20.326  0.00  0.00    +0.000 NA
ATOM     12  C   UNL     1       0.812  11.779  20.642  0.00  0.00    +0.000 C 
BRANCH  12  13
ATOM     13  C   UNL     1       0.220  13.012  21.197  0.00  0.00    +0.000 A 
ATOM     14  C   UNL     1       0.340  14.213  20.486  0.00  0.00    +0.000 A 
ATOM     15  C   UNL     1      -0.232  15.386  20.984  0.00  0.00    +0.000 A 
ATOM     16  C   UNL     1      -0.927  15.359  22.193  0.00  0.00    +0.000 A 
ATOM     17  C   UNL     1      -1.051  14.164  22.907  0.00  0.00    +0.000 A 
ATOM     18  C   UNL     1      -0.481  12.991  22.407  0.00  0.00    +0.000 A 
BRANCH  18  19
ATOM     19  O   UNL     1      -0.614  11.822  23.102  0.00  0.00    +0.000 OA
ATOM     20  H   UNL     1       0.208  11.656  23.593  0.00  0.00    +0.000 HD
ENDBRANCH  18  19
ENDBRANCH  12  13
ENDBRANCH   9  11
ENDBRANCH   4   7
BRANCH   1  21
ATOM     21  O   UNL     1       3.905   4.282  18.479  0.00  0.00    +0.000 OA
BRANCH  21  22
ATOM     22  C   UNL     1       3.723   3.979  17.092  0.00  0.00    +0.000 C 
BRANCH  22  25
ATOM     23  C   UNL     1       6.259   4.068  14.235  0.00  0.00    +0.000 A 
ATOM     24  C   UNL     1       5.211   3.643  15.070  0.00  0.00    +0.000 A 
ATOM     25  C   UNL     1       4.961   4.272  16.287  0.00  0.00    +0.000 A 
ATOM     26  C   UNL     1       5.823   5.290  16.694  0.00  0.00    +0.000 A 
ATOM     27  C   UNL     1       6.931   5.671  15.924  0.00  0.00    +0.000 A 
ATOM     28  C   UNL     1       7.172   5.052  14.678  0.00  0.00    +0.000 A 
BRANCH  23  30
ATOM     29  C   UNL     1       5.167   3.413  12.244  0.00  0.00    +0.000 C 
ATOM     30  O   UNL     1       6.388   3.520  12.981  0.00  0.00    +0.000 OA
ENDBRANCH  23  30
BRANCH  27  31
ATOM     31  O   UNL     1       7.630   6.681  16.540  0.00  0.00    +0.000 OA
ATOM     32  C   UNL     1       7.605   6.794  17.952  0.00  0.00    +0.000 C 
ENDBRANCH  27  31
BRANCH  28  33
ATOM     33  O   UNL     1       8.278   5.489  14.005  0.00  0.00    +0.000 OA
ATOM     34  C   UNL     1       8.232   5.784  12.622  0.00  0.00    +0.000 C 
ENDBRANCH  28  33
ENDBRANCH  22  25
ENDBRANCH  21  22
ENDBRANCH   1  21
TORSDOF 10
ENDMDL
MODEL 7
REMARK VINA RESULT:      -6.9      2.788     12.166
REMARK  Name = 
REMARK  13 active torsions:
REMARK  status: ('A' for Active; 'I' for Inactive)
REMARK    1  A    between atoms: C_1  and  O_2
REMARK    2  A    between atoms: O_2  and  C_3
REMARK    3  A    between atoms: C_5  and  C_6
REMARK    4  A    between atoms: C_6  and  O_7
REMARK    5  A    between atoms: O_7  and  C_8
REMARK    6  A    between atoms: C_11  and  C_12
REMARK    7  A    between atoms: N_14  and  N_15
REMARK    8  A    between atoms: C_16  and  C_17
REMARK    9  A    between atoms: C_22  and  O_23
REMARK   10  A    between atoms: C_27  and  O_28
REMARK   11  A    between atoms: O_28  and  C_29
REMARK   12  A    between atoms: C_30  and  O_31
REMARK   13  A    between atoms: O_31  and  C_32
REMARK                            x       y       z     vdW  Elec       q    Type
REMARK                         _______ _______ _______ _____ _____    ______ ____
ROOT
ATOM      1  C   UNL     1       0.394   8.722  21.413  0.00  0.00    +0.000 A 
ATOM      2  C   UNL     1       0.205   9.718  20.452  0.00  0.00    +0.000 A 
ATOM      3  C   UNL     1      -0.298  10.966  20.822  0.00  0.00    +0.000 A 
ATOM      4  C   UNL     1      -0.629  11.219  22.157  0.00  0.00    +0.000 A 
ATOM      5  C   UNL     1      -0.520  10.192  23.105  0.00  0.00    +0.000 A 
ATOM      6  C   UNL     1      -0.012   8.945  22.729  0.00  0.00    +0.000 A 
ENDROOT
BRANCH   4   7
ATOM      7  C   UNL     1      -1.115  12.558  22.592  0.00  0.00    +0.000 C 
ATOM      8  O   UNL     1      -0.414  13.235  23.337  0.00  0.00    +0.000 OA
ATOM      9  N   UNL     1      -2.345  12.938  22.069  0.00  0.00    +0.000 N 
ATOM     10  H   UNL     1      -2.805  12.386  21.356  0.00  0.00    +0.000 HD
BRANCH   9  11
ATOM     11  N   UNL     1      -2.886  14.135  22.421  0.00  0.00    +0.000 NA
ATOM     12  C   UNL     1      -3.879  14.088  23.250  0.00  0.00    +0.000 C 
BRANCH  12  13
ATOM     13  C   UNL     1      -4.557  15.322  23.696  0.00  0.00    +0.000 A 
ATOM     14  C   UNL     1      -5.786  15.675  23.125  0.00  0.00    +0.000 A 
ATOM     15  C   UNL     1      -6.454  16.827  23.550  0.00  0.00    +0.000 A 
ATOM     16  C   UNL     1      -5.893  17.624  24.547  0.00  0.00    +0.000 A 
ATOM     17  C   UNL     1      -4.668  17.277  25.120  0.00  0.00    +0.000 A 
ATOM     18  C   UNL     1      -4.002  16.124  24.698  0.00  0.00    +0.000 A 
BRANCH  18  19
ATOM     19  O   UNL     1      -2.809  15.782  25.269  0.00  0.00    +0.000 OA
ATOM     20  H   UNL     1      -2.897  15.843  26.235  0.00  0.00    +0.000 HD
ENDBRANCH  18  19
ENDBRANCH  12  13
ENDBRANCH   9  11
ENDBRANCH   4   7
BRANCH   1  21
ATOM     21  O   UNL     1       0.970   7.505  21.162  0.00  0.00    +0.000 OA
BRANCH  21  22
ATOM     22  C   UNL     1       2.029   7.556  20.202  0.00  0.00    +0.000 C 
BRANCH  22  25
ATOM     23  C   UNL     1       3.295   4.874  17.792  0.00  0.00    +0.000 A 
ATOM     24  C   UNL     1       2.984   6.132  18.337  0.00  0.00    +0.000 A 
ATOM     25  C   UNL     1       2.197   6.246  19.480  0.00  0.00    +0.000 A 
ATOM     26  C   UNL     1       1.660   5.082  20.032  0.00  0.00    +0.000 A 
ATOM     27  C   UNL     1       1.878   3.823  19.454  0.00  0.00    +0.000 A 
ATOM     28  C   UNL     1       2.696   3.703  18.310  0.00  0.00    +0.000 A 
BRANCH  23  30
ATOM     29  C   UNL     1       5.542   4.547  17.140  0.00  0.00    +0.000 C 
ATOM     30  O   UNL     1       4.188   4.791  16.751  0.00  0.00    +0.000 OA
ENDBRANCH  23  30
BRANCH  27  31
ATOM     31  O   UNL     1       1.238   2.840  20.170  0.00  0.00    +0.000 OA
ATOM     32  C   UNL     1       1.390   2.783  21.578  0.00  0.00    +0.000 C 
ENDBRANCH  27  31
BRANCH  28  33
ATOM     33  O   UNL     1       2.843   2.436  17.819  0.00  0.00    +0.000 OA
ATOM     34  C   UNL     1       3.649   1.477  18.478  0.00  0.00    +0.000 C 
ENDBRANCH  28  33
ENDBRANCH  22  25
ENDBRANCH  21  22
ENDBRANCH   1  21
TORSDOF 10
ENDMDL
MODEL 8
REMARK VINA RESULT:      -6.9      2.892     12.089
REMARK  Name = 
REMARK  13 active torsions:
REMARK  status: ('A' for Active; 'I' for Inactive)
REMARK    1  A    between atoms: C_1  and  O_2
REMARK    2  A    between atoms: O_2  and  C_3
REMARK    3  A    between atoms: C_5  and  C_6
REMARK    4  A    between atoms: C_6  and  O_7
REMARK    5  A    between atoms: O_7  and  C_8
REMARK    6  A    between atoms: C_11  and  C_12
REMARK    7  A    between atoms: N_14  and  N_15
REMARK    8  A    between atoms: C_16  and  C_17
REMARK    9  A    between atoms: C_22  and  O_23
REMARK   10  A    between atoms: C_27  and  O_28
REMARK   11  A    between atoms: O_28  and  C_29
REMARK   12  A    between atoms: C_30  and  O_31
REMARK   13  A    between atoms: O_31  and  C_32
REMARK                            x       y       z     vdW  Elec       q    Type
REMARK                         _______ _______ _______ _____ _____    ______ ____
ROOT
ATOM      1  C   UNL     1       1.860   8.557  19.311  0.00  0.00    +0.000 A 
ATOM      2  C   UNL     1       1.237   9.763  18.980  0.00  0.00    +0.000 A 
ATOM      3  C   UNL     1       0.490  10.453  19.935  0.00  0.00    +0.000 A 
ATOM      4  C   UNL     1       0.350   9.932  21.225  0.00  0.00    +0.000 A 
ATOM      5  C   UNL     1       0.903   8.680  21.530  0.00  0.00    +0.000 A 
ATOM      6  C   UNL     1       1.654   7.995  20.570  0.00  0.00    +0.000 A 
ENDROOT
BRANCH   4   7
ATOM      7  C   UNL     1      -0.395  10.672  22.282  0.00  0.00    +0.000 C 
ATOM      8  O   UNL     1      -0.811  10.060  23.260  0.00  0.00    +0.000 OA
ATOM      9  N   UNL     1      -0.524  12.038  22.065  0.00  0.00    +0.000 N 
ATOM     10  H   UNL     1      -0.042  12.498  21.303  0.00  0.00    +0.000 HD
BRANCH   9  11
ATOM     11  N   UNL     1      -1.205  12.801  22.963  0.00  0.00    +0.000 NA
ATOM     12  C   UNL     1      -1.801  13.846  22.484  0.00  0.00    +0.000 C 
BRANCH  12  13
ATOM     13  C   UNL     1      -2.560  14.758  23.362  0.00  0.00    +0.000 A 
ATOM     14  C   UNL     1      -3.910  15.010  23.087  0.00  0.00    +0.000 A 
ATOM     15  C   UNL     1      -4.652  15.853  23.919  0.00  0.00    +0.000 A 
ATOM     16  C   UNL     1      -4.044  16.441  25.028  0.00  0.00    +0.000 A 
ATOM     17  C   UNL     1      -2.698  16.193  25.307  0.00  0.00    +0.000 A 
ATOM     18  C   UNL     1      -1.958  15.349  24.477  0.00  0.00    +0.000 A 
BRANCH  18  19
ATOM     19  O   UNL     1      -0.645  15.100  24.761  0.00  0.00    +0.000 OA
ATOM     20  H   UNL     1      -0.108  15.840  24.431  0.00  0.00    +0.000 HD
ENDBRANCH  18  19
ENDBRANCH  12  13
ENDBRANCH   9  11
ENDBRANCH   4   7
BRANCH   1  21
ATOM     21  O   UNL     1       2.689   7.860  18.472  0.00  0.00    +0.000 OA
BRANCH  21  22
ATOM     22  C   UNL     1       2.083   6.698  17.899  0.00  0.00    +0.000 C 
BRANCH  22  25
ATOM     23  C   UNL     1       4.924   4.243  18.612  0.00  0.00    +0.000 A 
ATOM     24  C   UNL     1       4.212   5.338  18.092  0.00  0.00    +0.000 A 
ATOM     25  C   UNL     1       2.833   5.441  18.255  0.00  0.00    +0.000 A 
ATOM     26  C   UNL     1       2.161   4.394  18.886  0.00  0.00    +0.000 A 
ATOM     27  C   UNL     1       2.834   3.248  19.331  0.00  0.00    +0.000 A 
ATOM     28  C   UNL     1       4.236   3.151  19.190  0.00  0.00    +0.000 A 
BRANCH  23  30
ATOM     29  C   UNL     1       6.921   5.394  19.133  0.00  0.00    +0.000 C 
ATOM     30  O   UNL     1       6.297   4.243  18.557  0.00  0.00    +0.000 OA
ENDBRANCH  23  30
BRANCH  27  31
ATOM     31  O   UNL     1       1.958   2.357  19.904  0.00  0.00    +0.000 OA
ATOM     32  C   UNL     1       1.323   2.685  21.128  0.00  0.00    +0.000 C 
ENDBRANCH  27  31
BRANCH  28  33
ATOM     33  O   UNL     1       4.799   1.994  19.649  0.00  0.00    +0.000 OA
ATOM     34  C   UNL     1       4.928   1.736  21.035  0.00  0.00    +0.000 C 
ENDBRANCH  28  33
ENDBRANCH  22  25
ENDBRANCH  21  22
ENDBRANCH   1  21
TORSDOF 10
ENDMDL
MODEL 9
REMARK VINA RESULT:      -6.9      2.929     12.436
REMARK  Name = 
REMARK  13 active torsions:
REMARK  status: ('A' for Active; 'I' for Inactive)
REMARK    1  A    between atoms: C_1  and  O_2
REMARK    2  A    between atoms: O_2  and  C_3
REMARK    3  A    between atoms: C_5  and  C_6
REMARK    4  A    between atoms: C_6  and  O_7
REMARK    5  A    between atoms: O_7  and  C_8
REMARK    6  A    between atoms: C_11  and  C_12
REMARK    7  A    between atoms: N_14  and  N_15
REMARK    8  A    between atoms: C_16  and  C_17
REMARK    9  A    between atoms: C_22  and  O_23
REMARK   10  A    between atoms: C_27  and  O_28
REMARK   11  A    between atoms: O_28  and  C_29
REMARK   12  A    between atoms: C_30  and  O_31
REMARK   13  A    between atoms: O_31  and  C_32
REMARK                            x       y       z     vdW  Elec       q    Type
REMARK                         _______ _______ _______ _____ _____    ______ ____
ROOT
ATOM      1  C   UNL     1       1.390   8.970  19.064  0.00  0.00    +0.000 A 
ATOM      2  C   UNL     1       0.722   9.462  17.940  0.00  0.00    +0.000 A 
ATOM      3  C   UNL     1      -0.366  10.323  18.090  0.00  0.00    +0.000 A 
ATOM      4  C   UNL     1      -0.800  10.687  19.368  0.00  0.00    +0.000 A 
ATOM      5  C   UNL     1      -0.182  10.124  20.495  0.00  0.00    +0.000 A 
ATOM      6  C   UNL     1       0.909   9.264  20.339  0.00  0.00    +0.000 A 
ENDROOT
BRANCH   4   7
ATOM      7  C   UNL     1      -1.921  11.647  19.560  0.00  0.00    +0.000 C 
ATOM      8  O   UNL     1      -2.702  11.846  18.635  0.00  0.00    +0.000 OA
ATOM      9  N   UNL     1      -1.995  12.223  20.822  0.00  0.00    +0.000 N 
ATOM     10  H   UNL     1      -1.397  11.913  21.578  0.00  0.00    +0.000 HD
BRANCH   9  11
ATOM     11  N   UNL     1      -2.973  13.130  21.093  0.00  0.00    +0.000 NA
ATOM     12  C   UNL     1      -3.994  12.685  21.753  0.00  0.00    +0.000 C 
BRANCH  12  13
ATOM     13  C   UNL     1      -5.125  13.571  22.094  0.00  0.00    +0.000 A 
ATOM     14  C   UNL     1      -5.576  13.628  23.419  0.00  0.00    +0.000 A 
ATOM     15  C   UNL     1      -6.631  14.477  23.766  0.00  0.00    +0.000 A 
ATOM     16  C   UNL     1      -7.231  15.270  22.789  0.00  0.00    +0.000 A 
ATOM     17  C   UNL     1      -6.785  15.217  21.466  0.00  0.00    +0.000 A 
ATOM     18  C   UNL     1      -5.730  14.371  21.120  0.00  0.00    +0.000 A 
BRANCH  18  19
ATOM     19  O   UNL     1      -5.288  14.331  19.827  0.00  0.00    +0.000 OA
ATOM     20  H   UNL     1      -5.347  13.415  19.506  0.00  0.00    +0.000 HD
ENDBRANCH  18  19
ENDBRANCH  12  13
ENDBRANCH   9  11
ENDBRANCH   4   7
BRANCH   1  21
ATOM     21  O   UNL     1       2.522   8.199  19.014  0.00  0.00    +0.000 OA
BRANCH  21  22
ATOM     22  C   UNL     1       2.259   6.796  18.932  0.00  0.00    +0.000 C 
BRANCH  22  25
ATOM     23  C   UNL     1       5.365   6.058  16.832  0.00  0.00    +0.000 A 
ATOM     24  C   UNL     1       4.331   6.760  17.475  0.00  0.00    +0.000 A 
ATOM     25  C   UNL     1       3.260   6.087  18.058  0.00  0.00    +0.000 A 
ATOM     26  C   UNL     1       3.199   4.700  17.925  0.00  0.00    +0.000 A 
ATOM     27  C   UNL     1       4.168   3.984  17.210  0.00  0.00    +0.000 A 
ATOM     28  C   UNL     1       5.269   4.660  16.639  0.00  0.00    +0.000 A 
BRANCH  23  30
ATOM     29  C   UNL     1       7.279   7.307  17.431  0.00  0.00    +0.000 C 
ATOM     30  O   UNL     1       6.474   6.741  16.393  0.00  0.00    +0.000 OA
ENDBRANCH  23  30
BRANCH  27  31
ATOM     31  O   UNL     1       3.884   2.639  17.211  0.00  0.00    +0.000 OA
ATOM     32  C   UNL     1       3.228   2.061  18.327  0.00  0.00    +0.000 C 
ENDBRANCH  27  31
BRANCH  28  33
ATOM     33  O   UNL     1       6.156   3.876  15.957  0.00  0.00    +0.000 OA
ATOM     34  C   UNL     1       6.239   3.913  14.545  0.00  0.00    +0.000 C 
ENDBRANCH  28  33
ENDBRANCH  22  25
ENDBRANCH  21  22
ENDBRANCH   1  21
TORSDOF 10
ENDMDL
