MODEL 1
REMARK VINA RESULT:      -9.0      0.000      0.000
REMARK  Name = 
REMARK  8 active torsions:
REMARK  status: ('A' for Active; 'I' for Inactive)
REMARK    1  A    between atoms: C_1  and  C_2
REMARK    2  A    between atoms: C_9  and  C_10
REMARK    3  A    between atoms: C_13  and  S_14
REMARK    4  A    between atoms: S_14  and  C_15
REMARK    5  A    between atoms: C_15  and  C_16
REMARK    6  A    between atoms: N_18  and  C_19
REMARK    7  A    between atoms: C_25  and  C_26
REMARK    8  A    between atoms: N_27  and  C_28
REMARK                            x       y       z     vdW  Elec       q    Type
REMARK                         _______ _______ _______ _____ _____    ______ ____
ROOT
ATOM      1  C   UNL     1       4.556   4.209  16.979  0.00  0.00    +0.000 A 
ATOM      2  N   UNL     1       3.404   3.891  16.409  0.00  0.00    +0.000 NA
ATOM      3  N   UNL     1       2.624   3.263  17.354  0.00  0.00    +0.000 NA
ATOM      4  C   UNL     1       3.300   3.245  18.483  0.00  0.00    +0.000 A 
ATOM      5  N   UNL     1       4.502   3.865  18.313  0.00  0.00    +0.000 N 
ATOM      6  C   UNL     1       5.531   4.106  19.297  0.00  0.00    +0.000 C 
ENDROOT
BRANCH   1  15
ATOM      7  C   UNL     1       4.794   3.166  11.664  0.00  0.00    +0.000 C 
ATOM      8  C   UNL     1       5.831   3.641  12.647  0.00  0.00    +0.000 C 
ATOM      9  O   UNL     1       7.013   3.719  12.311  0.00  0.00    +0.000 OA
ATOM     10  N   UNL     1       5.310   3.961  13.884  0.00  0.00    +0.000 N 
ATOM     11  C   UNL     1       6.047   4.613  14.866  0.00  0.00    +0.000 A 
ATOM     12  N   UNL     1       7.213   5.229  14.647  0.00  0.00    +0.000 NA
ATOM     13  O   UNL     1       7.588   5.783  15.858  0.00  0.00    +0.000 OA
ATOM     14  N   UNL     1       6.650   5.515  16.840  0.00  0.00    +0.000 NA
ATOM     15  C   UNL     1       5.713   4.784  16.235  0.00  0.00    +0.000 A 
ATOM     16  H   UNL     1       4.375   3.659  14.139  0.00  0.00    +0.000 HD
ENDBRANCH   1  15
BRANCH   4  17
ATOM     17  S   UNL     1       2.733   2.592  19.978  0.00  0.00    +0.000 S 
BRANCH  17  18
ATOM     18  C   UNL     1       2.816   4.043  21.069  0.00  0.00    +0.000 C 
BRANCH  18  19
ATOM     19  C   UNL     1       1.916   5.171  20.585  0.00  0.00    +0.000 C 
ATOM     20  O   UNL     1       0.743   4.991  20.265  0.00  0.00    +0.000 OA
ATOM     21  N   UNL     1       2.566   6.399  20.514  0.00  0.00    +0.000 N 
ATOM     22  H   UNL     1       3.577   6.376  20.451  0.00  0.00    +0.000 HD
BRANCH  21  23
ATOM     23  C   UNL     1       1.934   7.588  20.087  0.00  0.00    +0.000 A 
ATOM     24  C   UNL     1       1.107   8.316  20.953  0.00  0.00    +0.000 A 
ATOM     25  C   UNL     1       0.504   9.495  20.518  0.00  0.00    +0.000 A 
ATOM     26 CL   UNL     1      -0.495  10.399  21.590  0.00  0.00    +0.000 Cl
ATOM     27  C   UNL     1       0.708   9.953  19.218  0.00  0.00    +0.000 A 
ATOM     28  C   UNL     1       1.530   9.234  18.353  0.00  0.00    +0.000 A 
ATOM     29  C   UNL     1       2.155   8.050  18.775  0.00  0.00    +0.000 A 
ATOM     30  C   UNL     1       2.978   7.267  17.790  0.00  0.00    +0.000 C 
ENDBRANCH  21  23
ENDBRANCH  18  19
ENDBRANCH  17  18
ENDBRANCH   4  17
TORSDOF 5
ENDMDL
MODEL 2
REMARK VINA RESULT:      -8.5      1.045      1.097
REMARK  Name = 
REMARK  8 active torsions:
REMARK  status: ('A' for Active; 'I' for Inactive)
REMARK    1  A    between atoms: C_1  and  C_2
REMARK    2  A    between atoms: C_9  and  C_10
REMARK    3  A    between atoms: C_13  and  S_14
REMARK    4  A    between atoms: S_14  and  C_15
REMARK    5  A    between atoms: C_15  and  C_16
REMARK    6  A    between atoms: N_18  and  C_19
REMARK    7  A    between atoms: C_25  and  C_26
REMARK    8  A    between atoms: N_27  and  C_28
REMARK                            x       y       z     vdW  Elec       q    Type
REMARK                         _______ _______ _______ _____ _____    ______ ____
ROOT
ATOM      1  C   UNL     1       5.594   4.357  16.578  0.00  0.00    +0.000 A 
ATOM      2  N   UNL     1       4.494   3.674  16.307  0.00  0.00    +0.000 NA
ATOM      3  N   UNL     1       3.980   3.211  17.497  0.00  0.00    +0.000 NA
ATOM      4  C   UNL     1       4.754   3.651  18.466  0.00  0.00    +0.000 A 
ATOM      5  N   UNL     1       5.758   4.412  17.946  0.00  0.00    +0.000 N 
ATOM      6  C   UNL     1       6.800   5.120  18.652  0.00  0.00    +0.000 C 
ENDROOT
BRANCH   1  15
ATOM      7  C   UNL     1       4.770   2.641  11.502  0.00  0.00    +0.000 C 
ATOM      8  C   UNL     1       5.949   3.305  12.165  0.00  0.00    +0.000 C 
ATOM      9  O   UNL     1       7.018   3.412  11.563  0.00  0.00    +0.000 OA
ATOM     10  N   UNL     1       5.681   3.752  13.442  0.00  0.00    +0.000 N 
ATOM     11  C   UNL     1       6.551   4.572  14.151  0.00  0.00    +0.000 A 
ATOM     12  N   UNL     1       7.581   5.226  13.605  0.00  0.00    +0.000 NA
ATOM     13  O   UNL     1       8.157   5.957  14.630  0.00  0.00    +0.000 OA
ATOM     14  N   UNL     1       7.482   5.762  15.822  0.00  0.00    +0.000 NA
ATOM     15  C   UNL     1       6.506   4.901  15.532  0.00  0.00    +0.000 A 
ATOM     16  H   UNL     1       4.854   3.428  13.934  0.00  0.00    +0.000 HD
ENDBRANCH   1  15
BRANCH   4  17
ATOM     17  S   UNL     1       4.508   3.365  20.152  0.00  0.00    +0.000 S 
BRANCH  17  18
ATOM     18  C   UNL     1       2.709   3.117  20.224  0.00  0.00    +0.000 C 
BRANCH  18  19
ATOM     19  C   UNL     1       1.945   4.389  19.884  0.00  0.00    +0.000 C 
ATOM     20  O   UNL     1       0.893   4.379  19.249  0.00  0.00    +0.000 OA
ATOM     21  N   UNL     1       2.576   5.544  20.335  0.00  0.00    +0.000 N 
ATOM     22  H   UNL     1       3.570   5.479  20.517  0.00  0.00    +0.000 HD
BRANCH  21  23
ATOM     23  C   UNL     1       2.055   6.842  20.131  0.00  0.00    +0.000 A 
ATOM     24  C   UNL     1       1.240   7.451  21.093  0.00  0.00    +0.000 A 
ATOM     25  C   UNL     1       0.748   8.738  20.879  0.00  0.00    +0.000 A 
ATOM     26 CL   UNL     1      -0.236   9.493  22.073  0.00  0.00    +0.000 Cl
ATOM     27  C   UNL     1       1.053   9.423  19.706  0.00  0.00    +0.000 A 
ATOM     28  C   UNL     1       1.864   8.823  18.746  0.00  0.00    +0.000 A 
ATOM     29  C   UNL     1       2.378   7.532  18.946  0.00  0.00    +0.000 A 
ATOM     30  C   UNL     1       3.191   6.892  17.854  0.00  0.00    +0.000 C 
ENDBRANCH  21  23
ENDBRANCH  18  19
ENDBRANCH  17  18
ENDBRANCH   4  17
TORSDOF 5
ENDMDL
MODEL 3
REMARK VINA RESULT:      -7.9      1.296      1.625
REMARK  Name = 
REMARK  8 active torsions:
REMARK  status: ('A' for Active; 'I' for Inactive)
REMARK    1  A    between atoms: C_1  and  C_2
REMARK    2  A    between atoms: C_9  and  C_10
REMARK    3  A    between atoms: C_13  and  S_14
REMARK    4  A    between atoms: S_14  and  C_15
REMARK    5  A    between atoms: C_15  and  C_16
REMARK    6  A    between atoms: N_18  and  C_19
REMARK    7  A    between atoms: C_25  and  C_26
REMARK    8  A    between atoms: N_27  and  C_28
REMARK                            x       y       z     vdW  Elec       q    Type
REMARK                         _______ _______ _______ _____ _____    ______ ____
ROOT
ATOM      1  C   UNL     1       5.789   4.816  16.083  0.00  0.00    +0.000 A 
ATOM      2  N   UNL     1       4.717   4.042  16.050  0.00  0.00    +0.000 NA
ATOM      3  N   UNL     1       4.197   3.986  17.323  0.00  0.00    +0.000 NA
ATOM      4  C   UNL     1       4.938   4.755  18.093  0.00  0.00    +0.000 A 
ATOM      5  N   UNL     1       5.926   5.333  17.353  0.00  0.00    +0.000 N 
ATOM      6  C   UNL     1       6.932   6.276  17.786  0.00  0.00    +0.000 C 
ENDROOT
BRANCH   1  15
ATOM      7  C   UNL     1       4.223   2.642  11.370  0.00  0.00    +0.000 C 
ATOM      8  C   UNL     1       5.561   3.127  11.863  0.00  0.00    +0.000 C 
ATOM      9  O   UNL     1       6.577   2.925  11.196  0.00  0.00    +0.000 OA
ATOM     10  N   UNL     1       5.495   3.789  13.072  0.00  0.00    +0.000 N 
ATOM     11  C   UNL     1       6.567   4.496  13.603  0.00  0.00    +0.000 A 
ATOM     12  N   UNL     1       7.659   4.839  12.913  0.00  0.00    +0.000 NA
ATOM     13  O   UNL     1       8.451   5.564  13.785  0.00  0.00    +0.000 OA
ATOM     14  N   UNL     1       7.852   5.678  15.026  0.00  0.00    +0.000 NA
ATOM     15  C   UNL     1       6.703   5.010  14.920  0.00  0.00    +0.000 A 
ATOM     16  H   UNL     1       4.663   3.715  13.650  0.00  0.00    +0.000 HD
ENDBRANCH   1  15
BRANCH   4  17
ATOM     17  S   UNL     1       4.670   5.043  19.774  0.00  0.00    +0.000 S 
BRANCH  17  18
ATOM     18  C   UNL     1       3.008   4.347  20.007  0.00  0.00    +0.000 C 
BRANCH  18  19
ATOM     19  C   UNL     1       1.970   5.429  20.271  0.00  0.00    +0.000 C 
ATOM     20  O   UNL     1       0.805   5.171  20.567  0.00  0.00    +0.000 OA
ATOM     21  N   UNL     1       2.469   6.718  20.110  0.00  0.00    +0.000 N 
ATOM     22  H   UNL     1       3.299   6.817  19.538  0.00  0.00    +0.000 HD
BRANCH  21  23
ATOM     23  C   UNL     1       1.688   7.880  20.297  0.00  0.00    +0.000 A 
ATOM     24  C   UNL     1       1.120   8.174  21.543  0.00  0.00    +0.000 A 
ATOM     25  C   UNL     1       0.365   9.335  21.711  0.00  0.00    +0.000 A 
ATOM     26 CL   UNL     1      -0.315   9.705  23.249  0.00  0.00    +0.000 Cl
ATOM     27  C   UNL     1       0.160  10.203  20.642  0.00  0.00    +0.000 A 
ATOM     28  C   UNL     1       0.724   9.916  19.400  0.00  0.00    +0.000 A 
ATOM     29  C   UNL     1       1.496   8.759  19.213  0.00  0.00    +0.000 A 
ATOM     30  C   UNL     1       2.028   8.450  17.841  0.00  0.00    +0.000 C 
ENDBRANCH  21  23
ENDBRANCH  18  19
ENDBRANCH  17  18
ENDBRANCH   4  17
TORSDOF 5
ENDMDL
MODEL 4
REMARK VINA RESULT:      -7.9      4.322      8.073
REMARK  Name = 
REMARK  8 active torsions:
REMARK  status: ('A' for Active; 'I' for Inactive)
REMARK    1  A    between atoms: C_1  and  C_2
REMARK    2  A    between atoms: C_9  and  C_10
REMARK    3  A    between atoms: C_13  and  S_14
REMARK    4  A    between atoms: S_14  and  C_15
REMARK    5  A    between atoms: C_15  and  C_16
REMARK    6  A    between atoms: N_18  and  C_19
REMARK    7  A    between atoms: C_25  and  C_26
REMARK    8  A    between atoms: N_27  and  C_28
REMARK                            x       y       z     vdW  Elec       q    Type
REMARK                         _______ _______ _______ _____ _____    ______ ____
ROOT
ATOM      1  C   UNL     1       1.546   8.963  18.815  0.00  0.00    +0.000 A 
ATOM      2  N   UNL     1       2.166   8.759  17.664  0.00  0.00    +0.000 NA
ATOM      3  N   UNL     1       2.934   7.623  17.793  0.00  0.00    +0.000 NA
ATOM      4  C   UNL     1       2.737   7.142  19.003  0.00  0.00    +0.000 A 
ATOM      5  N   UNL     1       1.840   7.923  19.670  0.00  0.00    +0.000 N 
ATOM      6  C   UNL     1       1.309   7.736  21.000  0.00  0.00    +0.000 C 
ENDROOT
BRANCH   1  15
ATOM      7  C   UNL     1      -2.960   9.618  15.873  0.00  0.00    +0.000 C 
ATOM      8  C   UNL     1      -2.154  10.575  16.711  0.00  0.00    +0.000 C 
ATOM      9  O   UNL     1      -2.409  11.780  16.694  0.00  0.00    +0.000 OA
ATOM     10  N   UNL     1      -1.168   9.959  17.453  0.00  0.00    +0.000 N 
ATOM     11  C   UNL     1      -0.451  10.616  18.447  0.00  0.00    +0.000 A 
ATOM     12  N   UNL     1      -0.800  11.794  18.971  0.00  0.00    +0.000 NA
ATOM     13  O   UNL     1       0.140  12.072  19.949  0.00  0.00    +0.000 OA
ATOM     14  N   UNL     1       1.080  11.061  20.038  0.00  0.00    +0.000 NA
ATOM     15  C   UNL     1       0.726  10.174  19.106  0.00  0.00    +0.000 A 
ATOM     16  H   UNL     1      -0.887   9.006  17.239  0.00  0.00    +0.000 HD
ENDBRANCH   1  15
BRANCH   4  17
ATOM     17  S   UNL     1       3.453   5.704  19.636  0.00  0.00    +0.000 S 
BRANCH  17  18
ATOM     18  C   UNL     1       2.784   4.436  18.519  0.00  0.00    +0.000 C 
BRANCH  18  19
ATOM     19  C   UNL     1       3.812   3.982  17.493  0.00  0.00    +0.000 C 
ATOM     20  O   UNL     1       4.180   2.814  17.397  0.00  0.00    +0.000 OA
ATOM     21  N   UNL     1       4.303   5.024  16.711  0.00  0.00    +0.000 N 
ATOM     22  H   UNL     1       4.215   5.959  17.092  0.00  0.00    +0.000 HD
BRANCH  21  23
ATOM     23  C   UNL     1       5.270   4.843  15.697  0.00  0.00    +0.000 A 
ATOM     24  C   UNL     1       4.953   4.165  14.513  0.00  0.00    +0.000 A 
ATOM     25  C   UNL     1       5.917   4.010  13.517  0.00  0.00    +0.000 A 
ATOM     26 CL   UNL     1       5.520   3.194  12.054  0.00  0.00    +0.000 Cl
ATOM     27  C   UNL     1       7.202   4.516  13.695  0.00  0.00    +0.000 A 
ATOM     28  C   UNL     1       7.522   5.193  14.870  0.00  0.00    +0.000 A 
ATOM     29  C   UNL     1       6.564   5.369  15.880  0.00  0.00    +0.000 A 
ATOM     30  C   UNL     1       6.969   6.043  17.162  0.00  0.00    +0.000 C 
ENDBRANCH  21  23
ENDBRANCH  18  19
ENDBRANCH  17  18
ENDBRANCH   4  17
TORSDOF 5
ENDMDL
MODEL 5
REMARK VINA RESULT:      -7.8      1.324      2.550
REMARK  Name = 
REMARK  8 active torsions:
REMARK  status: ('A' for Active; 'I' for Inactive)
REMARK    1  A    between atoms: C_1  and  C_2
REMARK    2  A    between atoms: C_9  and  C_10
REMARK    3  A    between atoms: C_13  and  S_14
REMARK    4  A    between atoms: S_14  and  C_15
REMARK    5  A    between atoms: C_15  and  C_16
REMARK    6  A    between atoms: N_18  and  C_19
REMARK    7  A    between atoms: C_25  and  C_26
REMARK    8  A    between atoms: N_27  and  C_28
REMARK                            x       y       z     vdW  Elec       q    Type
REMARK                         _______ _______ _______ _____ _____    ______ ____
ROOT
ATOM      1  C   UNL     1       3.879   3.672  17.028  0.00  0.00    +0.000 A 
ATOM      2  N   UNL     1       2.604   3.591  16.685  0.00  0.00    +0.000 NA
ATOM      3  N   UNL     1       1.899   3.144  17.781  0.00  0.00    +0.000 NA
ATOM      4  C   UNL     1       2.752   3.000  18.773  0.00  0.00    +0.000 A 
ATOM      5  N   UNL     1       4.002   3.359  18.365  0.00  0.00    +0.000 N 
ATOM      6  C   UNL     1       5.219   3.394  19.140  0.00  0.00    +0.000 C 
ENDROOT
BRANCH   1  15
ATOM      7  C   UNL     1       7.880   6.841  18.855  0.00  0.00    +0.000 C 
ATOM      8  C   UNL     1       7.443   6.470  17.462  0.00  0.00    +0.000 C 
ATOM      9  O   UNL     1       7.941   7.031  16.486  0.00  0.00    +0.000 OA
ATOM     10  N   UNL     1       6.483   5.479  17.434  0.00  0.00    +0.000 N 
ATOM     11  C   UNL     1       6.093   4.841  16.262  0.00  0.00    +0.000 A 
ATOM     12  N   UNL     1       6.764   4.911  15.108  0.00  0.00    +0.000 NA
ATOM     13  O   UNL     1       6.077   4.107  14.216  0.00  0.00    +0.000 OA
ATOM     14  N   UNL     1       4.971   3.530  14.815  0.00  0.00    +0.000 NA
ATOM     15  C   UNL     1       4.973   3.991  16.066  0.00  0.00    +0.000 A 
ATOM     16  H   UNL     1       5.976   5.234  18.279  0.00  0.00    +0.000 HD
ENDBRANCH   1  15
BRANCH   4  17
ATOM     17  S   UNL     1       2.347   2.492  20.373  0.00  0.00    +0.000 S 
BRANCH  17  18
ATOM     18  C   UNL     1       2.531   4.039  21.309  0.00  0.00    +0.000 C 
BRANCH  18  19
ATOM     19  C   UNL     1       1.755   5.184  20.673  0.00  0.00    +0.000 C 
ATOM     20  O   UNL     1       0.593   5.064  20.291  0.00  0.00    +0.000 OA
ATOM     21  N   UNL     1       2.505   6.349  20.546  0.00  0.00    +0.000 N 
ATOM     22  H   UNL     1       3.512   6.246  20.553  0.00  0.00    +0.000 HD
BRANCH  21  23
ATOM     23  C   UNL     1       1.996   7.540  19.980  0.00  0.00    +0.000 A 
ATOM     24  C   UNL     1       1.155   8.385  20.716  0.00  0.00    +0.000 A 
ATOM     25  C   UNL     1       0.675   9.564  20.145  0.00  0.00    +0.000 A 
ATOM     26 CL   UNL     1      -0.341  10.611  21.057  0.00  0.00    +0.000 Cl
ATOM     27  C   UNL     1       1.018   9.904  18.838  0.00  0.00    +0.000 A 
ATOM     28  C   UNL     1       1.856   9.069  18.103  0.00  0.00    +0.000 A 
ATOM     29  C   UNL     1       2.358   7.883  18.663  0.00  0.00    +0.000 A 
ATOM     30  C   UNL     1       3.201   6.973  17.812  0.00  0.00    +0.000 C 
ENDBRANCH  21  23
ENDBRANCH  18  19
ENDBRANCH  17  18
ENDBRANCH   4  17
TORSDOF 5
ENDMDL
MODEL 6
REMARK VINA RESULT:      -7.8      4.239      6.158
REMARK  Name = 
REMARK  8 active torsions:
REMARK  status: ('A' for Active; 'I' for Inactive)
REMARK    1  A    between atoms: C_1  and  C_2
REMARK    2  A    between atoms: C_9  and  C_10
REMARK    3  A    between atoms: C_13  and  S_14
REMARK    4  A    between atoms: S_14  and  C_15
REMARK    5  A    between atoms: C_15  and  C_16
REMARK    6  A    between atoms: N_18  and  C_19
REMARK    7  A    between atoms: C_25  and  C_26
REMARK    8  A    between atoms: N_27  and  C_28
REMARK                            x       y       z     vdW  Elec       q    Type
REMARK                         _______ _______ _______ _____ _____    ______ ____
ROOT
ATOM      1  C   UNL     1       2.433   7.499  18.363  0.00  0.00    +0.000 A 
ATOM      2  N   UNL     1       2.370   8.517  17.520  0.00  0.00    +0.000 NA
ATOM      3  N   UNL     1       1.720   9.551  18.156  0.00  0.00    +0.000 NA
ATOM      4  C   UNL     1       1.437   9.155  19.378  0.00  0.00    +0.000 A 
ATOM      5  N   UNL     1       1.902   7.888  19.573  0.00  0.00    +0.000 N 
ATOM      6  C   UNL     1       1.845   7.091  20.776  0.00  0.00    +0.000 C 
ENDROOT
BRANCH   1  15
ATOM      7  C   UNL     1       7.795   7.035  17.706  0.00  0.00    +0.000 C 
ATOM      8  C   UNL     1       6.645   6.169  17.264  0.00  0.00    +0.000 C 
ATOM      9  O   UNL     1       6.841   5.221  16.502  0.00  0.00    +0.000 OA
ATOM     10  N   UNL     1       5.432   6.550  17.800  0.00  0.00    +0.000 N 
ATOM     11  C   UNL     1       4.285   5.772  17.696  0.00  0.00    +0.000 A 
ATOM     12  N   UNL     1       4.277   4.489  17.319  0.00  0.00    +0.000 NA
ATOM     13  O   UNL     1       2.958   4.077  17.391  0.00  0.00    +0.000 OA
ATOM     14  N   UNL     1       2.137   5.106  17.816  0.00  0.00    +0.000 NA
ATOM     15  C   UNL     1       2.948   6.150  17.989  0.00  0.00    +0.000 A 
ATOM     16  H   UNL     1       5.329   7.462  18.234  0.00  0.00    +0.000 HD
ENDBRANCH   1  15
BRANCH   4  17
ATOM     17  S   UNL     1       0.650  10.111  20.582  0.00  0.00    +0.000 S 
BRANCH  17  18
ATOM     18  C   UNL     1       0.809  11.782  19.888  0.00  0.00    +0.000 C 
BRANCH  18  19
ATOM     19  C   UNL     1      -0.303  12.094  18.895  0.00  0.00    +0.000 C 
ATOM     20  O   UNL     1      -0.362  13.156  18.280  0.00  0.00    +0.000 OA
ATOM     21  N   UNL     1      -1.244  11.075  18.789  0.00  0.00    +0.000 N 
ATOM     22  H   UNL     1      -1.305  10.429  19.566  0.00  0.00    +0.000 HD
BRANCH  21  23
ATOM     23  C   UNL     1      -2.367  11.142  17.934  0.00  0.00    +0.000 A 
ATOM     24  C   UNL     1      -2.306  10.650  16.624  0.00  0.00    +0.000 A 
ATOM     25  C   UNL     1      -3.430  10.713  15.800  0.00  0.00    +0.000 A 
ATOM     26 CL   UNL     1      -3.359  10.089  14.198  0.00  0.00    +0.000 Cl
ATOM     27  C   UNL     1      -4.616  11.274  16.268  0.00  0.00    +0.000 A 
ATOM     28  C   UNL     1      -4.683  11.764  17.571  0.00  0.00    +0.000 A 
ATOM     29  C   UNL     1      -3.566  11.701  18.419  0.00  0.00    +0.000 A 
ATOM     30  C   UNL     1      -3.658  12.304  19.794  0.00  0.00    +0.000 C 
ENDBRANCH  21  23
ENDBRANCH  18  19
ENDBRANCH  17  18
ENDBRANCH   4  17
TORSDOF 5
ENDMDL
MODEL 7
REMARK VINA RESULT:      -7.8      1.901      3.330
REMARK  Name = 
REMARK  8 active torsions:
REMARK  status: ('A' for Active; 'I' for Inactive)
REMARK    1  A    between atoms: C_1  and  C_2
REMARK    2  A    between atoms: C_9  and  C_10
REMARK    3  A    between atoms: C_13  and  S_14
REMARK    4  A    between atoms: S_14  and  C_15
REMARK    5  A    between atoms: C_15  and  C_16
REMARK    6  A    between atoms: N_18  and  C_19
REMARK    7  A    between atoms: C_25  and  C_26
REMARK    8  A    between atoms: N_27  and  C_28
REMARK                            x       y       z     vdW  Elec       q    Type
REMARK                         _______ _______ _______ _____ _____    ______ ____
ROOT
ATOM      1  C   UNL     1       5.859   4.375  18.300  0.00  0.00    +0.000 A 
ATOM      2  N   UNL     1       6.203   4.609  19.556  0.00  0.00    +0.000 NA
ATOM      3  N   UNL     1       5.262   4.019  20.369  0.00  0.00    +0.000 NA
ATOM      4  C   UNL     1       4.389   3.409  19.594  0.00  0.00    +0.000 A 
ATOM      5  N   UNL     1       4.743   3.567  18.287  0.00  0.00    +0.000 N 
ATOM      6  C   UNL     1       4.093   3.029  17.114  0.00  0.00    +0.000 C 
ENDROOT
BRANCH   1  15
ATOM      7  C   UNL     1       8.666   8.925  19.200  0.00  0.00    +0.000 C 
ATOM      8  C   UNL     1       8.151   8.290  17.935  0.00  0.00    +0.000 C 
ATOM      9  O   UNL     1       8.221   8.897  16.865  0.00  0.00    +0.000 OA
ATOM     10  N   UNL     1       7.638   7.024  18.126  0.00  0.00    +0.000 N 
ATOM     11  C   UNL     1       7.306   6.180  17.072  0.00  0.00    +0.000 A 
ATOM     12  N   UNL     1       7.682   6.374  15.805  0.00  0.00    +0.000 NA
ATOM     13  O   UNL     1       7.190   5.296  15.089  0.00  0.00    +0.000 OA
ATOM     14  N   UNL     1       6.505   4.422  15.914  0.00  0.00    +0.000 NA
ATOM     15  C   UNL     1       6.563   4.971  17.128  0.00  0.00    +0.000 A 
ATOM     16  H   UNL     1       7.420   6.696  19.062  0.00  0.00    +0.000 HD
ENDBRANCH   1  15
BRANCH   4  17
ATOM     17  S   UNL     1       3.032   2.493  20.143  0.00  0.00    +0.000 S 
BRANCH  17  18
ATOM     18  C   UNL     1       2.301   3.617  21.370  0.00  0.00    +0.000 C 
BRANCH  18  19
ATOM     19  C   UNL     1       1.619   4.810  20.713  0.00  0.00    +0.000 C 
ATOM     20  O   UNL     1       0.517   4.730  20.176  0.00  0.00    +0.000 OA
ATOM     21  N   UNL     1       2.384   5.972  20.759  0.00  0.00    +0.000 N 
ATOM     22  H   UNL     1       3.382   5.855  20.891  0.00  0.00    +0.000 HD
BRANCH  21  23
ATOM     23  C   UNL     1       1.959   7.202  20.210  0.00  0.00    +0.000 A 
ATOM     24  C   UNL     1       1.220   8.115  20.973  0.00  0.00    +0.000 A 
ATOM     25  C   UNL     1       0.822   9.331  20.418  0.00  0.00    +0.000 A 
ATOM     26 CL   UNL     1      -0.069  10.459  21.364  0.00  0.00    +0.000 Cl
ATOM     27  C   UNL     1       1.146   9.643  19.100  0.00  0.00    +0.000 A 
ATOM     28  C   UNL     1       1.883   8.739  18.337  0.00  0.00    +0.000 A 
ATOM     29  C   UNL     1       2.302   7.515  18.880  0.00  0.00    +0.000 A 
ATOM     30  C   UNL     1       3.034   6.538  18.002  0.00  0.00    +0.000 C 
ENDBRANCH  21  23
ENDBRANCH  18  19
ENDBRANCH  17  18
ENDBRANCH   4  17
TORSDOF 5
ENDMDL
MODEL 8
REMARK VINA RESULT:      -7.7      3.571      5.204
REMARK  Name = 
REMARK  8 active torsions:
REMARK  status: ('A' for Active; 'I' for Inactive)
REMARK    1  A    between atoms: C_1  and  C_2
REMARK    2  A    between atoms: C_9  and  C_10
REMARK    3  A    between atoms: C_13  and  S_14
REMARK    4  A    between atoms: S_14  and  C_15
REMARK    5  A    between atoms: C_15  and  C_16
REMARK    6  A    between atoms: N_18  and  C_19
REMARK    7  A    between atoms: C_25  and  C_26
REMARK    8  A    between atoms: N_27  and  C_28
REMARK                            x       y       z     vdW  Elec       q    Type
REMARK                         _______ _______ _______ _____ _____    ______ ____
ROOT
ATOM      1  C   UNL     1       3.020   5.655  18.817  0.00  0.00    +0.000 A 
ATOM      2  N   UNL     1       2.501   5.128  19.913  0.00  0.00    +0.000 NA
ATOM      3  N   UNL     1       1.859   6.132  20.602  0.00  0.00    +0.000 NA
ATOM      4  C   UNL     1       1.969   7.237  19.895  0.00  0.00    +0.000 A 
ATOM      5  N   UNL     1       2.653   6.982  18.743  0.00  0.00    +0.000 N 
ATOM      6  C   UNL     1       2.960   7.894  17.666  0.00  0.00    +0.000 C 
ENDROOT
BRANCH   1  15
ATOM      7  C   UNL     1       8.007   7.646  18.070  0.00  0.00    +0.000 C 
ATOM      8  C   UNL     1       7.181   6.669  17.275  0.00  0.00    +0.000 C 
ATOM      9  O   UNL     1       7.567   6.286  16.170  0.00  0.00    +0.000 OA
ATOM     10  N   UNL     1       6.021   6.284  17.915  0.00  0.00    +0.000 N 
ATOM     11  C   UNL     1       5.222   5.241  17.461  0.00  0.00    +0.000 A 
ATOM     12  N   UNL     1       5.604   4.342  16.549  0.00  0.00    +0.000 NA
ATOM     13  O   UNL     1       4.548   3.457  16.416  0.00  0.00    +0.000 OA
ATOM     14  N   UNL     1       3.500   3.803  17.251  0.00  0.00    +0.000 NA
ATOM     15  C   UNL     1       3.907   4.906  17.881  0.00  0.00    +0.000 A 
ATOM     16  H   UNL     1       5.676   6.812  18.711  0.00  0.00    +0.000 HD
ENDBRANCH   1  15
BRANCH   4  17
ATOM     17  S   UNL     1       1.297   8.769  20.322  0.00  0.00    +0.000 S 
BRANCH  17  18
ATOM     18  C   UNL     1       0.436   8.375  21.873  0.00  0.00    +0.000 C 
BRANCH  18  19
ATOM     19  C   UNL     1       0.040   9.629  22.639  0.00  0.00    +0.000 C 
ATOM     20  O   UNL     1       0.291   9.784  23.832  0.00  0.00    +0.000 OA
ATOM     21  N   UNL     1      -0.654  10.551  21.860  0.00  0.00    +0.000 N 
ATOM     22  H   UNL     1      -1.108  10.193  21.029  0.00  0.00    +0.000 HD
BRANCH  21  23
ATOM     23  C   UNL     1      -1.126  11.786  22.357  0.00  0.00    +0.000 A 
ATOM     24  C   UNL     1      -2.273  11.849  23.158  0.00  0.00    +0.000 A 
ATOM     25  C   UNL     1      -2.716  13.077  23.651  0.00  0.00    +0.000 A 
ATOM     26 CL   UNL     1      -4.114  13.149  24.653  0.00  0.00    +0.000 Cl
ATOM     27  C   UNL     1      -2.029  14.249  23.342  0.00  0.00    +0.000 A 
ATOM     28  C   UNL     1      -0.887  14.192  22.547  0.00  0.00    +0.000 A 
ATOM     29  C   UNL     1      -0.419  12.965  22.049  0.00  0.00    +0.000 A 
ATOM     30  C   UNL     1       0.776  12.955  21.137  0.00  0.00    +0.000 C 
ENDBRANCH  21  23
ENDBRANCH  18  19
ENDBRANCH  17  18
ENDBRANCH   4  17
TORSDOF 5
ENDMDL
MODEL 9
REMARK VINA RESULT:      -7.7      3.987      5.774
REMARK  Name = 
REMARK  8 active torsions:
REMARK  status: ('A' for Active; 'I' for Inactive)
REMARK    1  A    between atoms: C_1  and  C_2
REMARK    2  A    between atoms: C_9  and  C_10
REMARK    3  A    between atoms: C_13  and  S_14
REMARK    4  A    between atoms: S_14  and  C_15
REMARK    5  A    between atoms: C_15  and  C_16
REMARK    6  A    between atoms: N_18  and  C_19
REMARK    7  A    between atoms: C_25  and  C_26
REMARK    8  A    between atoms: N_27  and  C_28
REMARK                            x       y       z     vdW  Elec       q    Type
REMARK                         _______ _______ _______ _____ _____    ______ ____
ROOT
ATOM      1  C   UNL     1       2.374   6.169  18.624  0.00  0.00    +0.000 A 
ATOM      2  N   UNL     1       2.450   7.350  18.033  0.00  0.00    +0.000 NA
ATOM      3  N   UNL     1       2.114   8.309  18.963  0.00  0.00    +0.000 NA
ATOM      4  C   UNL     1       1.879   7.696  20.104  0.00  0.00    +0.000 A 
ATOM      5  N   UNL     1       2.071   6.355  19.956  0.00  0.00    +0.000 N 
ATOM      6  C   UNL     1       1.964   5.321  20.959  0.00  0.00    +0.000 C 
ENDROOT
BRANCH   1  15
ATOM      7  C   UNL     1       7.427   4.761  17.256  0.00  0.00    +0.000 C 
ATOM      8  C   UNL     1       6.082   4.290  16.770  0.00  0.00    +0.000 C 
ATOM      9  O   UNL     1       6.003   3.537  15.799  0.00  0.00    +0.000 OA
ATOM     10  N   UNL     1       5.028   4.776  17.516  0.00  0.00    +0.000 N 
ATOM     11  C   UNL     1       3.727   4.306  17.377  0.00  0.00    +0.000 A 
ATOM     12  N   UNL     1       3.397   3.185  16.729  0.00  0.00    +0.000 NA
ATOM     13  O   UNL     1       2.026   3.055  16.861  0.00  0.00    +0.000 OA
ATOM     14  N   UNL     1       1.495   4.099  17.598  0.00  0.00    +0.000 NA
ATOM     15  C   UNL     1       2.536   4.874  17.902  0.00  0.00    +0.000 A 
ATOM     16  H   UNL     1       5.168   5.556  18.151  0.00  0.00    +0.000 HD
ENDBRANCH   1  15
BRANCH   4  17
ATOM     17  S   UNL     1       1.453   8.472  21.587  0.00  0.00    +0.000 S 
BRANCH  17  18
ATOM     18  C   UNL     1       0.483   9.891  20.995  0.00  0.00    +0.000 C 
BRANCH  18  19
ATOM     19  C   UNL     1      -0.172  10.650  22.141  0.00  0.00    +0.000 C 
ATOM     20  O   UNL     1       0.032  10.372  23.320  0.00  0.00    +0.000 OA
ATOM     21  N   UNL     1      -1.036  11.652  21.711  0.00  0.00    +0.000 N 
ATOM     22  H   UNL     1      -1.399  11.567  20.769  0.00  0.00    +0.000 HD
BRANCH  21  23
ATOM     23  C   UNL     1      -1.760  12.484  22.594  0.00  0.00    +0.000 A 
ATOM     24  C   UNL     1      -2.936  12.033  23.207  0.00  0.00    +0.000 A 
ATOM     25  C   UNL     1      -3.628  12.864  24.088  0.00  0.00    +0.000 A 
ATOM     26 CL   UNL     1      -5.062  12.301  24.856  0.00  0.00    +0.000 Cl
ATOM     27  C   UNL     1      -3.164  14.149  24.356  0.00  0.00    +0.000 A 
ATOM     28  C   UNL     1      -1.994  14.602  23.751  0.00  0.00    +0.000 A 
ATOM     29  C   UNL     1      -1.276  13.778  22.869  0.00  0.00    +0.000 A 
ATOM     30  C   UNL     1      -0.058  14.329  22.182  0.00  0.00    +0.000 C 
ENDBRANCH  21  23
ENDBRANCH  18  19
ENDBRANCH  17  18
ENDBRANCH   4  17
TORSDOF 5
ENDMDL
