MODEL 1
REMARK VINA RESULT:      -6.7      0.000      0.000
REMARK  Name = 
REMARK  11 active torsions:
REMARK  status: ('A' for Active; 'I' for Inactive)
REMARK    1  A    between atoms: C_1  and  C_2
REMARK    2  A    between atoms: C_2  and  C_3
REMARK    3  A    between atoms: C_3  and  C_4
REMARK    4  A    between atoms: C_4  and  C_5
REMARK    5  A    between atoms: N_9  and  C_10
REMARK    6  A    between atoms: C_10  and  C_11
REMARK    7  A    between atoms: C_11  and  P_12
REMARK    8  A    between atoms: C_11  and  P_16
REMARK    9  A    between atoms: P_12  and  O_15
REMARK   10  A    between atoms: P_16  and  O_18
REMARK   11  A    between atoms: P_16  and  O_19
REMARK                            x       y       z     vdW  Elec       q    Type
REMARK                         _______ _______ _______ _____ _____    ______ ____
ROOT
ATOM      1  C   UNL     1       3.279   3.339  18.912  0.00  0.00    +0.000 C 
ENDROOT
BRANCH   1   2
ATOM      2  P   UNL     1       4.301   2.401  20.105  0.00  0.00    +0.000 P 
ATOM      3  O   UNL     1       3.168   2.410  21.134  0.00  0.00    +0.000 OA
ATOM      4  O   UNL     1       4.338   1.225  19.126  0.00  0.00    +0.000 OA
BRANCH   2   5
ATOM      5  O   UNL     1       5.269   1.514  21.232  0.00  0.00    +0.000 OA
ATOM      6  H   UNL     1       5.646   2.249  21.753  0.00  0.00    +0.000 HD
ENDBRANCH   2   5
ENDBRANCH   1   2
BRANCH   1   7
ATOM      7  P   UNL     1       1.508   3.018  19.241  0.00  0.00    +0.000 P 
ATOM      8  O   UNL     1       1.103   3.707  17.931  0.00  0.00    +0.000 OA
BRANCH   7   9
ATOM      9  O   UNL     1       1.664   1.446  18.822  0.00  0.00    +0.000 OA
ATOM     10  H   UNL     1       0.930   1.138  18.255  0.00  0.00    +0.000 HD
ENDBRANCH   7   9
BRANCH   7  11
ATOM     11  O   UNL     1      -0.167   2.714  19.552  0.00  0.00    +0.000 OA
ATOM     12  H   UNL     1      -0.422   1.978  18.963  0.00  0.00    +0.000 HD
ENDBRANCH   7  11
ENDBRANCH   1   7
BRANCH   1  13
ATOM     13  C   UNL     1       3.641   4.805  18.856  0.00  0.00    +0.000 C 
BRANCH  13  18
ATOM     14  C   UNL     1       5.311   4.708  15.494  0.00  0.00    +0.000 A 
ATOM     15  C   UNL     1       5.510   6.065  15.242  0.00  0.00    +0.000 A 
ATOM     16  C   UNL     1       4.988   7.008  16.118  0.00  0.00    +0.000 A 
ATOM     17  C   UNL     1       4.330   6.576  17.262  0.00  0.00    +0.000 A 
ATOM     18  N   UNL     1       4.159   5.261  17.520  0.00  0.00    +0.000 N 
ATOM     19  C   UNL     1       4.563   4.335  16.616  0.00  0.00    +0.000 A 
BRANCH  14  20
ATOM     20  C   UNL     1       5.970   3.670  14.614  0.00  0.00    +0.000 C 
BRANCH  20  21
ATOM     21  C   UNL     1       6.786   4.269  13.473  0.00  0.00    +0.000 C 
BRANCH  21  23
ATOM     22  C   UNL     1       5.049   3.226  11.995  0.00  0.00    +0.000 C 
ATOM     23  C   UNL     1       6.529   3.536  12.157  0.00  0.00    +0.000 C 
ENDBRANCH  21  23
ENDBRANCH  20  21
ENDBRANCH  14  20
ENDBRANCH  13  18
ENDBRANCH   1  13
TORSDOF 10
ENDMDL
MODEL 2
REMARK VINA RESULT:      -6.5      4.546      6.366
REMARK  Name = 
REMARK  11 active torsions:
REMARK  status: ('A' for Active; 'I' for Inactive)
REMARK    1  A    between atoms: C_1  and  C_2
REMARK    2  A    between atoms: C_2  and  C_3
REMARK    3  A    between atoms: C_3  and  C_4
REMARK    4  A    between atoms: C_4  and  C_5
REMARK    5  A    between atoms: N_9  and  C_10
REMARK    6  A    between atoms: C_10  and  C_11
REMARK    7  A    between atoms: C_11  and  P_12
REMARK    8  A    between atoms: C_11  and  P_16
REMARK    9  A    between atoms: P_12  and  O_15
REMARK   10  A    between atoms: P_16  and  O_18
REMARK   11  A    between atoms: P_16  and  O_19
REMARK                            x       y       z     vdW  Elec       q    Type
REMARK                         _______ _______ _______ _____ _____    ______ ____
ROOT
ATOM      1  C   UNL     1       6.014   5.662  17.462  0.00  0.00    +0.000 C 
ENDROOT
BRANCH   1   2
ATOM      2  P   UNL     1       7.221   5.450  18.820  0.00  0.00    +0.000 P 
ATOM      3  O   UNL     1       7.950   4.348  18.045  0.00  0.00    +0.000 OA
ATOM      4  O   UNL     1       7.702   6.886  18.597  0.00  0.00    +0.000 OA
BRANCH   2   5
ATOM      5  O   UNL     1       8.363   5.251  20.105  0.00  0.00    +0.000 OA
ATOM      6  H   UNL     1       7.769   4.950  20.819  0.00  0.00    +0.000 HD
ENDBRANCH   2   5
ENDBRANCH   1   2
BRANCH   1   7
ATOM      7  P   UNL     1       6.843   5.375  15.857  0.00  0.00    +0.000 P 
ATOM      8  O   UNL     1       5.671   6.009  15.097  0.00  0.00    +0.000 OA
BRANCH   7   9
ATOM      9  O   UNL     1       7.867   6.625  16.106  0.00  0.00    +0.000 OA
ATOM     10  H   UNL     1       7.564   7.445  15.669  0.00  0.00    +0.000 HD
ENDBRANCH   7   9
BRANCH   7  11
ATOM     11  O   UNL     1       7.628   5.104  14.338  0.00  0.00    +0.000 OA
ATOM     12  H   UNL     1       7.382   4.198  14.064  0.00  0.00    +0.000 HD
ENDBRANCH   7  11
ENDBRANCH   1   7
BRANCH   1  13
ATOM     13  C   UNL     1       4.758   4.846  17.663  0.00  0.00    +0.000 C 
BRANCH  13  18
ATOM     14  C   UNL     1       2.526   4.826  20.683  0.00  0.00    +0.000 A 
ATOM     15  C   UNL     1       1.910   6.073  20.582  0.00  0.00    +0.000 A 
ATOM     16  C   UNL     1       2.318   6.960  19.596  0.00  0.00    +0.000 A 
ATOM     17  C   UNL     1       3.290   6.562  18.689  0.00  0.00    +0.000 A 
ATOM     18  N   UNL     1       3.870   5.345  18.769  0.00  0.00    +0.000 N 
ATOM     19  C   UNL     1       3.563   4.515  19.797  0.00  0.00    +0.000 A 
BRANCH  14  20
ATOM     20  C   UNL     1       2.017   3.807  21.677  0.00  0.00    +0.000 C 
BRANCH  20  21
ATOM     21  C   UNL     1       1.421   2.564  21.023  0.00  0.00    +0.000 C 
BRANCH  21  23
ATOM     22  C   UNL     1       0.953   2.252  18.579  0.00  0.00    +0.000 C 
ATOM     23  C   UNL     1       0.499   2.931  19.861  0.00  0.00    +0.000 C 
ENDBRANCH  21  23
ENDBRANCH  20  21
ENDBRANCH  14  20
ENDBRANCH  13  18
ENDBRANCH   1  13
TORSDOF 10
ENDMDL
MODEL 3
REMARK VINA RESULT:      -6.4      4.315      7.059
REMARK  Name = 
REMARK  11 active torsions:
REMARK  status: ('A' for Active; 'I' for Inactive)
REMARK    1  A    between atoms: C_1  and  C_2
REMARK    2  A    between atoms: C_2  and  C_3
REMARK    3  A    between atoms: C_3  and  C_4
REMARK    4  A    between atoms: C_4  and  C_5
REMARK    5  A    between atoms: N_9  and  C_10
REMARK    6  A    between atoms: C_10  and  C_11
REMARK    7  A    between atoms: C_11  and  P_12
REMARK    8  A    between atoms: C_11  and  P_16
REMARK    9  A    between atoms: P_12  and  O_15
REMARK   10  A    between atoms: P_16  and  O_18
REMARK   11  A    between atoms: P_16  and  O_19
REMARK                            x       y       z     vdW  Elec       q    Type
REMARK                         _______ _______ _______ _____ _____    ______ ____
ROOT
ATOM      1  C   UNL     1       5.908   5.111  17.155  0.00  0.00    +0.000 C 
ENDROOT
BRANCH   1   2
ATOM      2  P   UNL     1       6.803   5.187  15.561  0.00  0.00    +0.000 P 
ATOM      3  O   UNL     1       5.505   5.494  14.809  0.00  0.00    +0.000 OA
ATOM      4  O   UNL     1       7.600   6.384  16.082  0.00  0.00    +0.000 OA
BRANCH   2   5
ATOM      5  O   UNL     1       7.650   5.259  14.054  0.00  0.00    +0.000 OA
ATOM      6  H   UNL     1       8.553   5.452  14.372  0.00  0.00    +0.000 HD
ENDBRANCH   2   5
ENDBRANCH   1   2
BRANCH   1   7
ATOM      7  P   UNL     1       7.099   5.275  18.533  0.00  0.00    +0.000 P 
ATOM      8  O   UNL     1       6.163   4.515  19.481  0.00  0.00    +0.000 OA
BRANCH   7   9
ATOM      9  O   UNL     1       8.056   4.104  17.911  0.00  0.00    +0.000 OA
ATOM     10  H   UNL     1       7.716   3.758  17.063  0.00  0.00    +0.000 HD
ENDBRANCH   7   9
BRANCH   7  11
ATOM     11  O   UNL     1       8.227   5.430  19.836  0.00  0.00    +0.000 OA
ATOM     12  H   UNL     1       7.846   4.930  20.585  0.00  0.00    +0.000 HD
ENDBRANCH   7  11
ENDBRANCH   1   7
BRANCH   1  13
ATOM     13  C   UNL     1       4.749   6.077  17.222  0.00  0.00    +0.000 C 
BRANCH  13  18
ATOM     14  C   UNL     1       1.953   5.655  19.694  0.00  0.00    +0.000 A 
ATOM     15  C   UNL     1       1.536   4.351  19.423  0.00  0.00    +0.000 A 
ATOM     16  C   UNL     1       2.091   3.664  18.352  0.00  0.00    +0.000 A 
ATOM     17  C   UNL     1       3.098   4.268  17.610  0.00  0.00    +0.000 A 
ATOM     18  N   UNL     1       3.521   5.520  17.887  0.00  0.00    +0.000 N 
ATOM     19  C   UNL     1       2.907   6.243  18.856  0.00  0.00    +0.000 A 
BRANCH  14  20
ATOM     20  C   UNL     1       1.443   6.373  20.922  0.00  0.00    +0.000 C 
BRANCH  20  21
ATOM     21  C   UNL     1       1.503   7.894  20.806  0.00  0.00    +0.000 C 
BRANCH  21  23
ATOM     22  C   UNL     1       0.361  10.065  21.324  0.00  0.00    +0.000 C 
ATOM     23  C   UNL     1       0.289   8.552  21.459  0.00  0.00    +0.000 C 
ENDBRANCH  21  23
ENDBRANCH  20  21
ENDBRANCH  14  20
ENDBRANCH  13  18
ENDBRANCH   1  13
TORSDOF 10
ENDMDL
MODEL 4
REMARK VINA RESULT:      -6.4      3.006      4.796
REMARK  Name = 
REMARK  11 active torsions:
REMARK  status: ('A' for Active; 'I' for Inactive)
REMARK    1  A    between atoms: C_1  and  C_2
REMARK    2  A    between atoms: C_2  and  C_3
REMARK    3  A    between atoms: C_3  and  C_4
REMARK    4  A    between atoms: C_4  and  C_5
REMARK    5  A    between atoms: N_9  and  C_10
REMARK    6  A    between atoms: C_10  and  C_11
REMARK    7  A    between atoms: C_11  and  P_12
REMARK    8  A    between atoms: C_11  and  P_16
REMARK    9  A    between atoms: P_12  and  O_15
REMARK   10  A    between atoms: P_16  and  O_18
REMARK   11  A    between atoms: P_16  and  O_19
REMARK                            x       y       z     vdW  Elec       q    Type
REMARK                         _______ _______ _______ _____ _____    ______ ____
ROOT
ATOM      1  C   UNL     1       5.831   5.309  17.075  0.00  0.00    +0.000 C 
ENDROOT
BRANCH   1   2
ATOM      2  P   UNL     1       4.168   5.637  17.764  0.00  0.00    +0.000 P 
ATOM      3  O   UNL     1       4.107   6.995  17.058  0.00  0.00    +0.000 OA
ATOM      4  O   UNL     1       3.627   4.432  16.993  0.00  0.00    +0.000 OA
BRANCH   2   5
ATOM      5  O   UNL     1       2.595   5.947  18.416  0.00  0.00    +0.000 OA
ATOM      6  H   UNL     1       2.630   5.395  19.222  0.00  0.00    +0.000 HD
ENDBRANCH   2   5
ENDBRANCH   1   2
BRANCH   1   7
ATOM      7  P   UNL     1       7.076   5.403  18.412  0.00  0.00    +0.000 P 
ATOM      8  O   UNL     1       6.074   4.848  19.433  0.00  0.00    +0.000 OA
BRANCH   7   9
ATOM      9  O   UNL     1       7.845   4.071  17.858  0.00  0.00    +0.000 OA
ATOM     10  H   UNL     1       7.378   3.247  18.097  0.00  0.00    +0.000 HD
ENDBRANCH   7   9
BRANCH   7  11
ATOM     11  O   UNL     1       8.254   5.492  19.677  0.00  0.00    +0.000 OA
ATOM     12  H   UNL     1       7.829   5.110  20.470  0.00  0.00    +0.000 HD
ENDBRANCH   7  11
ENDBRANCH   1   7
BRANCH   1  13
ATOM     13  C   UNL     1       5.888   4.035  16.266  0.00  0.00    +0.000 C 
BRANCH  13  18
ATOM     14  C   UNL     1       5.878   3.520  12.546  0.00  0.00    +0.000 A 
ATOM     15  C   UNL     1       6.992   4.266  12.158  0.00  0.00    +0.000 A 
ATOM     16  C   UNL     1       7.666   5.029  13.101  0.00  0.00    +0.000 A 
ATOM     17  C   UNL     1       7.254   4.985  14.427  0.00  0.00    +0.000 A 
ATOM     18  N   UNL     1       6.191   4.244  14.808  0.00  0.00    +0.000 N 
ATOM     19  C   UNL     1       5.456   3.586  13.878  0.00  0.00    +0.000 A 
BRANCH  14  20
ATOM     20  C   UNL     1       5.203   2.597  11.557  0.00  0.00    +0.000 C 
BRANCH  20  21
ATOM     21  C   UNL     1       3.803   3.052  11.158  0.00  0.00    +0.000 C 
BRANCH  21  23
ATOM     22  C   UNL     1       2.483   4.289   9.420  0.00  0.00    +0.000 C 
ATOM     23  C   UNL     1       3.852   4.113  10.059  0.00  0.00    +0.000 C 
ENDBRANCH  21  23
ENDBRANCH  20  21
ENDBRANCH  14  20
ENDBRANCH  13  18
ENDBRANCH   1  13
TORSDOF 10
ENDMDL
MODEL 5
REMARK VINA RESULT:      -6.4      4.223      6.333
REMARK  Name = 
REMARK  11 active torsions:
REMARK  status: ('A' for Active; 'I' for Inactive)
REMARK    1  A    between atoms: C_1  and  C_2
REMARK    2  A    between atoms: C_2  and  C_3
REMARK    3  A    between atoms: C_3  and  C_4
REMARK    4  A    between atoms: C_4  and  C_5
REMARK    5  A    between atoms: N_9  and  C_10
REMARK    6  A    between atoms: C_10  and  C_11
REMARK    7  A    between atoms: C_11  and  P_12
REMARK    8  A    between atoms: C_11  and  P_16
REMARK    9  A    between atoms: P_12  and  O_15
REMARK   10  A    between atoms: P_16  and  O_18
REMARK   11  A    between atoms: P_16  and  O_19
REMARK                            x       y       z     vdW  Elec       q    Type
REMARK                         _______ _______ _______ _____ _____    ______ ____
ROOT
ATOM      1  C   UNL     1       6.020   5.376  17.644  0.00  0.00    +0.000 C 
ENDROOT
BRANCH   1   2
ATOM      2  P   UNL     1       7.359   5.433  18.890  0.00  0.00    +0.000 P 
ATOM      3  O   UNL     1       6.395   4.987  19.994  0.00  0.00    +0.000 OA
ATOM      4  O   UNL     1       8.095   4.330  18.128  0.00  0.00    +0.000 OA
BRANCH   2   5
ATOM      5  O   UNL     1       8.625   5.487  20.068  0.00  0.00    +0.000 OA
ATOM      6  H   UNL     1       9.366   5.796  19.512  0.00  0.00    +0.000 HD
ENDBRANCH   2   5
ENDBRANCH   1   2
BRANCH   1   7
ATOM      7  P   UNL     1       6.748   5.374  15.966  0.00  0.00    +0.000 P 
ATOM      8  O   UNL     1       5.521   6.095  15.393  0.00  0.00    +0.000 OA
BRANCH   7   9
ATOM      9  O   UNL     1       7.769   6.590  16.353  0.00  0.00    +0.000 OA
ATOM     10  H   UNL     1       7.323   7.307  16.845  0.00  0.00    +0.000 HD
ENDBRANCH   7   9
BRANCH   7  11
ATOM     11  O   UNL     1       7.437   5.371  14.378  0.00  0.00    +0.000 OA
ATOM     12  H   UNL     1       8.233   5.936  14.428  0.00  0.00    +0.000 HD
ENDBRANCH   7  11
ENDBRANCH   1   7
BRANCH   1  13
ATOM     13  C   UNL     1       5.036   4.257  17.892  0.00  0.00    +0.000 C 
BRANCH  13  18
ATOM     14  C   UNL     1       2.385   6.449  19.399  0.00  0.00    +0.000 A 
ATOM     15  C   UNL     1       1.845   5.606  20.370  0.00  0.00    +0.000 A 
ATOM     16  C   UNL     1       2.269   4.286  20.443  0.00  0.00    +0.000 A 
ATOM     17  C   UNL     1       3.270   3.850  19.586  0.00  0.00    +0.000 A 
ATOM     18  N   UNL     1       3.813   4.672  18.662  0.00  0.00    +0.000 N 
ATOM     19  C   UNL     1       3.327   5.928  18.505  0.00  0.00    +0.000 A 
BRANCH  14  20
ATOM     20  C   UNL     1       2.018   7.916  19.380  0.00  0.00    +0.000 C 
BRANCH  20  21
ATOM     21  C   UNL     1       1.918   8.500  17.974  0.00  0.00    +0.000 C 
BRANCH  21  23
ATOM     22  C   UNL     1       0.566  10.503  18.643  0.00  0.00    +0.000 C 
ATOM     23  C   UNL     1       1.862  10.026  18.006  0.00  0.00    +0.000 C 
ENDBRANCH  21  23
ENDBRANCH  20  21
ENDBRANCH  14  20
ENDBRANCH  13  18
ENDBRANCH   1  13
TORSDOF 10
ENDMDL
MODEL 6
REMARK VINA RESULT:      -6.4      4.075      6.576
REMARK  Name = 
REMARK  11 active torsions:
REMARK  status: ('A' for Active; 'I' for Inactive)
REMARK    1  A    between atoms: C_1  and  C_2
REMARK    2  A    between atoms: C_2  and  C_3
REMARK    3  A    between atoms: C_3  and  C_4
REMARK    4  A    between atoms: C_4  and  C_5
REMARK    5  A    between atoms: N_9  and  C_10
REMARK    6  A    between atoms: C_10  and  C_11
REMARK    7  A    between atoms: C_11  and  P_12
REMARK    8  A    between atoms: C_11  and  P_16
REMARK    9  A    between atoms: P_12  and  O_15
REMARK   10  A    between atoms: P_16  and  O_18
REMARK   11  A    between atoms: P_16  and  O_19
REMARK                            x       y       z     vdW  Elec       q    Type
REMARK                         _______ _______ _______ _____ _____    ______ ____
ROOT
ATOM      1  C   UNL     1       5.938   5.105  17.284  0.00  0.00    +0.000 C 
ENDROOT
BRANCH   1   2
ATOM      2  P   UNL     1       6.630   5.294  15.602  0.00  0.00    +0.000 P 
ATOM      3  O   UNL     1       7.694   6.270  16.113  0.00  0.00    +0.000 OA
ATOM      4  O   UNL     1       6.997   3.809  15.601  0.00  0.00    +0.000 OA
BRANCH   2   5
ATOM      5  O   UNL     1       7.285   5.473  14.010  0.00  0.00    +0.000 OA
ATOM      6  H   UNL     1       7.961   6.158  14.176  0.00  0.00    +0.000 HD
ENDBRANCH   2   5
ENDBRANCH   1   2
BRANCH   1   7
ATOM      7  P   UNL     1       7.200   5.577  18.521  0.00  0.00    +0.000 P 
ATOM      8  O   UNL     1       6.291   5.131  19.673  0.00  0.00    +0.000 OA
BRANCH   7   9
ATOM      9  O   UNL     1       8.092   4.247  18.192  0.00  0.00    +0.000 OA
ATOM     10  H   UNL     1       8.954   4.255  18.651  0.00  0.00    +0.000 HD
ENDBRANCH   7   9
BRANCH   7  11
ATOM     11  O   UNL     1       8.395   6.023  19.691  0.00  0.00    +0.000 OA
ATOM     12  H   UNL     1       7.936   6.582  20.348  0.00  0.00    +0.000 HD
ENDBRANCH   7  11
ENDBRANCH   1   7
BRANCH   1  13
ATOM     13  C   UNL     1       4.612   5.810  17.455  0.00  0.00    +0.000 C 
BRANCH  13  18
ATOM     14  C   UNL     1       1.684   4.085  19.053  0.00  0.00    +0.000 A 
ATOM     15  C   UNL     1       1.547   2.959  18.241  0.00  0.00    +0.000 A 
ATOM     16  C   UNL     1       2.334   2.835  17.105  0.00  0.00    +0.000 A 
ATOM     17  C   UNL     1       3.289   3.806  16.834  0.00  0.00    +0.000 A 
ATOM     18  N   UNL     1       3.441   4.884  17.634  0.00  0.00    +0.000 N 
ATOM     19  C   UNL     1       2.601   5.074  18.681  0.00  0.00    +0.000 A 
BRANCH  14  20
ATOM     20  C   UNL     1       0.917   4.180  20.352  0.00  0.00    +0.000 C 
BRANCH  20  21
ATOM     21  C   UNL     1       1.766   3.884  21.584  0.00  0.00    +0.000 C 
BRANCH  21  23
ATOM     22  C   UNL     1       3.635   2.273  21.132  0.00  0.00    +0.000 C 
ATOM     23  C   UNL     1       2.203   2.420  21.623  0.00  0.00    +0.000 C 
ENDBRANCH  21  23
ENDBRANCH  20  21
ENDBRANCH  14  20
ENDBRANCH  13  18
ENDBRANCH   1  13
TORSDOF 10
ENDMDL
MODEL 7
REMARK VINA RESULT:      -6.3      2.000      2.532
REMARK  Name = 
REMARK  11 active torsions:
REMARK  status: ('A' for Active; 'I' for Inactive)
REMARK    1  A    between atoms: C_1  and  C_2
REMARK    2  A    between atoms: C_2  and  C_3
REMARK    3  A    between atoms: C_3  and  C_4
REMARK    4  A    between atoms: C_4  and  C_5
REMARK    5  A    between atoms: N_9  and  C_10
REMARK    6  A    between atoms: C_10  and  C_11
REMARK    7  A    between atoms: C_11  and  P_12
REMARK    8  A    between atoms: C_11  and  P_16
REMARK    9  A    between atoms: P_12  and  O_15
REMARK   10  A    between atoms: P_16  and  O_18
REMARK   11  A    between atoms: P_16  and  O_19
REMARK                            x       y       z     vdW  Elec       q    Type
REMARK                         _______ _______ _______ _____ _____    ______ ____
ROOT
ATOM      1  C   UNL     1       3.234   3.995  19.379  0.00  0.00    +0.000 C 
ENDROOT
BRANCH   1   2
ATOM      2  P   UNL     1       2.411   3.260  20.838  0.00  0.00    +0.000 P 
ATOM      3  O   UNL     1       1.216   2.824  19.986  0.00  0.00    +0.000 OA
ATOM      4  O   UNL     1       3.566   2.265  20.970  0.00  0.00    +0.000 OA
BRANCH   2   5
ATOM      5  O   UNL     1       1.634   2.565  22.219  0.00  0.00    +0.000 OA
ATOM      6  H   UNL     1       1.331   3.375  22.673  0.00  0.00    +0.000 HD
ENDBRANCH   2   5
ENDBRANCH   1   2
BRANCH   1   7
ATOM      7  P   UNL     1       2.915   5.796  19.340  0.00  0.00    +0.000 P 
ATOM      8  O   UNL     1       1.900   5.629  18.201  0.00  0.00    +0.000 OA
BRANCH   7   9
ATOM      9  O   UNL     1       1.999   5.713  20.692  0.00  0.00    +0.000 OA
ATOM     10  H   UNL     1       1.347   6.438  20.743  0.00  0.00    +0.000 HD
ENDBRANCH   7   9
BRANCH   7  11
ATOM     11  O   UNL     1       2.613   7.500  19.304  0.00  0.00    +0.000 OA
ATOM     12  H   UNL     1       2.306   7.701  18.398  0.00  0.00    +0.000 HD
ENDBRANCH   7  11
ENDBRANCH   1   7
BRANCH   1  13
ATOM     13  C   UNL     1       4.696   3.624  19.282  0.00  0.00    +0.000 C 
BRANCH  13  18
ATOM     14  C   UNL     1       5.692   4.352  15.735  0.00  0.00    +0.000 A 
ATOM     15  C   UNL     1       6.923   4.983  15.915  0.00  0.00    +0.000 A 
ATOM     16  C   UNL     1       7.361   5.275  17.200  0.00  0.00    +0.000 A 
ATOM     17  C   UNL     1       6.591   4.875  18.284  0.00  0.00    +0.000 A 
ATOM     18  N   UNL     1       5.410   4.240  18.111  0.00  0.00    +0.000 N 
ATOM     19  C   UNL     1       4.919   4.053  16.862  0.00  0.00    +0.000 A 
BRANCH  14  20
ATOM     20  C   UNL     1       5.254   3.926  14.352  0.00  0.00    +0.000 C 
BRANCH  20  21
ATOM     21  C   UNL     1       6.382   3.946  13.324  0.00  0.00    +0.000 C 
BRANCH  21  23
ATOM     22  C   UNL     1       4.609   3.338  11.657  0.00  0.00    +0.000 C 
ATOM     23  C   UNL     1       6.041   3.091  12.104  0.00  0.00    +0.000 C 
ENDBRANCH  21  23
ENDBRANCH  20  21
ENDBRANCH  14  20
ENDBRANCH  13  18
ENDBRANCH   1  13
TORSDOF 10
ENDMDL
MODEL 8
REMARK VINA RESULT:      -6.2      1.948      2.754
REMARK  Name = 
REMARK  11 active torsions:
REMARK  status: ('A' for Active; 'I' for Inactive)
REMARK    1  A    between atoms: C_1  and  C_2
REMARK    2  A    between atoms: C_2  and  C_3
REMARK    3  A    between atoms: C_3  and  C_4
REMARK    4  A    between atoms: C_4  and  C_5
REMARK    5  A    between atoms: N_9  and  C_10
REMARK    6  A    between atoms: C_10  and  C_11
REMARK    7  A    between atoms: C_11  and  P_12
REMARK    8  A    between atoms: C_11  and  P_16
REMARK    9  A    between atoms: P_12  and  O_15
REMARK   10  A    between atoms: P_16  and  O_18
REMARK   11  A    between atoms: P_16  and  O_19
REMARK                            x       y       z     vdW  Elec       q    Type
REMARK                         _______ _______ _______ _____ _____    ______ ____
ROOT
ATOM      1  C   UNL     1       2.935   4.181  18.866  0.00  0.00    +0.000 C 
ENDROOT
BRANCH   1   2
ATOM      2  P   UNL     1       1.688   2.850  18.718  0.00  0.00    +0.000 P 
ATOM      3  O   UNL     1       1.028   3.556  17.530  0.00  0.00    +0.000 OA
ATOM      4  O   UNL     1       2.808   1.857  18.397  0.00  0.00    +0.000 OA
BRANCH   2   5
ATOM      5  O   UNL     1       0.510   1.591  18.578  0.00  0.00    +0.000 OA
ATOM      6  H   UNL     1      -0.275   2.047  18.940  0.00  0.00    +0.000 HD
ENDBRANCH   2   5
ENDBRANCH   1   2
BRANCH   1   7
ATOM      7  P   UNL     1       2.378   5.404  20.107  0.00  0.00    +0.000 P 
ATOM      8  O   UNL     1       2.162   6.464  19.019  0.00  0.00    +0.000 OA
BRANCH   7   9
ATOM      9  O   UNL     1       0.919   4.679  20.240  0.00  0.00    +0.000 OA
ATOM     10  H   UNL     1       0.484   4.876  21.092  0.00  0.00    +0.000 HD
ENDBRANCH   7   9
BRANCH   7  11
ATOM     11  O   UNL     1       1.852   6.561  21.282  0.00  0.00    +0.000 OA
ATOM     12  H   UNL     1       0.978   6.877  20.978  0.00  0.00    +0.000 HD
ENDBRANCH   7  11
ENDBRANCH   1   7
BRANCH   1  13
ATOM     13  C   UNL     1       4.331   3.652  19.102  0.00  0.00    +0.000 C 
BRANCH  13  18
ATOM     14  C   UNL     1       6.157   4.256  15.877  0.00  0.00    +0.000 A 
ATOM     15  C   UNL     1       7.394   4.710  16.338  0.00  0.00    +0.000 A 
ATOM     16  C   UNL     1       7.579   4.931  17.695  0.00  0.00    +0.000 A 
ATOM     17  C   UNL     1       6.547   4.634  18.575  0.00  0.00    +0.000 A 
ATOM     18  N   UNL     1       5.357   4.170  18.133  0.00  0.00    +0.000 N 
ATOM     19  C   UNL     1       5.126   4.061  16.802  0.00  0.00    +0.000 A 
BRANCH  14  20
ATOM     20  C   UNL     1       5.976   3.904  14.418  0.00  0.00    +0.000 C 
BRANCH  20  21
ATOM     21  C   UNL     1       7.100   4.417  13.523  0.00  0.00    +0.000 C 
BRANCH  21  23
ATOM     22  C   UNL     1       5.754   3.029  11.927  0.00  0.00    +0.000 C 
ATOM     23  C   UNL     1       6.843   4.082  12.055  0.00  0.00    +0.000 C 
ENDBRANCH  21  23
ENDBRANCH  20  21
ENDBRANCH  14  20
ENDBRANCH  13  18
ENDBRANCH   1  13
TORSDOF 10
ENDMDL
MODEL 9
REMARK VINA RESULT:      -6.2      4.321      6.452
REMARK  Name = 
REMARK  11 active torsions:
REMARK  status: ('A' for Active; 'I' for Inactive)
REMARK    1  A    between atoms: C_1  and  C_2
REMARK    2  A    between atoms: C_2  and  C_3
REMARK    3  A    between atoms: C_3  and  C_4
REMARK    4  A    between atoms: C_4  and  C_5
REMARK    5  A    between atoms: N_9  and  C_10
REMARK    6  A    between atoms: C_10  and  C_11
REMARK    7  A    between atoms: C_11  and  P_12
REMARK    8  A    between atoms: C_11  and  P_16
REMARK    9  A    between atoms: P_12  and  O_15
REMARK   10  A    between atoms: P_16  and  O_18
REMARK   11  A    between atoms: P_16  and  O_19
REMARK                            x       y       z     vdW  Elec       q    Type
REMARK                         _______ _______ _______ _____ _____    ______ ____
ROOT
ATOM      1  C   UNL     1       5.814   5.330  17.565  0.00  0.00    +0.000 C 
ENDROOT
BRANCH   1   2
ATOM      2  P   UNL     1       7.190   5.586  18.743  0.00  0.00    +0.000 P 
ATOM      3  O   UNL     1       7.902   4.329  18.236  0.00  0.00    +0.000 OA
ATOM      4  O   UNL     1       7.528   6.903  18.039  0.00  0.00    +0.000 OA
BRANCH   2   5
ATOM      5  O   UNL     1       8.492   5.830  19.857  0.00  0.00    +0.000 OA
ATOM      6  H   UNL     1       8.875   6.653  19.498  0.00  0.00    +0.000 HD
ENDBRANCH   2   5
ENDBRANCH   1   2
BRANCH   1   7
ATOM      7  P   UNL     1       6.480   5.193  15.867  0.00  0.00    +0.000 P 
ATOM      8  O   UNL     1       5.427   4.140  15.499  0.00  0.00    +0.000 OA
BRANCH   7   9
ATOM      9  O   UNL     1       5.787   6.607  15.428  0.00  0.00    +0.000 OA
ATOM     10  H   UNL     1       5.995   7.332  16.049  0.00  0.00    +0.000 HD
ENDBRANCH   7   9
BRANCH   7  11
ATOM     11  O   UNL     1       7.111   5.064  14.261  0.00  0.00    +0.000 OA
ATOM     12  H   UNL     1       7.948   5.570  14.257  0.00  0.00    +0.000 HD
ENDBRANCH   7  11
ENDBRANCH   1   7
BRANCH   1  13
ATOM     13  C   UNL     1       4.905   4.191  17.966  0.00  0.00    +0.000 C 
BRANCH  13  18
ATOM     14  C   UNL     1       2.334   6.400  19.584  0.00  0.00    +0.000 A 
ATOM     15  C   UNL     1       1.807   5.548  20.555  0.00  0.00    +0.000 A 
ATOM     16  C   UNL     1       2.210   4.220  20.593  0.00  0.00    +0.000 A 
ATOM     17  C   UNL     1       3.180   3.783  19.701  0.00  0.00    +0.000 A 
ATOM     18  N   UNL     1       3.711   4.613  18.776  0.00  0.00    +0.000 N 
ATOM     19  C   UNL     1       3.242   5.879  18.655  0.00  0.00    +0.000 A 
BRANCH  14  20
ATOM     20  C   UNL     1       1.992   7.872  19.601  0.00  0.00    +0.000 C 
BRANCH  20  21
ATOM     21  C   UNL     1       1.963   8.506  18.213  0.00  0.00    +0.000 C 
BRANCH  21  23
ATOM     22  C   UNL     1       0.301   9.969  19.390  0.00  0.00    +0.000 C 
ATOM     23  C   UNL     1       1.290   9.877  18.238  0.00  0.00    +0.000 C 
ENDBRANCH  21  23
ENDBRANCH  20  21
ENDBRANCH  14  20
ENDBRANCH  13  18
ENDBRANCH   1  13
TORSDOF 10
ENDMDL
