MODEL 1
REMARK VINA RESULT:      -7.6      0.000      0.000
REMARK  Name = 
REMARK  5 active torsions:
REMARK  status: ('A' for Active; 'I' for Inactive)
REMARK    1  A    between atoms: C_1  and  O_2
REMARK    2  A    between atoms: O_2  and  C_3
REMARK    3  A    between atoms: C_8  and  N_9
REMARK    4  A    between atoms: C_14  and  C_15
REMARK    5  A    between atoms: C_19  and  C_20
REMARK                            x       y       z     vdW  Elec       q    Type
REMARK                         _______ _______ _______ _____ _____    ______ ____
ROOT
ATOM      1  N   UNL     1       3.723   5.119  17.749  0.00  0.00    +0.000 N 
ATOM      2  C   UNL     1       3.399   4.036  16.891  0.00  0.00    +0.000 A 
ATOM      3  O   UNL     1       2.442   3.284  16.925  0.00  0.00    +0.000 OA
ATOM      4  N   UNL     1       4.413   3.991  15.922  0.00  0.00    +0.000 N 
ATOM      5  C   UNL     1       5.333   4.993  16.204  0.00  0.00    +0.000 A 
ATOM      6  C   UNL     1       6.504   5.367  15.615  0.00  0.00    +0.000 A 
ATOM      7  N   UNL     1       7.273   6.361  16.124  0.00  0.00    +0.000 NA
ATOM      8  C   UNL     1       6.814   6.947  17.255  0.00  0.00    +0.000 A 
ATOM      9  N   UNL     1       5.665   6.656  17.897  0.00  0.00    +0.000 NA
ATOM     10  C   UNL     1       4.936   5.694  17.323  0.00  0.00    +0.000 A 
ATOM     11  H   UNL     1       4.460   3.337  15.150  0.00  0.00    +0.000 HD
ENDROOT
BRANCH   1  17
ATOM     12  C   UNL     1       2.617   4.811  19.943  0.00  0.00    +0.000 A 
ATOM     13  C   UNL     1       1.934   5.406  21.017  0.00  0.00    +0.000 A 
ATOM     14  C   UNL     1       1.503   6.731  20.948  0.00  0.00    +0.000 A 
ATOM     15  C   UNL     1       1.765   7.486  19.813  0.00  0.00    +0.000 A 
ATOM     16  C   UNL     1       2.488   6.925  18.761  0.00  0.00    +0.000 A 
ATOM     17  C   UNL     1       2.920   5.587  18.804  0.00  0.00    +0.000 A 
BRANCH  12  19
ATOM     18  C   UNL     1       2.206   2.519  20.373  0.00  0.00    +0.000 C 
ATOM     19  O   UNL     1       3.137   3.541  20.022  0.00  0.00    +0.000 OA
ENDBRANCH  12  19
ENDBRANCH   1  17
BRANCH   6  20
ATOM     20  C   UNL     1       6.992   4.698  14.378  0.00  0.00    +0.000 C 
ATOM     21  N   UNL     1       7.987   5.345  13.698  0.00  0.00    +0.000 N 
ATOM     22  O   UNL     1       6.526   3.634  13.981  0.00  0.00    +0.000 OA
ATOM     23  H   UNL     1       8.347   6.233  14.033  0.00  0.00    +0.000 HD
ATOM     24  H   UNL     1       8.345   4.948  12.841  0.00  0.00    +0.000 HD
ENDBRANCH   6  20
BRANCH   8  25
ATOM     25  C   UNL     1       7.659   7.980  17.819  0.00  0.00    +0.000 A 
ATOM     26  C   UNL     1       7.801   9.351  17.457  0.00  0.00    +0.000 A 
ATOM     27  C   UNL     1       8.729   9.885  18.317  0.00  0.00    +0.000 A 
ATOM     28  O   UNL     1       9.177   8.938  19.180  0.00  0.00    +0.000 OA
ATOM     29  C   UNL     1       8.529   7.784  18.872  0.00  0.00    +0.000 A 
ENDBRANCH   8  25
TORSDOF 4
ENDMDL
MODEL 2
REMARK VINA RESULT:      -7.6      0.986      1.851
REMARK  Name = 
REMARK  5 active torsions:
REMARK  status: ('A' for Active; 'I' for Inactive)
REMARK    1  A    between atoms: C_1  and  O_2
REMARK    2  A    between atoms: O_2  and  C_3
REMARK    3  A    between atoms: C_8  and  N_9
REMARK    4  A    between atoms: C_14  and  C_15
REMARK    5  A    between atoms: C_19  and  C_20
REMARK                            x       y       z     vdW  Elec       q    Type
REMARK                         _______ _______ _______ _____ _____    ______ ____
ROOT
ATOM      1  N   UNL     1       3.967   4.949  17.867  0.00  0.00    +0.000 N 
ATOM      2  C   UNL     1       3.663   3.872  16.993  0.00  0.00    +0.000 A 
ATOM      3  O   UNL     1       2.750   3.068  17.049  0.00  0.00    +0.000 OA
ATOM      4  N   UNL     1       4.632   3.907  15.979  0.00  0.00    +0.000 N 
ATOM      5  C   UNL     1       5.509   4.951  16.249  0.00  0.00    +0.000 A 
ATOM      6  C   UNL     1       6.630   5.404  15.618  0.00  0.00    +0.000 A 
ATOM      7  N   UNL     1       7.367   6.426  16.121  0.00  0.00    +0.000 NA
ATOM      8  C   UNL     1       6.929   6.955  17.287  0.00  0.00    +0.000 A 
ATOM      9  N   UNL     1       5.828   6.586  17.971  0.00  0.00    +0.000 NA
ATOM     10  C   UNL     1       5.126   5.600  17.403  0.00  0.00    +0.000 A 
ATOM     11  H   UNL     1       4.678   3.277  15.188  0.00  0.00    +0.000 HD
ENDROOT
BRANCH   1  17
ATOM     12  C   UNL     1       2.532   6.591  19.039  0.00  0.00    +0.000 A 
ATOM     13  C   UNL     1       1.655   6.846  20.107  0.00  0.00    +0.000 A 
ATOM     14  C   UNL     1       1.471   5.909  21.124  0.00  0.00    +0.000 A 
ATOM     15  C   UNL     1       2.145   4.696  21.078  0.00  0.00    +0.000 A 
ATOM     16  C   UNL     1       2.979   4.409  19.997  0.00  0.00    +0.000 A 
ATOM     17  C   UNL     1       3.189   5.345  18.969  0.00  0.00    +0.000 A 
BRANCH  12  19
ATOM     18  C   UNL     1       1.919   8.669  18.082  0.00  0.00    +0.000 C 
ATOM     19  O   UNL     1       2.658   7.454  17.977  0.00  0.00    +0.000 OA
ENDBRANCH  12  19
ENDBRANCH   1  17
BRANCH   6  20
ATOM     20  C   UNL     1       7.095   4.795  14.343  0.00  0.00    +0.000 C 
ATOM     21  N   UNL     1       8.080   5.472  13.679  0.00  0.00    +0.000 N 
ATOM     22  O   UNL     1       6.620   3.752  13.903  0.00  0.00    +0.000 OA
ATOM     23  H   UNL     1       8.449   6.343  14.050  0.00  0.00    +0.000 HD
ATOM     24  H   UNL     1       8.424   5.117  12.797  0.00  0.00    +0.000 HD
ENDBRANCH   6  20
BRANCH   8  25
ATOM     25  C   UNL     1       7.742   8.018  17.842  0.00  0.00    +0.000 A 
ATOM     26  C   UNL     1       7.863   9.383  17.451  0.00  0.00    +0.000 A 
ATOM     27  C   UNL     1       8.764   9.957  18.315  0.00  0.00    +0.000 A 
ATOM     28  O   UNL     1       9.217   9.039  19.206  0.00  0.00    +0.000 OA
ATOM     29  C   UNL     1       8.598   7.864  18.913  0.00  0.00    +0.000 A 
ENDBRANCH   8  25
TORSDOF 4
ENDMDL
MODEL 3
REMARK VINA RESULT:      -7.2      2.546      6.170
REMARK  Name = 
REMARK  5 active torsions:
REMARK  status: ('A' for Active; 'I' for Inactive)
REMARK    1  A    between atoms: C_1  and  O_2
REMARK    2  A    between atoms: O_2  and  C_3
REMARK    3  A    between atoms: C_8  and  N_9
REMARK    4  A    between atoms: C_14  and  C_15
REMARK    5  A    between atoms: C_19  and  C_20
REMARK                            x       y       z     vdW  Elec       q    Type
REMARK                         _______ _______ _______ _____ _____    ______ ____
ROOT
ATOM      1  N   UNL     1       4.434   3.705  17.309  0.00  0.00    +0.000 N 
ATOM      2  C   UNL     1       4.323   2.369  17.777  0.00  0.00    +0.000 A 
ATOM      3  O   UNL     1       4.837   1.354  17.343  0.00  0.00    +0.000 OA
ATOM      4  N   UNL     1       3.494   2.421  18.908  0.00  0.00    +0.000 N 
ATOM      5  C   UNL     1       3.094   3.739  19.097  0.00  0.00    +0.000 A 
ATOM      6  C   UNL     1       2.275   4.335  20.010  0.00  0.00    +0.000 A 
ATOM      7  N   UNL     1       1.984   5.659  19.949  0.00  0.00    +0.000 NA
ATOM      8  C   UNL     1       2.545   6.343  18.924  0.00  0.00    +0.000 A 
ATOM      9  N   UNL     1       3.376   5.843  17.987  0.00  0.00    +0.000 NA
ATOM     10  C   UNL     1       3.652   4.542  18.126  0.00  0.00    +0.000 A 
ATOM     11  H   UNL     1       3.236   1.630  19.485  0.00  0.00    +0.000 HD
ENDROOT
BRANCH   1  17
ATOM     12  C   UNL     1       6.568   4.609  16.437  0.00  0.00    +0.000 A 
ATOM     13  C   UNL     1       7.372   4.868  15.315  0.00  0.00    +0.000 A 
ATOM     14  C   UNL     1       6.872   4.710  14.022  0.00  0.00    +0.000 A 
ATOM     15  C   UNL     1       5.568   4.274  13.832  0.00  0.00    +0.000 A 
ATOM     16  C   UNL     1       4.776   3.963  14.937  0.00  0.00    +0.000 A 
ATOM     17  C   UNL     1       5.256   4.127  16.248  0.00  0.00    +0.000 A 
BRANCH  12  19
ATOM     18  C   UNL     1       7.361   5.969  18.207  0.00  0.00    +0.000 C 
ATOM     19  O   UNL     1       7.064   4.662  17.718  0.00  0.00    +0.000 OA
ENDBRANCH  12  19
ENDBRANCH   1  17
BRANCH   6  20
ATOM     20  C   UNL     1       1.663   3.556  21.120  0.00  0.00    +0.000 C 
ATOM     21  N   UNL     1       0.518   2.874  20.813  0.00  0.00    +0.000 N 
ATOM     22  O   UNL     1       2.146   3.532  22.249  0.00  0.00    +0.000 OA
ATOM     23  H   UNL     1       0.124   2.920  19.878  0.00  0.00    +0.000 HD
ATOM     24  H   UNL     1       0.047   2.342  21.531  0.00  0.00    +0.000 HD
ENDBRANCH   6  20
BRANCH   8  25
ATOM     25  C   UNL     1       2.198   7.747  18.838  0.00  0.00    +0.000 A 
ATOM     26  C   UNL     1       2.347   8.666  17.760  0.00  0.00    +0.000 A 
ATOM     27  C   UNL     1       1.852   9.869  18.203  0.00  0.00    +0.000 A 
ATOM     28  O   UNL     1       1.416   9.759  19.484  0.00  0.00    +0.000 OA
ATOM     29  C   UNL     1       1.631   8.472  19.866  0.00  0.00    +0.000 A 
ENDBRANCH   8  25
TORSDOF 4
ENDMDL
MODEL 4
REMARK VINA RESULT:      -7.1      0.892      1.030
REMARK  Name = 
REMARK  5 active torsions:
REMARK  status: ('A' for Active; 'I' for Inactive)
REMARK    1  A    between atoms: C_1  and  O_2
REMARK    2  A    between atoms: O_2  and  C_3
REMARK    3  A    between atoms: C_8  and  N_9
REMARK    4  A    between atoms: C_14  and  C_15
REMARK    5  A    between atoms: C_19  and  C_20
REMARK                            x       y       z     vdW  Elec       q    Type
REMARK                         _______ _______ _______ _____ _____    ______ ____
ROOT
ATOM      1  N   UNL     1       3.522   6.018  17.928  0.00  0.00    +0.000 N 
ATOM      2  C   UNL     1       3.151   4.826  17.252  0.00  0.00    +0.000 A 
ATOM      3  O   UNL     1       2.119   4.184  17.329  0.00  0.00    +0.000 OA
ATOM      4  N   UNL     1       4.227   4.506  16.409  0.00  0.00    +0.000 N 
ATOM      5  C   UNL     1       5.225   5.455  16.593  0.00  0.00    +0.000 A 
ATOM      6  C   UNL     1       6.471   5.603  16.061  0.00  0.00    +0.000 A 
ATOM      7  N   UNL     1       7.301   6.601  16.455  0.00  0.00    +0.000 NA
ATOM      8  C   UNL     1       6.820   7.430  17.411  0.00  0.00    +0.000 A 
ATOM      9  N   UNL     1       5.600   7.372  17.982  0.00  0.00    +0.000 NA
ATOM     10  C   UNL     1       4.819   6.388  17.523  0.00  0.00    +0.000 A 
ATOM     11  H   UNL     1       4.263   3.716  15.777  0.00  0.00    +0.000 HD
ENDROOT
BRANCH   1  17
ATOM     12  C   UNL     1       2.346   6.296  20.089  0.00  0.00    +0.000 A 
ATOM     13  C   UNL     1       1.640   7.153  20.949  0.00  0.00    +0.000 A 
ATOM     14  C   UNL     1       1.230   8.418  20.525  0.00  0.00    +0.000 A 
ATOM     15  C   UNL     1       1.537   8.851  19.243  0.00  0.00    +0.000 A 
ATOM     16  C   UNL     1       2.283   8.032  18.396  0.00  0.00    +0.000 A 
ATOM     17  C   UNL     1       2.694   6.749  18.799  0.00  0.00    +0.000 A 
BRANCH  12  19
ATOM     18  C   UNL     1       1.868   4.119  20.887  0.00  0.00    +0.000 C 
ATOM     19  O   UNL     1       2.845   5.087  20.512  0.00  0.00    +0.000 OA
ENDBRANCH  12  19
ENDBRANCH   1  17
BRANCH   6  20
ATOM     20  C   UNL     1       6.979   4.670  15.019  0.00  0.00    +0.000 C 
ATOM     21  N   UNL     1       7.904   5.185  14.153  0.00  0.00    +0.000 N 
ATOM     22  O   UNL     1       6.586   3.510  14.930  0.00  0.00    +0.000 OA
ATOM     23  H   UNL     1       8.204   6.151  14.232  0.00  0.00    +0.000 HD
ATOM     24  H   UNL     1       8.271   4.604  13.412  0.00  0.00    +0.000 HD
ENDBRANCH   6  20
BRANCH   8  25
ATOM     25  C   UNL     1       7.725   8.469  17.858  0.00  0.00    +0.000 A 
ATOM     26  C   UNL     1       7.869   9.816  17.414  0.00  0.00    +0.000 A 
ATOM     27  C   UNL     1       8.868  10.372  18.177  0.00  0.00    +0.000 A 
ATOM     28  O   UNL     1       9.357   9.459  19.054  0.00  0.00    +0.000 OA
ATOM     29  C   UNL     1       8.665   8.307  18.855  0.00  0.00    +0.000 A 
ENDBRANCH   8  25
TORSDOF 4
ENDMDL
MODEL 5
REMARK VINA RESULT:      -6.9      1.892      4.593
REMARK  Name = 
REMARK  5 active torsions:
REMARK  status: ('A' for Active; 'I' for Inactive)
REMARK    1  A    between atoms: C_1  and  O_2
REMARK    2  A    between atoms: O_2  and  C_3
REMARK    3  A    between atoms: C_8  and  N_9
REMARK    4  A    between atoms: C_14  and  C_15
REMARK    5  A    between atoms: C_19  and  C_20
REMARK                            x       y       z     vdW  Elec       q    Type
REMARK                         _______ _______ _______ _____ _____    ______ ____
ROOT
ATOM      1  N   UNL     1       3.781   4.733  18.439  0.00  0.00    +0.000 N 
ATOM      2  C   UNL     1       4.003   5.615  19.529  0.00  0.00    +0.000 A 
ATOM      3  O   UNL     1       3.370   5.740  20.562  0.00  0.00    +0.000 OA
ATOM      4  N   UNL     1       5.160   6.343  19.210  0.00  0.00    +0.000 N 
ATOM      5  C   UNL     1       5.602   5.936  17.957  0.00  0.00    +0.000 A 
ATOM      6  C   UNL     1       6.642   6.331  17.169  0.00  0.00    +0.000 A 
ATOM      7  N   UNL     1       6.834   5.814  15.930  0.00  0.00    +0.000 NA
ATOM      8  C   UNL     1       5.928   4.895  15.523  0.00  0.00    +0.000 A 
ATOM      9  N   UNL     1       4.881   4.432  16.236  0.00  0.00    +0.000 NA
ATOM     10  C   UNL     1       4.770   4.955  17.462  0.00  0.00    +0.000 A 
ATOM     11  H   UNL     1       5.593   7.045  19.798  0.00  0.00    +0.000 HD
ENDROOT
BRANCH   1  17
ATOM     12  C   UNL     1       3.015   2.394  18.716  0.00  0.00    +0.000 A 
ATOM     13  C   UNL     1       1.929   1.505  18.780  0.00  0.00    +0.000 A 
ATOM     14  C   UNL     1       0.637   1.926  18.466  0.00  0.00    +0.000 A 
ATOM     15  C   UNL     1       0.409   3.246  18.102  0.00  0.00    +0.000 A 
ATOM     16  C   UNL     1       1.469   4.152  18.085  0.00  0.00    +0.000 A 
ATOM     17  C   UNL     1       2.781   3.745  18.385  0.00  0.00    +0.000 A 
BRANCH  12  19
ATOM     18  C   UNL     1       4.494   1.997  20.523  0.00  0.00    +0.000 C 
ATOM     19  O   UNL     1       4.280   2.031  19.114  0.00  0.00    +0.000 OA
ENDBRANCH  12  19
ENDBRANCH   1  17
BRANCH   6  20
ATOM     20  C   UNL     1       7.617   7.353  17.637  0.00  0.00    +0.000 C 
ATOM     21  N   UNL     1       8.327   7.033  18.762  0.00  0.00    +0.000 N 
ATOM     22  O   UNL     1       7.772   8.425  17.060  0.00  0.00    +0.000 OA
ATOM     23  H   UNL     1       8.173   6.148  19.236  0.00  0.00    +0.000 HD
ATOM     24  H   UNL     1       8.992   7.695  19.138  0.00  0.00    +0.000 HD
ENDBRANCH   6  20
BRANCH   8  25
ATOM     25  C   UNL     1       6.113   4.376  14.184  0.00  0.00    +0.000 A 
ATOM     26  C   UNL     1       5.280   3.520  13.406  0.00  0.00    +0.000 A 
ATOM     27  C   UNL     1       5.921   3.343  12.203  0.00  0.00    +0.000 A 
ATOM     28  O   UNL     1       7.097   4.021  12.188  0.00  0.00    +0.000 OA
ATOM     29  C   UNL     1       7.211   4.643  13.391  0.00  0.00    +0.000 A 
ENDBRANCH   8  25
TORSDOF 4
ENDMDL
MODEL 6
REMARK VINA RESULT:      -6.8      3.289      6.123
REMARK  Name = 
REMARK  5 active torsions:
REMARK  status: ('A' for Active; 'I' for Inactive)
REMARK    1  A    between atoms: C_1  and  O_2
REMARK    2  A    between atoms: O_2  and  C_3
REMARK    3  A    between atoms: C_8  and  N_9
REMARK    4  A    between atoms: C_14  and  C_15
REMARK    5  A    between atoms: C_19  and  C_20
REMARK                            x       y       z     vdW  Elec       q    Type
REMARK                         _______ _______ _______ _____ _____    ______ ____
ROOT
ATOM      1  N   UNL     1       1.790   8.646  19.322  0.00  0.00    +0.000 N 
ATOM      2  C   UNL     1       2.252   9.337  18.171  0.00  0.00    +0.000 A 
ATOM      3  O   UNL     1       2.045  10.486  17.826  0.00  0.00    +0.000 OA
ATOM      4  N   UNL     1       3.058   8.427  17.469  0.00  0.00    +0.000 N 
ATOM      5  C   UNL     1       3.056   7.220  18.157  0.00  0.00    +0.000 A 
ATOM      6  C   UNL     1       3.636   6.012  17.906  0.00  0.00    +0.000 A 
ATOM      7  N   UNL     1       3.432   4.942  18.714  0.00  0.00    +0.000 NA
ATOM      8  C   UNL     1       2.612   5.145  19.772  0.00  0.00    +0.000 A 
ATOM      9  N   UNL     1       2.009   6.303  20.107  0.00  0.00    +0.000 NA
ATOM     10  C   UNL     1       2.282   7.327  19.291  0.00  0.00    +0.000 A 
ATOM     11  H   UNL     1       3.553   8.625  16.608  0.00  0.00    +0.000 HD
ENDROOT
BRANCH   1  17
ATOM     12  C   UNL     1      -0.207   9.859  20.143  0.00  0.00    +0.000 A 
ATOM     13  C   UNL     1      -0.972  10.267  21.248  0.00  0.00    +0.000 A 
ATOM     14  C   UNL     1      -0.500  10.093  22.550  0.00  0.00    +0.000 A 
ATOM     15  C   UNL     1       0.733   9.494  22.766  0.00  0.00    +0.000 A 
ATOM     16  C   UNL     1       1.480   9.038  21.680  0.00  0.00    +0.000 A 
ATOM     17  C   UNL     1       1.030   9.215  20.359  0.00  0.00    +0.000 A 
BRANCH  12  19
ATOM     18  C   UNL     1      -1.510  11.058  18.571  0.00  0.00    +0.000 C 
ATOM     19  O   UNL     1      -0.688   9.929  18.857  0.00  0.00    +0.000 OA
ENDBRANCH  12  19
ENDBRANCH   1  17
BRANCH   6  20
ATOM     20  C   UNL     1       4.524   5.814  16.729  0.00  0.00    +0.000 C 
ATOM     21  N   UNL     1       4.765   4.515  16.371  0.00  0.00    +0.000 N 
ATOM     22  O   UNL     1       5.024   6.754  16.118  0.00  0.00    +0.000 OA
ATOM     23  H   UNL     1       4.357   3.750  16.899  0.00  0.00    +0.000 HD
ATOM     24  H   UNL     1       5.376   4.318  15.590  0.00  0.00    +0.000 HD
ENDBRANCH   6  20
BRANCH   8  25
ATOM     25  C   UNL     1       2.364   3.989  20.609  0.00  0.00    +0.000 A 
ATOM     26  C   UNL     1       1.136   3.443  21.083  0.00  0.00    +0.000 A 
ATOM     27  C   UNL     1       1.464   2.340  21.833  0.00  0.00    +0.000 A 
ATOM     28  O   UNL     1       2.810   2.171  21.863  0.00  0.00    +0.000 OA
ATOM     29  C   UNL     1       3.352   3.175  21.124  0.00  0.00    +0.000 A 
ENDBRANCH   8  25
TORSDOF 4
ENDMDL
MODEL 7
REMARK VINA RESULT:      -6.6      2.558      6.231
REMARK  Name = 
REMARK  5 active torsions:
REMARK  status: ('A' for Active; 'I' for Inactive)
REMARK    1  A    between atoms: C_1  and  O_2
REMARK    2  A    between atoms: O_2  and  C_3
REMARK    3  A    between atoms: C_8  and  N_9
REMARK    4  A    between atoms: C_14  and  C_15
REMARK    5  A    between atoms: C_19  and  C_20
REMARK                            x       y       z     vdW  Elec       q    Type
REMARK                         _______ _______ _______ _____ _____    ______ ____
ROOT
ATOM      1  N   UNL     1       4.879   5.001  18.339  0.00  0.00    +0.000 N 
ATOM      2  C   UNL     1       4.790   3.635  17.963  0.00  0.00    +0.000 A 
ATOM      3  O   UNL     1       5.592   2.947  17.357  0.00  0.00    +0.000 OA
ATOM      4  N   UNL     1       3.561   3.174  18.459  0.00  0.00    +0.000 N 
ATOM      5  C   UNL     1       2.917   4.234  19.087  0.00  0.00    +0.000 A 
ATOM      6  C   UNL     1       1.705   4.349  19.701  0.00  0.00    +0.000 A 
ATOM      7  N   UNL     1       1.265   5.533  20.194  0.00  0.00    +0.000 NA
ATOM      8  C   UNL     1       2.093   6.590  20.028  0.00  0.00    +0.000 A 
ATOM      9  N   UNL     1       3.312   6.570  19.451  0.00  0.00    +0.000 NA
ATOM     10  C   UNL     1       3.702   5.365  19.020  0.00  0.00    +0.000 A 
ATOM     11  H   UNL     1       3.209   2.229  18.373  0.00  0.00    +0.000 HD
ENDROOT
BRANCH   1  17
ATOM     12  C   UNL     1       6.099   6.724  17.044  0.00  0.00    +0.000 A 
ATOM     13  C   UNL     1       7.180   7.620  16.994  0.00  0.00    +0.000 A 
ATOM     14  C   UNL     1       8.178   7.597  17.968  0.00  0.00    +0.000 A 
ATOM     15  C   UNL     1       8.100   6.691  19.017  0.00  0.00    +0.000 A 
ATOM     16  C   UNL     1       7.006   5.831  19.109  0.00  0.00    +0.000 A 
ATOM     17  C   UNL     1       5.997   5.829  18.130  0.00  0.00    +0.000 A 
BRANCH  12  19
ATOM     18  C   UNL     1       5.157   5.925  15.024  0.00  0.00    +0.000 C 
ATOM     19  O   UNL     1       5.054   6.789  16.154  0.00  0.00    +0.000 OA
ENDBRANCH  12  19
ENDBRANCH   1  17
BRANCH   6  20
ATOM     20  C   UNL     1       0.809   3.172  19.859  0.00  0.00    +0.000 C 
ATOM     21  N   UNL     1       0.656   2.701  21.134  0.00  0.00    +0.000 N 
ATOM     22  O   UNL     1       0.245   2.643  18.904  0.00  0.00    +0.000 OA
ATOM     23  H   UNL     1       1.144   3.141  21.908  0.00  0.00    +0.000 HD
ATOM     24  H   UNL     1       0.073   1.892  21.301  0.00  0.00    +0.000 HD
ENDBRANCH   6  20
BRANCH   8  25
ATOM     25  C   UNL     1       1.601   7.861  20.519  0.00  0.00    +0.000 A 
ATOM     26  C   UNL     1       1.233   8.257  21.837  0.00  0.00    +0.000 A 
ATOM     27  C   UNL     1       0.841   9.571  21.753  0.00  0.00    +0.000 A 
ATOM     28  O   UNL     1       0.932  10.012  20.473  0.00  0.00    +0.000 OA
ATOM     29  C   UNL     1       1.389   8.971  19.727  0.00  0.00    +0.000 A 
ENDBRANCH   8  25
TORSDOF 4
ENDMDL
MODEL 8
REMARK VINA RESULT:      -6.6      8.048     10.858
REMARK  Name = 
REMARK  5 active torsions:
REMARK  status: ('A' for Active; 'I' for Inactive)
REMARK    1  A    between atoms: C_1  and  O_2
REMARK    2  A    between atoms: O_2  and  C_3
REMARK    3  A    between atoms: C_8  and  N_9
REMARK    4  A    between atoms: C_14  and  C_15
REMARK    5  A    between atoms: C_19  and  C_20
REMARK                            x       y       z     vdW  Elec       q    Type
REMARK                         _______ _______ _______ _____ _____    ______ ____
ROOT
ATOM      1  N   UNL     1      -1.872  12.861  21.459  0.00  0.00    +0.000 N 
ATOM      2  C   UNL     1      -0.798  12.670  22.368  0.00  0.00    +0.000 A 
ATOM      3  O   UNL     1      -0.556  13.252  23.410  0.00  0.00    +0.000 OA
ATOM      4  N   UNL     1      -0.030  11.618  21.846  0.00  0.00    +0.000 N 
ATOM      5  C   UNL     1      -0.604  11.208  20.649  0.00  0.00    +0.000 A 
ATOM      6  C   UNL     1      -0.255  10.263  19.730  0.00  0.00    +0.000 A 
ATOM      7  N   UNL     1      -0.958  10.089  18.584  0.00  0.00    +0.000 NA
ATOM      8  C   UNL     1      -2.015  10.916  18.404  0.00  0.00    +0.000 A 
ATOM      9  N   UNL     1      -2.444  11.865  19.261  0.00  0.00    +0.000 NA
ATOM     10  C   UNL     1      -1.730  11.959  20.387  0.00  0.00    +0.000 A 
ATOM     11  H   UNL     1       0.800  11.228  22.275  0.00  0.00    +0.000 HD
ENDROOT
BRANCH   1  17
ATOM     12  C   UNL     1      -4.026  13.486  22.511  0.00  0.00    +0.000 A 
ATOM     13  C   UNL     1      -4.976  14.492  22.752  0.00  0.00    +0.000 A 
ATOM     14  C   UNL     1      -4.895  15.726  22.106  0.00  0.00    +0.000 A 
ATOM     15  C   UNL     1      -3.853  15.978  21.223  0.00  0.00    +0.000 A 
ATOM     16  C   UNL     1      -2.874  15.008  21.014  0.00  0.00    +0.000 A 
ATOM     17  C   UNL     1      -2.944  13.753  21.645  0.00  0.00    +0.000 A 
BRANCH  12  19
ATOM     18  C   UNL     1      -4.329  12.404  24.595  0.00  0.00    +0.000 C 
ATOM     19  O   UNL     1      -4.026  12.300  23.205  0.00  0.00    +0.000 OA
ENDBRANCH  12  19
ENDBRANCH   1  17
BRANCH   6  20
ATOM     20  C   UNL     1       0.919   9.376  19.948  0.00  0.00    +0.000 C 
ATOM     21  N   UNL     1       1.643   9.054  18.832  0.00  0.00    +0.000 N 
ATOM     22  O   UNL     1       1.220   8.946  21.058  0.00  0.00    +0.000 OA
ATOM     23  H   UNL     1       1.368   9.405  17.920  0.00  0.00    +0.000 HD
ATOM     24  H   UNL     1       2.441   8.440  18.915  0.00  0.00    +0.000 HD
ENDBRANCH   6  20
BRANCH   8  25
ATOM     25  C   UNL     1      -2.738  10.754  17.159  0.00  0.00    +0.000 A 
ATOM     26  C   UNL     1      -2.409  10.000  15.996  0.00  0.00    +0.000 A 
ATOM     27  C   UNL     1      -3.441  10.185  15.108  0.00  0.00    +0.000 A 
ATOM     28  O   UNL     1      -4.380  11.009  15.638  0.00  0.00    +0.000 OA
ATOM     29  C   UNL     1      -3.949  11.355  16.880  0.00  0.00    +0.000 A 
ENDBRANCH   8  25
TORSDOF 4
ENDMDL
MODEL 9
REMARK VINA RESULT:      -6.6      6.784      9.582
REMARK  Name = 
REMARK  5 active torsions:
REMARK  status: ('A' for Active; 'I' for Inactive)
REMARK    1  A    between atoms: C_1  and  O_2
REMARK    2  A    between atoms: O_2  and  C_3
REMARK    3  A    between atoms: C_8  and  N_9
REMARK    4  A    between atoms: C_14  and  C_15
REMARK    5  A    between atoms: C_19  and  C_20
REMARK                            x       y       z     vdW  Elec       q    Type
REMARK                         _______ _______ _______ _____ _____    ______ ____
ROOT
ATOM      1  N   UNL     1       1.034  13.773  18.959  0.00  0.00    +0.000 N 
ATOM      2  C   UNL     1      -0.150  14.555  18.897  0.00  0.00    +0.000 A 
ATOM      3  O   UNL     1      -0.288  15.757  19.031  0.00  0.00    +0.000 OA
ATOM      4  N   UNL     1      -1.192  13.659  18.613  0.00  0.00    +0.000 N 
ATOM      5  C   UNL     1      -0.660  12.378  18.536  0.00  0.00    +0.000 A 
ATOM      6  C   UNL     1      -1.221  11.154  18.320  0.00  0.00    +0.000 A 
ATOM      7  N   UNL     1      -0.484  10.016  18.353  0.00  0.00    +0.000 NA
ATOM      8  C   UNL     1       0.833  10.170  18.624  0.00  0.00    +0.000 A 
ATOM      9  N   UNL     1       1.477  11.336  18.834  0.00  0.00    +0.000 NA
ATOM     10  C   UNL     1       0.701  12.421  18.751  0.00  0.00    +0.000 A 
ATOM     11  H   UNL     1      -2.165  13.911  18.486  0.00  0.00    +0.000 HD
ENDROOT
BRANCH   1  17
ATOM     12  C   UNL     1       2.934  14.469  20.387  0.00  0.00    +0.000 A 
ATOM     13  C   UNL     1       4.287  14.839  20.457  0.00  0.00    +0.000 A 
ATOM     14  C   UNL     1       5.027  15.079  19.299  0.00  0.00    +0.000 A 
ATOM     15  C   UNL     1       4.429  14.935  18.054  0.00  0.00    +0.000 A 
ATOM     16  C   UNL     1       3.101  14.517  17.968  0.00  0.00    +0.000 A 
ATOM     17  C   UNL     1       2.335  14.282  19.123  0.00  0.00    +0.000 A 
BRANCH  12  19
ATOM     18  C   UNL     1       1.593  15.222  22.188  0.00  0.00    +0.000 C 
ATOM     19  O   UNL     1       2.210  14.132  21.507  0.00  0.00    +0.000 OA
ENDBRANCH  12  19
ENDBRANCH   1  17
BRANCH   6  20
ATOM     20  C   UNL     1      -2.674  11.013  18.036  0.00  0.00    +0.000 C 
ATOM     21  N   UNL     1      -3.019  10.033  17.147  0.00  0.00    +0.000 N 
ATOM     22  O   UNL     1      -3.518  11.738  18.556  0.00  0.00    +0.000 OA
ATOM     23  H   UNL     1      -2.306   9.455  16.713  0.00  0.00    +0.000 HD
ATOM     24  H   UNL     1      -3.991   9.901  16.900  0.00  0.00    +0.000 HD
ENDBRANCH   6  20
BRANCH   8  25
ATOM     25  C   UNL     1       1.609   8.949  18.700  0.00  0.00    +0.000 A 
ATOM     26  C   UNL     1       2.368   8.279  17.697  0.00  0.00    +0.000 A 
ATOM     27  C   UNL     1       2.912   7.169  18.298  0.00  0.00    +0.000 A 
ATOM     28  O   UNL     1       2.533   7.101  19.600  0.00  0.00    +0.000 OA
ATOM     29  C   UNL     1       1.740   8.180  19.838  0.00  0.00    +0.000 A 
ENDBRANCH   8  25
TORSDOF 4
ENDMDL
