MODEL 1
REMARK VINA RESULT:      -7.6      0.000      0.000
REMARK  Name = 
REMARK  2 active torsions:
REMARK  status: ('A' for Active; 'I' for Inactive)
REMARK    1  A    between atoms: C_7  and  C_8
REMARK    2  A    between atoms: N_13  and  C_14
REMARK                            x       y       z     vdW  Elec       q    Type
REMARK                         _______ _______ _______ _____ _____    ______ ____
ROOT
ATOM      1  C   UNL     1       2.024   8.555  18.727  0.00  0.00    +0.000 A 
ATOM      2  C   UNL     1       2.706   9.166  17.650  0.00  0.00    +0.000 A 
ATOM      3  N   UNL     1       3.499   8.313  16.979  0.00  0.00    +0.000 NA
ATOM      4  N   UNL     1       3.308   7.149  17.649  0.00  0.00    +0.000 N 
ATOM      5  C   UNL     1       4.010   5.952  17.419  0.00  0.00    +0.000 A 
ATOM      6  N   UNL     1       4.972   5.942  16.426  0.00  0.00    +0.000 N 
ATOM      7  N   UNL     1       3.723   4.928  18.175  0.00  0.00    +0.000 NA
ATOM      8  C   UNL     1       2.743   5.030  19.147  0.00  0.00    +0.000 A 
ATOM      9  N   UNL     1       2.480   3.928  19.914  0.00  0.00    +0.000 N 
ATOM     10  C   UNL     1       1.470   3.873  20.960  0.00  0.00    +0.000 C 
ATOM     11  C   UNL     1       2.136   3.062  22.060  0.00  0.00    +0.000 C 
ATOM     12  C   UNL     1       2.988   2.067  21.288  0.00  0.00    +0.000 C 
ATOM     13  C   UNL     1       3.420   2.822  20.032  0.00  0.00    +0.000 C 
ATOM     14  N   UNL     1       2.085   6.134  19.381  0.00  0.00    +0.000 NA
ATOM     15  C   UNL     1       2.392   7.234  18.654  0.00  0.00    +0.000 A 
ATOM     16  H   UNL     1       4.965   6.738  15.792  0.00  0.00    +0.000 HD
ENDROOT
BRANCH   1  23
ATOM     17  O   UNL     1      -1.788  12.051  17.503  0.00  0.00    +0.000 OA
ATOM     18  C   UNL     1      -1.269  11.397  18.390  0.00  0.00    +0.000 C 
ATOM     19  N   UNL     1      -1.578  11.445  19.723  0.00  0.00    +0.000 N 
ATOM     20  C   UNL     1      -0.756  10.633  20.458  0.00  0.00    +0.000 C 
ATOM     21  O   UNL     1      -0.740  10.475  21.663  0.00  0.00    +0.000 OA
ATOM     22  C   UNL     1       0.148   9.998  19.451  0.00  0.00    +0.000 C 
ATOM     23  C   UNL     1       1.141   9.129  19.702  0.00  0.00    +0.000 C 
ATOM     24  N   UNL     1      -0.241  10.493  18.239  0.00  0.00    +0.000 N 
ATOM     25  H   UNL     1      -2.283  12.048  20.108  0.00  0.00    +0.000 HD
ATOM     26  H   UNL     1       0.258  10.342  17.369  0.00  0.00    +0.000 HD
ENDBRANCH   1  23
BRANCH   6  27
ATOM     27  C   UNL     1       5.662   4.701  16.090  0.00  0.00    +0.000 C 
ATOM     28  C   UNL     1       5.692   4.167  14.683  0.00  0.00    +0.000 C 
ATOM     29  C   UNL     1       6.940   4.727  15.294  0.00  0.00    +0.000 C 
ENDBRANCH   6  27
TORSDOF 2
ENDMDL
MODEL 2
REMARK VINA RESULT:      -7.6      4.525      7.886
REMARK  Name = 
REMARK  2 active torsions:
REMARK  status: ('A' for Active; 'I' for Inactive)
REMARK    1  A    between atoms: C_7  and  C_8
REMARK    2  A    between atoms: N_13  and  C_14
REMARK                            x       y       z     vdW  Elec       q    Type
REMARK                         _______ _______ _______ _____ _____    ______ ____
ROOT
ATOM      1  C   UNL     1      -3.994  11.326  17.132  0.00  0.00    +0.000 A 
ATOM      2  C   UNL     1      -3.542  10.439  16.129  0.00  0.00    +0.000 A 
ATOM      3  N   UNL     1      -2.306   9.965  16.363  0.00  0.00    +0.000 NA
ATOM      4  N   UNL     1      -1.981  10.568  17.535  0.00  0.00    +0.000 N 
ATOM      5  C   UNL     1      -0.725  10.502  18.164  0.00  0.00    +0.000 A 
ATOM      6  N   UNL     1       0.269   9.758  17.556  0.00  0.00    +0.000 N 
ATOM      7  N   UNL     1      -0.570  11.166  19.276  0.00  0.00    +0.000 NA
ATOM      8  C   UNL     1      -1.624  11.886  19.813  0.00  0.00    +0.000 A 
ATOM      9  N   UNL     1      -1.409  12.567  20.980  0.00  0.00    +0.000 N 
ATOM     10  C   UNL     1      -2.420  13.352  21.675  0.00  0.00    +0.000 C 
ATOM     11  C   UNL     1      -1.654  14.572  22.160  0.00  0.00    +0.000 C 
ATOM     12  C   UNL     1      -0.275  14.013  22.473  0.00  0.00    +0.000 C 
ATOM     13  C   UNL     1      -0.072  12.895  21.454  0.00  0.00    +0.000 C 
ATOM     14  N   UNL     1      -2.795  11.966  19.240  0.00  0.00    +0.000 NA
ATOM     15  C   UNL     1      -2.979  11.334  18.057  0.00  0.00    +0.000 A 
ATOM     16  H   UNL     1      -0.033   9.142  16.804  0.00  0.00    +0.000 HD
ENDROOT
BRANCH   1  23
ATOM     17  O   UNL     1      -7.279  11.065  21.303  0.00  0.00    +0.000 OA
ATOM     18  C   UNL     1      -7.061  11.587  20.224  0.00  0.00    +0.000 C 
ATOM     19  N   UNL     1      -7.879  12.466  19.566  0.00  0.00    +0.000 N 
ATOM     20  C   UNL     1      -7.368  12.807  18.342  0.00  0.00    +0.000 C 
ATOM     21  O   UNL     1      -7.860  13.531  17.500  0.00  0.00    +0.000 OA
ATOM     22  C   UNL     1      -6.074  12.065  18.252  0.00  0.00    +0.000 C 
ATOM     23  C   UNL     1      -5.217  12.073  17.218  0.00  0.00    +0.000 C 
ATOM     24  N   UNL     1      -5.958  11.378  19.427  0.00  0.00    +0.000 N 
ATOM     25  H   UNL     1      -8.768  12.769  19.922  0.00  0.00    +0.000 HD
ATOM     26  H   UNL     1      -5.241  10.687  19.621  0.00  0.00    +0.000 HD
ENDBRANCH   1  23
BRANCH   6  27
ATOM     27  C   UNL     1       1.559   9.586  18.216  0.00  0.00    +0.000 C 
ATOM     28  C   UNL     1       1.825   8.432  19.146  0.00  0.00    +0.000 C 
ATOM     29  C   UNL     1       2.487   8.474  17.802  0.00  0.00    +0.000 C 
ENDBRANCH   6  27
TORSDOF 2
ENDMDL
MODEL 3
REMARK VINA RESULT:      -7.5      3.606      6.942
REMARK  Name = 
REMARK  2 active torsions:
REMARK  status: ('A' for Active; 'I' for Inactive)
REMARK    1  A    between atoms: C_7  and  C_8
REMARK    2  A    between atoms: N_13  and  C_14
REMARK                            x       y       z     vdW  Elec       q    Type
REMARK                         _______ _______ _______ _____ _____    ______ ____
ROOT
ATOM      1  C   UNL     1       3.933   7.237  17.170  0.00  0.00    +0.000 A 
ATOM      2  C   UNL     1       3.519   8.586  17.108  0.00  0.00    +0.000 A 
ATOM      3  N   UNL     1       2.725   8.940  18.133  0.00  0.00    +0.000 NA
ATOM      4  N   UNL     1       2.643   7.790  18.848  0.00  0.00    +0.000 N 
ATOM      5  C   UNL     1       1.820   7.587  19.971  0.00  0.00    +0.000 A 
ATOM      6  N   UNL     1       1.031   8.637  20.399  0.00  0.00    +0.000 N 
ATOM      7  N   UNL     1       1.839   6.406  20.527  0.00  0.00    +0.000 NA
ATOM      8  C   UNL     1       2.662   5.411  20.029  0.00  0.00    +0.000 A 
ATOM      9  N   UNL     1       2.643   4.191  20.646  0.00  0.00    +0.000 N 
ATOM     10  C   UNL     1       3.462   3.054  20.252  0.00  0.00    +0.000 C 
ATOM     11  C   UNL     1       2.525   1.867  20.406  0.00  0.00    +0.000 C 
ATOM     12  C   UNL     1       1.669   2.255  21.602  0.00  0.00    +0.000 C 
ATOM     13  C   UNL     1       1.548   3.775  21.512  0.00  0.00    +0.000 C 
ATOM     14  N   UNL     1       3.426   5.579  18.982  0.00  0.00    +0.000 NA
ATOM     15  C   UNL     1       3.396   6.772  18.345  0.00  0.00    +0.000 A 
ATOM     16  H   UNL     1       1.250   9.549  20.001  0.00  0.00    +0.000 HD
ENDROOT
BRANCH   1  23
ATOM     17  O   UNL     1       8.265   4.520  18.622  0.00  0.00    +0.000 OA
ATOM     18  C   UNL     1       7.514   4.803  17.706  0.00  0.00    +0.000 C 
ATOM     19  N   UNL     1       7.660   4.439  16.393  0.00  0.00    +0.000 N 
ATOM     20  C   UNL     1       6.678   4.983  15.610  0.00  0.00    +0.000 C 
ATOM     21  O   UNL     1       6.540   4.888  14.406  0.00  0.00    +0.000 OA
ATOM     22  C   UNL     1       5.817   5.752  16.560  0.00  0.00    +0.000 C 
ATOM     23  C   UNL     1       4.728   6.474  16.250  0.00  0.00    +0.000 C 
ATOM     24  N   UNL     1       6.376   5.572  17.794  0.00  0.00    +0.000 N 
ATOM     25  H   UNL     1       8.429   3.890  16.052  0.00  0.00    +0.000 HD
ATOM     26  H   UNL     1       6.089   6.066  18.633  0.00  0.00    +0.000 HD
ENDBRANCH   1  23
BRANCH   6  27
ATOM     27  C   UNL     1       0.231   8.502  21.612  0.00  0.00    +0.000 C 
ATOM     28  C   UNL     1       0.610   9.198  22.892  0.00  0.00    +0.000 C 
ATOM     29  C   UNL     1      -0.588   9.659  22.120  0.00  0.00    +0.000 C 
ENDBRANCH   6  27
TORSDOF 2
ENDMDL
MODEL 4
REMARK VINA RESULT:      -7.1      7.784      9.767
REMARK  Name = 
REMARK  2 active torsions:
REMARK  status: ('A' for Active; 'I' for Inactive)
REMARK    1  A    between atoms: C_7  and  C_8
REMARK    2  A    between atoms: N_13  and  C_14
REMARK                            x       y       z     vdW  Elec       q    Type
REMARK                         _______ _______ _______ _____ _____    ______ ____
ROOT
ATOM      1  C   UNL     1      -6.724  12.686  20.071  0.00  0.00    +0.000 A 
ATOM      2  C   UNL     1      -7.517  12.120  19.048  0.00  0.00    +0.000 A 
ATOM      3  N   UNL     1      -6.790  11.632  18.029  0.00  0.00    +0.000 NA
ATOM      4  N   UNL     1      -5.519  11.898  18.424  0.00  0.00    +0.000 N 
ATOM      5  C   UNL     1      -4.365  11.693  17.647  0.00  0.00    +0.000 A 
ATOM      6  N   UNL     1      -4.519  11.170  16.377  0.00  0.00    +0.000 N 
ATOM      7  N   UNL     1      -3.218  12.031  18.169  0.00  0.00    +0.000 NA
ATOM      8  C   UNL     1      -3.158  12.549  19.451  0.00  0.00    +0.000 A 
ATOM      9  N   UNL     1      -1.931  12.889  19.952  0.00  0.00    +0.000 N 
ATOM     10  C   UNL     1      -1.704  13.426  21.286  0.00  0.00    +0.000 C 
ATOM     11  C   UNL     1      -0.636  14.486  21.068  0.00  0.00    +0.000 C 
ATOM     12  C   UNL     1       0.211  13.898  19.951  0.00  0.00    +0.000 C 
ATOM     13  C   UNL     1      -0.775  13.107  19.094  0.00  0.00    +0.000 C 
ATOM     14  N   UNL     1      -4.220  12.754  20.185  0.00  0.00    +0.000 NA
ATOM     15  C   UNL     1      -5.433  12.466  19.659  0.00  0.00    +0.000 A 
ATOM     16  H   UNL     1      -5.434  10.777  16.166  0.00  0.00    +0.000 HD
ENDROOT
BRANCH   1  23
ATOM     17  O   UNL     1      -4.337  11.872  24.751  0.00  0.00    +0.000 OA
ATOM     18  C   UNL     1      -5.195  12.498  24.154  0.00  0.00    +0.000 C 
ATOM     19  N   UNL     1      -6.087  13.381  24.701  0.00  0.00    +0.000 N 
ATOM     20  C   UNL     1      -6.963  13.856  23.762  0.00  0.00    +0.000 C 
ATOM     21  O   UNL     1      -7.894  14.620  23.923  0.00  0.00    +0.000 OA
ATOM     22  C   UNL     1      -6.542  13.202  22.485  0.00  0.00    +0.000 C 
ATOM     23  C   UNL     1      -7.119  13.350  21.282  0.00  0.00    +0.000 C 
ATOM     24  N   UNL     1      -5.465  12.424  22.806  0.00  0.00    +0.000 N 
ATOM     25  H   UNL     1      -6.121  13.600  25.681  0.00  0.00    +0.000 HD
ATOM     26  H   UNL     1      -5.026  11.762  22.175  0.00  0.00    +0.000 HD
ENDBRANCH   1  23
BRANCH   6  27
ATOM     27  C   UNL     1      -3.345  10.856  15.569  0.00  0.00    +0.000 C 
ATOM     28  C   UNL     1      -2.749   9.474  15.542  0.00  0.00    +0.000 C 
ATOM     29  C   UNL     1      -3.471   9.998  14.339  0.00  0.00    +0.000 C 
ENDBRANCH   6  27
TORSDOF 2
ENDMDL
MODEL 5
REMARK VINA RESULT:      -7.1      3.278      8.781
REMARK  Name = 
REMARK  2 active torsions:
REMARK  status: ('A' for Active; 'I' for Inactive)
REMARK    1  A    between atoms: C_7  and  C_8
REMARK    2  A    between atoms: N_13  and  C_14
REMARK                            x       y       z     vdW  Elec       q    Type
REMARK                         _______ _______ _______ _____ _____    ______ ____
ROOT
ATOM      1  C   UNL     1       1.296   9.005  20.362  0.00  0.00    +0.000 A 
ATOM      2  C   UNL     1       1.635   9.476  21.650  0.00  0.00    +0.000 A 
ATOM      3  N   UNL     1       0.768  10.389  22.121  0.00  0.00    +0.000 NA
ATOM      4  N   UNL     1      -0.129  10.488  21.108  0.00  0.00    +0.000 N 
ATOM      5  C   UNL     1      -1.188  11.412  21.045  0.00  0.00    +0.000 A 
ATOM      6  N   UNL     1      -1.347  12.292  22.099  0.00  0.00    +0.000 N 
ATOM      7  N   UNL     1      -1.943  11.393  19.982  0.00  0.00    +0.000 NA
ATOM      8  C   UNL     1      -1.709  10.474  18.973  0.00  0.00    +0.000 A 
ATOM      9  N   UNL     1      -2.529  10.497  17.878  0.00  0.00    +0.000 N 
ATOM     10  C   UNL     1      -2.422   9.586  16.748  0.00  0.00    +0.000 C 
ATOM     11  C   UNL     1      -2.695  10.474  15.545  0.00  0.00    +0.000 C 
ATOM     12  C   UNL     1      -3.717  11.468  16.075  0.00  0.00    +0.000 C 
ATOM     13  C   UNL     1      -3.348  11.654  17.545  0.00  0.00    +0.000 C 
ATOM     14  N   UNL     1      -0.726   9.614  19.010  0.00  0.00    +0.000 NA
ATOM     15  C   UNL     1       0.113   9.638  20.071  0.00  0.00    +0.000 A 
ATOM     16  H   UNL     1      -0.816  12.079  22.941  0.00  0.00    +0.000 HD
ENDROOT
BRANCH   1  23
ATOM     17  O   UNL     1       2.180   3.929  21.670  0.00  0.00    +0.000 OA
ATOM     18  C   UNL     1       2.304   4.784  20.811  0.00  0.00    +0.000 C 
ATOM     19  N   UNL     1       2.955   4.645  19.614  0.00  0.00    +0.000 N 
ATOM     20  C   UNL     1       2.971   5.821  18.913  0.00  0.00    +0.000 C 
ATOM     21  O   UNL     1       3.495   6.047  17.840  0.00  0.00    +0.000 OA
ATOM     22  C   UNL     1       2.221   6.786  19.773  0.00  0.00    +0.000 C 
ATOM     23  C   UNL     1       1.988   8.081  19.507  0.00  0.00    +0.000 C 
ATOM     24  N   UNL     1       1.839   6.078  20.877  0.00  0.00    +0.000 N 
ATOM     25  H   UNL     1       3.411   3.798  19.325  0.00  0.00    +0.000 HD
ATOM     26  H   UNL     1       1.414   6.486  21.704  0.00  0.00    +0.000 HD
ENDBRANCH   1  23
BRANCH   6  27
ATOM     27  C   UNL     1      -2.485  13.206  22.121  0.00  0.00    +0.000 C 
ATOM     28  C   UNL     1      -3.772  12.852  22.815  0.00  0.00    +0.000 C 
ATOM     29  C   UNL     1      -2.878  13.906  23.395  0.00  0.00    +0.000 C 
ENDBRANCH   6  27
TORSDOF 2
ENDMDL
MODEL 6
REMARK VINA RESULT:      -7.0      3.661      9.198
REMARK  Name = 
REMARK  2 active torsions:
REMARK  status: ('A' for Active; 'I' for Inactive)
REMARK    1  A    between atoms: C_7  and  C_8
REMARK    2  A    between atoms: N_13  and  C_14
REMARK                            x       y       z     vdW  Elec       q    Type
REMARK                         _______ _______ _______ _____ _____    ______ ____
ROOT
ATOM      1  C   UNL     1       0.955   8.898  20.664  0.00  0.00    +0.000 A 
ATOM      2  C   UNL     1       0.125   8.478  21.728  0.00  0.00    +0.000 A 
ATOM      3  N   UNL     1      -0.523   9.495  22.321  0.00  0.00    +0.000 NA
ATOM      4  N   UNL     1      -0.090  10.569  21.614  0.00  0.00    +0.000 N 
ATOM      5  C   UNL     1      -0.380  11.912  21.913  0.00  0.00    +0.000 A 
ATOM      6  N   UNL     1      -1.178  12.178  23.010  0.00  0.00    +0.000 N 
ATOM      7  N   UNL     1       0.142  12.828  21.145  0.00  0.00    +0.000 NA
ATOM      8  C   UNL     1       0.932  12.470  20.066  0.00  0.00    +0.000 A 
ATOM      9  N   UNL     1       1.457  13.469  19.292  0.00  0.00    +0.000 N 
ATOM     10  C   UNL     1       2.288  13.251  18.117  0.00  0.00    +0.000 C 
ATOM     11  C   UNL     1       3.345  14.339  18.220  0.00  0.00    +0.000 C 
ATOM     12  C   UNL     1       2.587  15.501  18.842  0.00  0.00    +0.000 C 
ATOM     13  C   UNL     1       1.561  14.843  19.763  0.00  0.00    +0.000 C 
ATOM     14  N   UNL     1       1.219  11.229  19.777  0.00  0.00    +0.000 NA
ATOM     15  C   UNL     1       0.740  10.252  20.581  0.00  0.00    +0.000 A 
ATOM     16  H   UNL     1      -1.670  11.379  23.405  0.00  0.00    +0.000 HD
ENDROOT
BRANCH   1  23
ATOM     17  O   UNL     1       2.185   3.813  21.609  0.00  0.00    +0.000 OA
ATOM     18  C   UNL     1       2.327   4.761  20.856  0.00  0.00    +0.000 C 
ATOM     19  N   UNL     1       3.134   4.806  19.750  0.00  0.00    +0.000 N 
ATOM     20  C   UNL     1       3.116   6.045  19.168  0.00  0.00    +0.000 C 
ATOM     21  O   UNL     1       3.744   6.428  18.200  0.00  0.00    +0.000 OA
ATOM     22  C   UNL     1       2.170   6.845  20.005  0.00  0.00    +0.000 C 
ATOM     23  C   UNL     1       1.840   8.134  19.829  0.00  0.00    +0.000 C 
ATOM     24  N   UNL     1       1.728   5.994  20.978  0.00  0.00    +0.000 N 
ATOM     25  H   UNL     1       3.707   4.038  19.449  0.00  0.00    +0.000 HD
ATOM     26  H   UNL     1       1.163   6.273  21.773  0.00  0.00    +0.000 HD
ENDBRANCH   1  23
BRANCH   6  27
ATOM     27  C   UNL     1      -1.580  13.549  23.306  0.00  0.00    +0.000 C 
ATOM     28  C   UNL     1      -2.784  14.178  22.659  0.00  0.00    +0.000 C 
ATOM     29  C   UNL     1      -2.820  13.824  24.115  0.00  0.00    +0.000 C 
ENDBRANCH   6  27
TORSDOF 2
ENDMDL
MODEL 7
REMARK VINA RESULT:      -6.9      7.840      9.762
REMARK  Name = 
REMARK  2 active torsions:
REMARK  status: ('A' for Active; 'I' for Inactive)
REMARK    1  A    between atoms: C_7  and  C_8
REMARK    2  A    between atoms: N_13  and  C_14
REMARK                            x       y       z     vdW  Elec       q    Type
REMARK                         _______ _______ _______ _____ _____    ______ ____
ROOT
ATOM      1  C   UNL     1      -6.759  12.167  20.620  0.00  0.00    +0.000 A 
ATOM      2  C   UNL     1      -7.529  11.738  19.516  0.00  0.00    +0.000 A 
ATOM      3  N   UNL     1      -6.784  11.450  18.435  0.00  0.00    +0.000 NA
ATOM      4  N   UNL     1      -5.525  11.703  18.874  0.00  0.00    +0.000 N 
ATOM      5  C   UNL     1      -4.365  11.674  18.080  0.00  0.00    +0.000 A 
ATOM      6  N   UNL     1      -4.499  11.354  16.742  0.00  0.00    +0.000 N 
ATOM      7  N   UNL     1      -3.232  11.973  18.655  0.00  0.00    +0.000 NA
ATOM      8  C   UNL     1      -3.192  12.282  20.003  0.00  0.00    +0.000 A 
ATOM      9  N   UNL     1      -1.980  12.589  20.558  0.00  0.00    +0.000 N 
ATOM     10  C   UNL     1      -1.773  12.917  21.961  0.00  0.00    +0.000 C 
ATOM     11  C   UNL     1      -0.752  14.042  21.920  0.00  0.00    +0.000 C 
ATOM     12  C   UNL     1       0.118  13.676  20.727  0.00  0.00    +0.000 C 
ATOM     13  C   UNL     1      -0.836  12.991  19.751  0.00  0.00    +0.000 C 
ATOM     14  N   UNL     1      -4.260  12.322  20.755  0.00  0.00    +0.000 NA
ATOM     15  C   UNL     1      -5.460  12.070  20.184  0.00  0.00    +0.000 A 
ATOM     16  H   UNL     1      -5.396  10.961  16.467  0.00  0.00    +0.000 HD
ENDROOT
BRANCH   1  23
ATOM     17  O   UNL     1      -4.748  16.464  23.019  0.00  0.00    +0.000 OA
ATOM     18  C   UNL     1      -5.561  15.559  23.089  0.00  0.00    +0.000 C 
ATOM     19  N   UNL     1      -6.382  15.285  24.150  0.00  0.00    +0.000 N 
ATOM     20  C   UNL     1      -7.124  14.155  23.931  0.00  0.00    +0.000 C 
ATOM     21  O   UNL     1      -7.916  13.620  24.682  0.00  0.00    +0.000 OA
ATOM     22  C   UNL     1      -6.725  13.698  22.564  0.00  0.00    +0.000 C 
ATOM     23  C   UNL     1      -7.179  12.612  21.919  0.00  0.00    +0.000 C 
ATOM     24  N   UNL     1      -5.804  14.606  22.125  0.00  0.00    +0.000 N 
ATOM     25  H   UNL     1      -6.387  15.819  25.001  0.00  0.00    +0.000 HD
ATOM     26  H   UNL     1      -5.256  14.506  21.278  0.00  0.00    +0.000 HD
ENDBRANCH   1  23
BRANCH   6  27
ATOM     27  C   UNL     1      -3.314  11.222  15.900  0.00  0.00    +0.000 C 
ATOM     28  C   UNL     1      -2.493   9.961  15.880  0.00  0.00    +0.000 C 
ATOM     29  C   UNL     1      -3.330  10.324  14.692  0.00  0.00    +0.000 C 
ENDBRANCH   6  27
TORSDOF 2
ENDMDL
MODEL 8
REMARK VINA RESULT:      -6.9      1.597      4.455
REMARK  Name = 
REMARK  2 active torsions:
REMARK  status: ('A' for Active; 'I' for Inactive)
REMARK    1  A    between atoms: C_7  and  C_8
REMARK    2  A    between atoms: N_13  and  C_14
REMARK                            x       y       z     vdW  Elec       q    Type
REMARK                         _______ _______ _______ _____ _____    ______ ____
ROOT
ATOM      1  C   UNL     1       1.299   9.079  20.029  0.00  0.00    +0.000 A 
ATOM      2  C   UNL     1       0.416   8.653  21.046  0.00  0.00    +0.000 A 
ATOM      3  N   UNL     1       0.494   7.334  21.292  0.00  0.00    +0.000 NA
ATOM      4  N   UNL     1       1.444   6.930  20.412  0.00  0.00    +0.000 N 
ATOM      5  C   UNL     1       1.820   5.595  20.175  0.00  0.00    +0.000 A 
ATOM      6  N   UNL     1       1.185   4.602  20.897  0.00  0.00    +0.000 N 
ATOM      7  N   UNL     1       2.734   5.377  19.270  0.00  0.00    +0.000 NA
ATOM      8  C   UNL     1       3.317   6.435  18.594  0.00  0.00    +0.000 A 
ATOM      9  N   UNL     1       4.269   6.153  17.654  0.00  0.00    +0.000 N 
ATOM     10  C   UNL     1       4.983   7.154  16.876  0.00  0.00    +0.000 C 
ATOM     11  C   UNL     1       5.070   6.536  15.490  0.00  0.00    +0.000 C 
ATOM     12  C   UNL     1       5.213   5.051  15.782  0.00  0.00    +0.000 C 
ATOM     13  C   UNL     1       4.405   4.830  17.059  0.00  0.00    +0.000 C 
ATOM     14  N   UNL     1       2.975   7.680  18.794  0.00  0.00    +0.000 NA
ATOM     15  C   UNL     1       1.993   7.944  19.687  0.00  0.00    +0.000 A 
ATOM     16  H   UNL     1       0.637   4.914  21.696  0.00  0.00    +0.000 HD
ENDROOT
BRANCH   1  23
ATOM     17  O   UNL     1      -2.679  11.869  17.873  0.00  0.00    +0.000 OA
ATOM     18  C   UNL     1      -1.495  11.860  18.160  0.00  0.00    +0.000 C 
ATOM     19  N   UNL     1      -0.579  12.833  17.861  0.00  0.00    +0.000 N 
ATOM     20  C   UNL     1       0.680  12.478  18.266  0.00  0.00    +0.000 C 
ATOM     21  O   UNL     1       1.716  13.095  18.120  0.00  0.00    +0.000 OA
ATOM     22  C   UNL     1       0.508  11.139  18.909  0.00  0.00    +0.000 C 
ATOM     23  C   UNL     1       1.475  10.380  19.447  0.00  0.00    +0.000 C 
ATOM     24  N   UNL     1      -0.825  10.855  18.822  0.00  0.00    +0.000 N 
ATOM     25  H   UNL     1      -0.805  13.671  17.355  0.00  0.00    +0.000 HD
ATOM     26  H   UNL     1      -1.240   9.962  19.063  0.00  0.00    +0.000 HD
ENDBRANCH   1  23
BRANCH   6  27
ATOM     27  C   UNL     1       1.605   3.212  20.752  0.00  0.00    +0.000 C 
ATOM     28  C   UNL     1       2.852   2.688  21.412  0.00  0.00    +0.000 C 
ATOM     29  C   UNL     1       1.506   2.258  21.913  0.00  0.00    +0.000 C 
ENDBRANCH   6  27
TORSDOF 2
ENDMDL
MODEL 9
REMARK VINA RESULT:      -6.8      3.428      6.484
REMARK  Name = 
REMARK  2 active torsions:
REMARK  status: ('A' for Active; 'I' for Inactive)
REMARK    1  A    between atoms: C_7  and  C_8
REMARK    2  A    between atoms: N_13  and  C_14
REMARK                            x       y       z     vdW  Elec       q    Type
REMARK                         _______ _______ _______ _____ _____    ______ ____
ROOT
ATOM      1  C   UNL     1      -0.619  10.544  22.474  0.00  0.00    +0.000 A 
ATOM      2  C   UNL     1       0.516   9.864  22.971  0.00  0.00    +0.000 A 
ATOM      3  N   UNL     1       1.244   9.280  22.004  0.00  0.00    +0.000 NA
ATOM      4  N   UNL     1       0.551   9.603  20.883  0.00  0.00    +0.000 N 
ATOM      5  C   UNL     1       0.829   9.128  19.588  0.00  0.00    +0.000 A 
ATOM      6  N   UNL     1       1.899   8.268  19.426  0.00  0.00    +0.000 N 
ATOM      7  N   UNL     1       0.044   9.515  18.621  0.00  0.00    +0.000 NA
ATOM      8  C   UNL     1      -1.006  10.380  18.877  0.00  0.00    +0.000 A 
ATOM      9  N   UNL     1      -1.802  10.755  17.829  0.00  0.00    +0.000 N 
ATOM     10  C   UNL     1      -2.930  11.669  17.934  0.00  0.00    +0.000 C 
ATOM     11  C   UNL     1      -3.976  11.054  17.019  0.00  0.00    +0.000 C 
ATOM     12  C   UNL     1      -3.144  10.445  15.902  0.00  0.00    +0.000 C 
ATOM     13  C   UNL     1      -1.850  10.002  16.583  0.00  0.00    +0.000 C 
ATOM     14  N   UNL     1      -1.285  10.825  20.073  0.00  0.00    +0.000 NA
ATOM     15  C   UNL     1      -0.526  10.405  21.111  0.00  0.00    +0.000 A 
ATOM     16  H   UNL     1       2.537   8.198  20.216  0.00  0.00    +0.000 HD
ENDROOT
BRANCH   1  23
ATOM     17  O   UNL     1      -1.672  15.708  21.782  0.00  0.00    +0.000 OA
ATOM     18  C   UNL     1      -1.998  14.681  22.351  0.00  0.00    +0.000 C 
ATOM     19  N   UNL     1      -2.980  14.553  23.297  0.00  0.00    +0.000 N 
ATOM     20  C   UNL     1      -3.041  13.275  23.785  0.00  0.00    +0.000 C 
ATOM     21  O   UNL     1      -3.770  12.838  24.654  0.00  0.00    +0.000 OA
ATOM     22  C   UNL     1      -1.986  12.530  23.032  0.00  0.00    +0.000 C 
ATOM     23  C   UNL     1      -1.660  11.236  23.180  0.00  0.00    +0.000 C 
ATOM     24  N   UNL     1      -1.427  13.440  22.181  0.00  0.00    +0.000 N 
ATOM     25  H   UNL     1      -3.539  15.320  23.625  0.00  0.00    +0.000 HD
ATOM     26  H   UNL     1      -0.600  13.269  21.619  0.00  0.00    +0.000 HD
ENDBRANCH   1  23
BRANCH   6  27
ATOM     27  C   UNL     1       2.281   7.822  18.090  0.00  0.00    +0.000 C 
ATOM     28  C   UNL     1       3.678   7.353  17.781  0.00  0.00    +0.000 C 
ATOM     29  C   UNL     1       2.551   6.366  17.819  0.00  0.00    +0.000 C 
ENDBRANCH   6  27
TORSDOF 2
ENDMDL
