MODEL 1
REMARK VINA RESULT:      -8.8      0.000      0.000
REMARK  Name = 
REMARK  4 active torsions:
REMARK  status: ('A' for Active; 'I' for Inactive)
REMARK    1  A    between atoms: C_1  and  C_2
REMARK    2  A    between atoms: N_8  and  S_9
REMARK    3  A    between atoms: S_9  and  C_12
REMARK    4  A    between atoms: C_15  and  C_16
REMARK                            x       y       z     vdW  Elec       q    Type
REMARK                         _______ _______ _______ _____ _____    ______ ____
ROOT
ATOM      1  S   UNL     1       3.393   3.708  18.026  0.00  0.00    +0.000 S 
ATOM      2  O   UNL     1       2.794   3.608  16.709  0.00  0.00    +0.000 OA
ATOM      3  O   UNL     1       3.231   2.616  18.971  0.00  0.00    +0.000 OA
ENDROOT
BRANCH   1  11
ATOM      4  C   UNL     1       5.543   3.586  12.925  0.00  0.00    +0.000 C 
ATOM      5  C   UNL     1       5.993   4.158  14.232  0.00  0.00    +0.000 A 
ATOM      6  C   UNL     1       7.137   4.933  14.346  0.00  0.00    +0.000 A 
ATOM      7  N   UNL     1       7.579   5.446  15.512  0.00  0.00    +0.000 NA
ATOM      8  C   UNL     1       6.851   5.175  16.618  0.00  0.00    +0.000 A 
ATOM      9  C   UNL     1       5.673   4.405  16.624  0.00  0.00    +0.000 A 
ATOM     10  C   UNL     1       5.263   3.891  15.397  0.00  0.00    +0.000 A 
ATOM     11  N   UNL     1       5.044   4.040  17.876  0.00  0.00    +0.000 N 
ATOM     12  C   UNL     1       5.805   4.425  19.090  0.00  0.00    +0.000 C 
ATOM     13  C   UNL     1       6.498   5.759  18.855  0.00  0.00    +0.000 C 
ATOM     14  O   UNL     1       7.413   5.691  17.763  0.00  0.00    +0.000 OA
ENDBRANCH   1  11
BRANCH   1  15
ATOM     15  C   UNL     1       2.693   5.148  18.812  0.00  0.00    +0.000 A 
ATOM     16  C   UNL     1       2.094   5.033  20.069  0.00  0.00    +0.000 A 
ATOM     17  C   UNL     1       1.654   6.182  20.740  0.00  0.00    +0.000 A 
ATOM     18  C   UNL     1       1.803   7.463  20.182  0.00  0.00    +0.000 A 
ATOM     19  C   UNL     1       2.409   7.545  18.914  0.00  0.00    +0.000 A 
ATOM     20  C   UNL     1       2.866   6.407  18.236  0.00  0.00    +0.000 A 
BRANCH  18  21
ATOM     21  C   UNL     1       1.279   8.695  20.886  0.00  0.00    +0.000 C 
ATOM     22  C   UNL     1       0.107   9.478  20.336  0.00  0.00    +0.000 C 
ATOM     23  C   UNL     1      -0.066   8.660  21.578  0.00  0.00    +0.000 C 
ENDBRANCH  18  21
ENDBRANCH   1  15
TORSDOF 3
ENDMDL
MODEL 2
REMARK VINA RESULT:      -8.7      0.289      1.044
REMARK  Name = 
REMARK  4 active torsions:
REMARK  status: ('A' for Active; 'I' for Inactive)
REMARK    1  A    between atoms: C_1  and  C_2
REMARK    2  A    between atoms: N_8  and  S_9
REMARK    3  A    between atoms: S_9  and  C_12
REMARK    4  A    between atoms: C_15  and  C_16
REMARK                            x       y       z     vdW  Elec       q    Type
REMARK                         _______ _______ _______ _____ _____    ______ ____
ROOT
ATOM      1  S   UNL     1       3.630   3.845  18.028  0.00  0.00    +0.000 S 
ATOM      2  O   UNL     1       2.912   3.766  16.770  0.00  0.00    +0.000 OA
ATOM      3  O   UNL     1       3.550   2.740  18.967  0.00  0.00    +0.000 OA
ENDROOT
BRANCH   1  11
ATOM      4  C   UNL     1       5.374   3.465  12.786  0.00  0.00    +0.000 C 
ATOM      5  C   UNL     1       5.921   4.107  14.022  0.00  0.00    +0.000 A 
ATOM      6  C   UNL     1       7.065   4.890  14.006  0.00  0.00    +0.000 A 
ATOM      7  N   UNL     1       7.593   5.465  15.106  0.00  0.00    +0.000 NA
ATOM      8  C   UNL     1       6.956   5.249  16.278  0.00  0.00    +0.000 A 
ATOM      9  C   UNL     1       5.788   4.476  16.416  0.00  0.00    +0.000 A 
ATOM     10  C   UNL     1       5.286   3.898  15.253  0.00  0.00    +0.000 A 
ATOM     11  N   UNL     1       5.261   4.174  17.731  0.00  0.00    +0.000 N 
ATOM     12  C   UNL     1       6.112   4.625  18.860  0.00  0.00    +0.000 C 
ATOM     13  C   UNL     1       6.775   5.946  18.503  0.00  0.00    +0.000 C 
ATOM     14  O   UNL     1       7.602   5.825  17.347  0.00  0.00    +0.000 OA
ENDBRANCH   1  11
BRANCH   1  15
ATOM     15  C   UNL     1       3.011   5.275  18.895  0.00  0.00    +0.000 A 
ATOM     16  C   UNL     1       3.027   6.526  18.273  0.00  0.00    +0.000 A 
ATOM     17  C   UNL     1       2.431   7.626  18.905  0.00  0.00    +0.000 A 
ATOM     18  C   UNL     1       1.804   7.506  20.157  0.00  0.00    +0.000 A 
ATOM     19  C   UNL     1       1.806   6.233  20.757  0.00  0.00    +0.000 A 
ATOM     20  C   UNL     1       2.386   5.121  20.133  0.00  0.00    +0.000 A 
BRANCH  18  21
ATOM     21  C   UNL     1       1.208   8.707  20.858  0.00  0.00    +0.000 C 
ATOM     22  C   UNL     1       0.025   9.451  20.278  0.00  0.00    +0.000 C 
ATOM     23  C   UNL     1      -0.156   8.610  21.504  0.00  0.00    +0.000 C 
ENDBRANCH  18  21
ENDBRANCH   1  15
TORSDOF 3
ENDMDL
MODEL 3
REMARK VINA RESULT:      -8.2      0.999      1.205
REMARK  Name = 
REMARK  4 active torsions:
REMARK  status: ('A' for Active; 'I' for Inactive)
REMARK    1  A    between atoms: C_1  and  C_2
REMARK    2  A    between atoms: N_8  and  S_9
REMARK    3  A    between atoms: S_9  and  C_12
REMARK    4  A    between atoms: C_15  and  C_16
REMARK                            x       y       z     vdW  Elec       q    Type
REMARK                         _______ _______ _______ _____ _____    ______ ____
ROOT
ATOM      1  S   UNL     1       3.961   3.944  18.296  0.00  0.00    +0.000 S 
ATOM      2  O   UNL     1       3.320   3.303  17.164  0.00  0.00    +0.000 OA
ATOM      3  O   UNL     1       3.978   3.272  19.584  0.00  0.00    +0.000 OA
ENDROOT
BRANCH   1  11
ATOM      4  C   UNL     1       5.442   3.391  12.989  0.00  0.00    +0.000 C 
ATOM      5  C   UNL     1       6.012   4.130  14.158  0.00  0.00    +0.000 A 
ATOM      6  C   UNL     1       7.101   4.981  14.037  0.00  0.00    +0.000 A 
ATOM      7  N   UNL     1       7.649   5.645  15.075  0.00  0.00    +0.000 NA
ATOM      8  C   UNL     1       7.091   5.454  16.291  0.00  0.00    +0.000 A 
ATOM      9  C   UNL     1       5.984   4.619  16.534  0.00  0.00    +0.000 A 
ATOM     10  C   UNL     1       5.459   3.950  15.432  0.00  0.00    +0.000 A 
ATOM     11  N   UNL     1       5.550   4.357  17.891  0.00  0.00    +0.000 N 
ATOM     12  C   UNL     1       6.429   4.919  18.945  0.00  0.00    +0.000 C 
ATOM     13  C   UNL     1       6.986   6.258  18.485  0.00  0.00    +0.000 C 
ATOM     14  O   UNL     1       7.755   6.125  17.291  0.00  0.00    +0.000 OA
ENDBRANCH   1  11
BRANCH   1  15
ATOM     15  C   UNL     1       3.124   5.497  18.562  0.00  0.00    +0.000 A 
ATOM     16  C   UNL     1       2.540   5.770  19.801  0.00  0.00    +0.000 A 
ATOM     17  C   UNL     1       1.991   7.035  20.049  0.00  0.00    +0.000 A 
ATOM     18  C   UNL     1       2.015   8.052  19.080  0.00  0.00    +0.000 A 
ATOM     19  C   UNL     1       2.609   7.745  17.842  0.00  0.00    +0.000 A 
ATOM     20  C   UNL     1       3.174   6.490  17.582  0.00  0.00    +0.000 A 
BRANCH  18  21
ATOM     21  C   UNL     1       1.374   9.398  19.335  0.00  0.00    +0.000 C 
ATOM     22  C   UNL     1       1.672  10.593  18.454  0.00  0.00    +0.000 C 
ATOM     23  C   UNL     1       0.329   9.935  18.381  0.00  0.00    +0.000 C 
ENDBRANCH  18  21
ENDBRANCH   1  15
TORSDOF 3
ENDMDL
MODEL 4
REMARK VINA RESULT:      -7.5      2.150      6.802
REMARK  Name = 
REMARK  4 active torsions:
REMARK  status: ('A' for Active; 'I' for Inactive)
REMARK    1  A    between atoms: C_1  and  C_2
REMARK    2  A    between atoms: N_8  and  S_9
REMARK    3  A    between atoms: S_9  and  C_12
REMARK    4  A    between atoms: C_15  and  C_16
REMARK                            x       y       z     vdW  Elec       q    Type
REMARK                         _______ _______ _______ _____ _____    ______ ____
ROOT
ATOM      1  S   UNL     1       6.790   5.241  17.883  0.00  0.00    +0.000 S 
ATOM      2  O   UNL     1       6.969   6.678  17.972  0.00  0.00    +0.000 OA
ATOM      3  O   UNL     1       7.869   4.359  18.290  0.00  0.00    +0.000 OA
ENDROOT
BRANCH   1  11
ATOM      4  C   UNL     1       2.499   8.738  17.706  0.00  0.00    +0.000 C 
ATOM      5  C   UNL     1       2.651   7.293  18.063  0.00  0.00    +0.000 A 
ATOM      6  C   UNL     1       1.564   6.483  18.354  0.00  0.00    +0.000 A 
ATOM      7  N   UNL     1       1.671   5.183  18.697  0.00  0.00    +0.000 NA
ATOM      8  C   UNL     1       2.917   4.664  18.758  0.00  0.00    +0.000 A 
ATOM      9  C   UNL     1       4.093   5.387  18.482  0.00  0.00    +0.000 A 
ATOM     10  C   UNL     1       3.930   6.726  18.138  0.00  0.00    +0.000 A 
ATOM     11  N   UNL     1       5.391   4.791  18.719  0.00  0.00    +0.000 N 
ATOM     12  C   UNL     1       5.354   3.461  19.377  0.00  0.00    +0.000 C 
ATOM     13  C   UNL     1       4.148   2.679  18.880  0.00  0.00    +0.000 C 
ATOM     14  O   UNL     1       2.925   3.353  19.174  0.00  0.00    +0.000 OA
ENDBRANCH   1  11
BRANCH   1  15
ATOM     15  C   UNL     1       6.459   4.860  16.172  0.00  0.00    +0.000 A 
ATOM     16  C   UNL     1       7.409   5.166  15.195  0.00  0.00    +0.000 A 
ATOM     17  C   UNL     1       7.203   4.757  13.870  0.00  0.00    +0.000 A 
ATOM     18  C   UNL     1       6.059   4.035  13.492  0.00  0.00    +0.000 A 
ATOM     19  C   UNL     1       5.120   3.743  14.499  0.00  0.00    +0.000 A 
ATOM     20  C   UNL     1       5.317   4.134  15.830  0.00  0.00    +0.000 A 
BRANCH  18  21
ATOM     21  C   UNL     1       5.817   3.642  12.051  0.00  0.00    +0.000 C 
ATOM     22  C   UNL     1       5.562   2.202  11.659  0.00  0.00    +0.000 C 
ATOM     23  C   UNL     1       4.442   3.194  11.606  0.00  0.00    +0.000 C 
ENDBRANCH  18  21
ENDBRANCH   1  15
TORSDOF 3
ENDMDL
MODEL 5
REMARK VINA RESULT:      -7.4      2.353      7.222
REMARK  Name = 
REMARK  4 active torsions:
REMARK  status: ('A' for Active; 'I' for Inactive)
REMARK    1  A    between atoms: C_1  and  C_2
REMARK    2  A    between atoms: N_8  and  S_9
REMARK    3  A    between atoms: S_9  and  C_12
REMARK    4  A    between atoms: C_15  and  C_16
REMARK                            x       y       z     vdW  Elec       q    Type
REMARK                         _______ _______ _______ _____ _____    ______ ____
ROOT
ATOM      1  S   UNL     1       6.004   5.337  17.800  0.00  0.00    +0.000 S 
ATOM      2  O   UNL     1       6.872   6.493  17.912  0.00  0.00    +0.000 OA
ATOM      3  O   UNL     1       6.221   4.193  18.668  0.00  0.00    +0.000 OA
ENDROOT
BRANCH   1  11
ATOM      4  C   UNL     1       2.849   2.538  21.388  0.00  0.00    +0.000 C 
ATOM      5  C   UNL     1       2.727   3.865  20.708  0.00  0.00    +0.000 A 
ATOM      6  C   UNL     1       1.700   4.752  20.993  0.00  0.00    +0.000 A 
ATOM      7  N   UNL     1       1.552   5.946  20.383  0.00  0.00    +0.000 NA
ATOM      8  C   UNL     1       2.466   6.273  19.443  0.00  0.00    +0.000 A 
ATOM      9  C   UNL     1       3.551   5.457  19.073  0.00  0.00    +0.000 A 
ATOM     10  C   UNL     1       3.656   4.232  19.726  0.00  0.00    +0.000 A 
ATOM     11  N   UNL     1       4.391   5.821  17.951  0.00  0.00    +0.000 N 
ATOM     12  C   UNL     1       3.931   7.009  17.189  0.00  0.00    +0.000 C 
ATOM     13  C   UNL     1       3.319   8.021  18.145  0.00  0.00    +0.000 C 
ATOM     14  O   UNL     1       2.197   7.479  18.838  0.00  0.00    +0.000 OA
ENDBRANCH   1  11
BRANCH   1  15
ATOM     15  C   UNL     1       6.158   4.725  16.131  0.00  0.00    +0.000 A 
ATOM     16  C   UNL     1       5.133   3.956  15.575  0.00  0.00    +0.000 A 
ATOM     17  C   UNL     1       5.198   3.579  14.227  0.00  0.00    +0.000 A 
ATOM     18  C   UNL     1       6.273   3.960  13.406  0.00  0.00    +0.000 A 
ATOM     19  C   UNL     1       7.290   4.734  13.996  0.00  0.00    +0.000 A 
ATOM     20  C   UNL     1       7.233   5.130  15.339  0.00  0.00    +0.000 A 
BRANCH  18  21
ATOM     21  C   UNL     1       6.364   3.507  11.966  0.00  0.00    +0.000 C 
ATOM     22  C   UNL     1       7.085   2.232  11.585  0.00  0.00    +0.000 C 
ATOM     23  C   UNL     1       5.592   2.291  11.502  0.00  0.00    +0.000 C 
ENDBRANCH  18  21
ENDBRANCH   1  15
TORSDOF 3
ENDMDL
MODEL 6
REMARK VINA RESULT:      -7.4      2.164      6.747
REMARK  Name = 
REMARK  4 active torsions:
REMARK  status: ('A' for Active; 'I' for Inactive)
REMARK    1  A    between atoms: C_1  and  C_2
REMARK    2  A    between atoms: N_8  and  S_9
REMARK    3  A    between atoms: S_9  and  C_12
REMARK    4  A    between atoms: C_15  and  C_16
REMARK                            x       y       z     vdW  Elec       q    Type
REMARK                         _______ _______ _______ _____ _____    ______ ____
ROOT
ATOM      1  S   UNL     1       6.814   5.238  17.917  0.00  0.00    +0.000 S 
ATOM      2  O   UNL     1       6.914   6.684  17.894  0.00  0.00    +0.000 OA
ATOM      3  O   UNL     1       7.920   4.451  18.435  0.00  0.00    +0.000 OA
ENDROOT
BRANCH   1  11
ATOM      4  C   UNL     1       2.505   8.708  17.683  0.00  0.00    +0.000 C 
ATOM      5  C   UNL     1       2.662   7.265  18.044  0.00  0.00    +0.000 A 
ATOM      6  C   UNL     1       1.576   6.449  18.323  0.00  0.00    +0.000 A 
ATOM      7  N   UNL     1       1.686   5.150  18.669  0.00  0.00    +0.000 NA
ATOM      8  C   UNL     1       2.934   4.638  18.746  0.00  0.00    +0.000 A 
ATOM      9  C   UNL     1       4.109   5.368  18.483  0.00  0.00    +0.000 A 
ATOM     10  C   UNL     1       3.943   6.706  18.136  0.00  0.00    +0.000 A 
ATOM     11  N   UNL     1       5.408   4.780  18.737  0.00  0.00    +0.000 N 
ATOM     12  C   UNL     1       5.370   3.451  19.397  0.00  0.00    +0.000 C 
ATOM     13  C   UNL     1       4.175   2.661  18.885  0.00  0.00    +0.000 C 
ATOM     14  O   UNL     1       2.945   3.328  19.164  0.00  0.00    +0.000 OA
ENDBRANCH   1  11
BRANCH   1  15
ATOM     15  C   UNL     1       6.573   4.702  16.233  0.00  0.00    +0.000 A 
ATOM     16  C   UNL     1       5.376   4.083  15.865  0.00  0.00    +0.000 A 
ATOM     17  C   UNL     1       5.137   3.772  14.519  0.00  0.00    +0.000 A 
ATOM     18  C   UNL     1       6.074   4.074  13.516  0.00  0.00    +0.000 A 
ATOM     19  C   UNL     1       7.270   4.696  13.920  0.00  0.00    +0.000 A 
ATOM     20  C   UNL     1       7.518   5.025  15.259  0.00  0.00    +0.000 A 
BRANCH  18  21
ATOM     21  C   UNL     1       5.834   3.690  12.073  0.00  0.00    +0.000 C 
ATOM     22  C   UNL     1       5.664   2.243  11.660  0.00  0.00    +0.000 C 
ATOM     23  C   UNL     1       4.483   3.163  11.641  0.00  0.00    +0.000 C 
ENDBRANCH  18  21
ENDBRANCH   1  15
TORSDOF 3
ENDMDL
MODEL 7
REMARK VINA RESULT:      -7.4      2.301      6.982
REMARK  Name = 
REMARK  4 active torsions:
REMARK  status: ('A' for Active; 'I' for Inactive)
REMARK    1  A    between atoms: C_1  and  C_2
REMARK    2  A    between atoms: N_8  and  S_9
REMARK    3  A    between atoms: S_9  and  C_12
REMARK    4  A    between atoms: C_15  and  C_16
REMARK                            x       y       z     vdW  Elec       q    Type
REMARK                         _______ _______ _______ _____ _____    ______ ____
ROOT
ATOM      1  S   UNL     1       5.954   5.908  17.676  0.00  0.00    +0.000 S 
ATOM      2  O   UNL     1       6.186   7.324  17.465  0.00  0.00    +0.000 OA
ATOM      3  O   UNL     1       6.836   5.161  18.556  0.00  0.00    +0.000 OA
ENDROOT
BRANCH   1  11
ATOM      4  C   UNL     1       4.840   1.161  20.301  0.00  0.00    +0.000 C 
ATOM      5  C   UNL     1       4.140   2.478  20.188  0.00  0.00    +0.000 A 
ATOM      6  C   UNL     1       2.989   2.769  20.906  0.00  0.00    +0.000 A 
ATOM      7  N   UNL     1       2.325   3.939  20.810  0.00  0.00    +0.000 NA
ATOM      8  C   UNL     1       2.825   4.862  19.960  0.00  0.00    +0.000 A 
ATOM      9  C   UNL     1       3.985   4.681  19.184  0.00  0.00    +0.000 A 
ATOM     10  C   UNL     1       4.631   3.454  19.312  0.00  0.00    +0.000 A 
ATOM     11  N   UNL     1       4.361   5.664  18.189  0.00  0.00    +0.000 N 
ATOM     12  C   UNL     1       3.375   6.755  17.989  0.00  0.00    +0.000 C 
ATOM     13  C   UNL     1       2.731   7.110  19.321  0.00  0.00    +0.000 C 
ATOM     14  O   UNL     1       2.047   5.994  19.888  0.00  0.00    +0.000 OA
ENDBRANCH   1  11
BRANCH   1  15
ATOM     15  C   UNL     1       6.062   5.115  16.082  0.00  0.00    +0.000 A 
ATOM     16  C   UNL     1       4.949   4.452  15.558  0.00  0.00    +0.000 A 
ATOM     17  C   UNL     1       4.995   3.935  14.256  0.00  0.00    +0.000 A 
ATOM     18  C   UNL     1       6.137   4.071  13.450  0.00  0.00    +0.000 A 
ATOM     19  C   UNL     1       7.241   4.744  14.006  0.00  0.00    +0.000 A 
ATOM     20  C   UNL     1       7.207   5.277  15.302  0.00  0.00    +0.000 A 
BRANCH  18  21
ATOM     21  C   UNL     1       6.200   3.466  12.065  0.00  0.00    +0.000 C 
ATOM     22  C   UNL     1       6.072   1.973  11.850  0.00  0.00    +0.000 C 
ATOM     23  C   UNL     1       4.956   2.880  11.434  0.00  0.00    +0.000 C 
ENDBRANCH  18  21
ENDBRANCH   1  15
TORSDOF 3
ENDMDL
MODEL 8
REMARK VINA RESULT:      -7.3      2.545      7.200
REMARK  Name = 
REMARK  4 active torsions:
REMARK  status: ('A' for Active; 'I' for Inactive)
REMARK    1  A    between atoms: C_1  and  C_2
REMARK    2  A    between atoms: N_8  and  S_9
REMARK    3  A    between atoms: S_9  and  C_12
REMARK    4  A    between atoms: C_15  and  C_16
REMARK                            x       y       z     vdW  Elec       q    Type
REMARK                         _______ _______ _______ _____ _____    ______ ____
ROOT
ATOM      1  S   UNL     1       6.210   5.835  16.895  0.00  0.00    +0.000 S 
ATOM      2  O   UNL     1       6.778   7.154  16.694  0.00  0.00    +0.000 OA
ATOM      3  O   UNL     1       6.781   4.956  17.901  0.00  0.00    +0.000 OA
ENDROOT
BRANCH   1  11
ATOM      4  C   UNL     1       3.571   1.290  18.640  0.00  0.00    +0.000 C 
ATOM      5  C   UNL     1       3.247   2.750  18.649  0.00  0.00    +0.000 A 
ATOM      6  C   UNL     1       2.115   3.255  19.271  0.00  0.00    +0.000 A 
ATOM      7  N   UNL     1       1.787   4.563  19.280  0.00  0.00    +0.000 NA
ATOM      8  C   UNL     1       2.622   5.410  18.638  0.00  0.00    +0.000 A 
ATOM      9  C   UNL     1       3.799   5.015  17.976  0.00  0.00    +0.000 A 
ATOM     10  C   UNL     1       4.090   3.654  17.989  0.00  0.00    +0.000 A 
ATOM     11  N   UNL     1       4.550   5.970  17.188  0.00  0.00    +0.000 N 
ATOM     12  C   UNL     1       3.910   7.301  17.047  0.00  0.00    +0.000 C 
ATOM     13  C   UNL     1       3.189   7.659  18.337  0.00  0.00    +0.000 C 
ATOM     14  O   UNL     1       2.171   6.710  18.653  0.00  0.00    +0.000 OA
ENDBRANCH   1  11
BRANCH   1  15
ATOM     15  C   UNL     1       6.346   4.964  15.344  0.00  0.00    +0.000 A 
ATOM     16  C   UNL     1       5.321   4.106  14.937  0.00  0.00    +0.000 A 
ATOM     17  C   UNL     1       5.370   3.517  13.666  0.00  0.00    +0.000 A 
ATOM     18  C   UNL     1       6.427   3.770  12.777  0.00  0.00    +0.000 A 
ATOM     19  C   UNL     1       7.445   4.637  13.218  0.00  0.00    +0.000 A 
ATOM     20  C   UNL     1       7.404   5.244  14.480  0.00  0.00    +0.000 A 
BRANCH  18  21
ATOM     21  C   UNL     1       6.502   3.091  11.427  0.00  0.00    +0.000 C 
ATOM     22  C   UNL     1       7.359   1.862  11.209  0.00  0.00    +0.000 C 
ATOM     23  C   UNL     1       5.868   1.732  11.224  0.00  0.00    +0.000 C 
ENDBRANCH  18  21
ENDBRANCH   1  15
TORSDOF 3
ENDMDL
MODEL 9
REMARK VINA RESULT:      -7.3      1.928      7.057
REMARK  Name = 
REMARK  4 active torsions:
REMARK  status: ('A' for Active; 'I' for Inactive)
REMARK    1  A    between atoms: C_1  and  C_2
REMARK    2  A    between atoms: N_8  and  S_9
REMARK    3  A    between atoms: S_9  and  C_12
REMARK    4  A    between atoms: C_15  and  C_16
REMARK                            x       y       z     vdW  Elec       q    Type
REMARK                         _______ _______ _______ _____ _____    ______ ____
ROOT
ATOM      1  S   UNL     1       5.837   4.968  18.428  0.00  0.00    +0.000 S 
ATOM      2  O   UNL     1       5.387   6.328  18.653  0.00  0.00    +0.000 OA
ATOM      3  O   UNL     1       7.145   4.558  18.911  0.00  0.00    +0.000 OA
ENDROOT
BRANCH   1  11
ATOM      4  C   UNL     1       1.441   7.115  21.022  0.00  0.00    +0.000 C 
ATOM      5  C   UNL     1       1.744   5.782  20.416  0.00  0.00    +0.000 A 
ATOM      6  C   UNL     1       0.793   4.777  20.322  0.00  0.00    +0.000 A 
ATOM      7  N   UNL     1       1.041   3.559  19.798  0.00  0.00    +0.000 NA
ATOM      8  C   UNL     1       2.294   3.327  19.349  0.00  0.00    +0.000 A 
ATOM      9  C   UNL     1       3.339   4.269  19.389  0.00  0.00    +0.000 A 
ATOM     10  C   UNL     1       3.035   5.508  19.945  0.00  0.00    +0.000 A 
ATOM     11  N   UNL     1       4.686   3.882  19.025  0.00  0.00    +0.000 N 
ATOM     12  C   UNL     1       4.866   2.435  18.753  0.00  0.00    +0.000 C 
ATOM     13  C   UNL     1       3.622   1.885  18.073  0.00  0.00    +0.000 C 
ATOM     14  O   UNL     1       2.463   2.041  18.890  0.00  0.00    +0.000 OA
ENDBRANCH   1  11
BRANCH   1  15
ATOM     15  C   UNL     1       5.859   4.708  16.664  0.00  0.00    +0.000 A 
ATOM     16  C   UNL     1       7.076   4.688  15.978  0.00  0.00    +0.000 A 
ATOM     17  C   UNL     1       7.103   4.363  14.615  0.00  0.00    +0.000 A 
ATOM     18  C   UNL     1       5.931   4.047  13.910  0.00  0.00    +0.000 A 
ATOM     19  C   UNL     1       4.720   4.078  14.628  0.00  0.00    +0.000 A 
ATOM     20  C   UNL     1       4.678   4.388  15.994  0.00  0.00    +0.000 A 
BRANCH  18  21
ATOM     21  C   UNL     1       5.959   3.749  12.427  0.00  0.00    +0.000 C 
ATOM     22  C   UNL     1       5.794   2.338  11.903  0.00  0.00    +0.000 C 
ATOM     23  C   UNL     1       4.693   3.335  11.711  0.00  0.00    +0.000 C 
ENDBRANCH  18  21
ENDBRANCH   1  15
TORSDOF 3
ENDMDL
