MODEL 1
REMARK VINA RESULT:      -8.1      0.000      0.000
REMARK  Name = 
REMARK  6 active torsions:
REMARK  status: ('A' for Active; 'I' for Inactive)
REMARK    1  A    between atoms: C_1  and  C_2
REMARK    2  A    between atoms: C_2  and  S_3
REMARK    3  A    between atoms: C_2  and  C_20
REMARK    4  A    between atoms: S_3  and  C_4
REMARK    5  A    between atoms: C_6  and  C_7
REMARK    6  A    between atoms: C_14  and  C_15
REMARK                            x       y       z     vdW  Elec       q    Type
REMARK                         _______ _______ _______ _____ _____    ______ ____
ROOT
ATOM      1  C   UNL     1       4.721   4.124  17.533  0.00  0.00    +0.000 A 
ATOM      2  N   UNL     1       4.982   4.037  16.229  0.00  0.00    +0.000 NA
ATOM      3  C   UNL     1       6.190   4.441  15.802  0.00  0.00    +0.000 A 
ATOM      4  C   UNL     1       7.122   4.966  16.678  0.00  0.00    +0.000 A 
ATOM      5  C   UNL     1       6.779   5.013  18.021  0.00  0.00    +0.000 A 
ATOM      6  N   UNL     1       5.573   4.569  18.462  0.00  0.00    +0.000 NA
ENDROOT
BRANCH   3   7
ATOM      7  C   UNL     1       6.435   4.277  14.357  0.00  0.00    +0.000 A 
ATOM      8  C   UNL     1       7.452   5.012  13.715  0.00  0.00    +0.000 A 
ATOM      9  C   UNL     1       7.684   4.892  12.343  0.00  0.00    +0.000 A 
ATOM     10  C   UNL     1       6.896   4.036  11.578  0.00  0.00    +0.000 A 
ATOM     11  C   UNL     1       5.881   3.303  12.186  0.00  0.00    +0.000 A 
ATOM     12  C   UNL     1       5.652   3.422  13.560  0.00  0.00    +0.000 A 
ENDBRANCH   3   7
BRANCH   5  13
ATOM     13  C   UNL     1       7.771   5.566  19.031  0.00  0.00    +0.000 C 
ATOM     14  F   UNL     1       8.250   6.798  18.681  0.00  0.00    +0.000 F 
ATOM     15  F   UNL     1       7.253   5.722  20.280  0.00  0.00    +0.000 F 
ATOM     16  F   UNL     1       8.878   4.779  19.171  0.00  0.00    +0.000 F 
ENDBRANCH   5  13
BRANCH   1  17
ATOM     17  S   UNL     1       3.115   3.612  18.034  0.00  0.00    +0.000 S 
BRANCH  17  19
ATOM     18  C   UNL     1       2.784   3.009  20.708  0.00  0.00    +0.000 C 
ATOM     19  C   UNL     1       3.101   4.185  19.772  0.00  0.00    +0.000 C 
BRANCH  19  20
ATOM     20  C   UNL     1       2.164   5.376  20.034  0.00  0.00    +0.000 C 
ATOM     21  O   UNL     1       1.080   5.187  20.601  0.00  0.00    +0.000 OA
ATOM     22  N   UNL     1       2.605   6.670  19.760  0.00  0.00    +0.000 N 
ATOM     23  C   UNL     1       1.782   7.801  20.190  0.00  0.00    +0.000 C 
ATOM     24  C   UNL     1       1.170   8.525  18.992  0.00  0.00    +0.000 C 
ATOM     25  C   UNL     1       2.234   8.893  17.956  0.00  0.00    +0.000 C 
ATOM     26  C   UNL     1       3.091   7.679  17.588  0.00  0.00    +0.000 C 
ATOM     27  C   UNL     1       3.686   7.050  18.851  0.00  0.00    +0.000 C 
ENDBRANCH  19  20
ENDBRANCH  17  19
ENDBRANCH   1  17
TORSDOF 5
ENDMDL
MODEL 2
REMARK VINA RESULT:      -8.1      3.703      5.545
REMARK  Name = 
REMARK  6 active torsions:
REMARK  status: ('A' for Active; 'I' for Inactive)
REMARK    1  A    between atoms: C_1  and  C_2
REMARK    2  A    between atoms: C_2  and  S_3
REMARK    3  A    between atoms: C_2  and  C_20
REMARK    4  A    between atoms: S_3  and  C_4
REMARK    5  A    between atoms: C_6  and  C_7
REMARK    6  A    between atoms: C_14  and  C_15
REMARK                            x       y       z     vdW  Elec       q    Type
REMARK                         _______ _______ _______ _____ _____    ______ ____
ROOT
ATOM      1  C   UNL     1       2.234   6.380  19.777  0.00  0.00    +0.000 A 
ATOM      2  N   UNL     1       3.275   6.342  18.947  0.00  0.00    +0.000 NA
ATOM      3  C   UNL     1       3.629   5.149  18.438  0.00  0.00    +0.000 A 
ATOM      4  C   UNL     1       2.959   3.992  18.791  0.00  0.00    +0.000 A 
ATOM      5  C   UNL     1       1.879   4.117  19.652  0.00  0.00    +0.000 A 
ATOM      6  N   UNL     1       1.494   5.326  20.138  0.00  0.00    +0.000 NA
ENDROOT
BRANCH   3   7
ATOM      7  C   UNL     1       4.758   5.178  17.490  0.00  0.00    +0.000 A 
ATOM      8  C   UNL     1       4.880   4.191  16.492  0.00  0.00    +0.000 A 
ATOM      9  C   UNL     1       5.956   4.184  15.600  0.00  0.00    +0.000 A 
ATOM     10  C   UNL     1       6.941   5.163  15.693  0.00  0.00    +0.000 A 
ATOM     11  C   UNL     1       6.847   6.146  16.674  0.00  0.00    +0.000 A 
ATOM     12  C   UNL     1       5.769   6.154  17.564  0.00  0.00    +0.000 A 
ENDBRANCH   3   7
BRANCH   5  13
ATOM     13  C   UNL     1       1.098   2.880  20.062  0.00  0.00    +0.000 C 
ATOM     14  F   UNL     1       1.811   1.726  19.899  0.00  0.00    +0.000 F 
ATOM     15  F   UNL     1       0.709   2.884  21.366  0.00  0.00    +0.000 F 
ATOM     16  F   UNL     1      -0.039   2.704  19.325  0.00  0.00    +0.000 F 
ENDBRANCH   5  13
BRANCH   1  17
ATOM     17  S   UNL     1       1.834   7.960  20.439  0.00  0.00    +0.000 S 
BRANCH  17  19
ATOM     18  C   UNL     1       2.134   8.914  17.867  0.00  0.00    +0.000 C 
ATOM     19  C   UNL     1       1.084   8.763  18.976  0.00  0.00    +0.000 C 
BRANCH  19  20
ATOM     20  C   UNL     1       0.393  10.104  19.278  0.00  0.00    +0.000 C 
ATOM     21  O   UNL     1       0.762  10.776  20.249  0.00  0.00    +0.000 OA
ATOM     22  N   UNL     1      -0.542  10.613  18.378  0.00  0.00    +0.000 N 
ATOM     23  C   UNL     1      -1.048  11.971  18.579  0.00  0.00    +0.000 C 
ATOM     24  C   UNL     1      -2.518  11.956  18.993  0.00  0.00    +0.000 C 
ATOM     25  C   UNL     1      -3.363  11.118  18.030  0.00  0.00    +0.000 C 
ATOM     26  C   UNL     1      -2.752   9.730  17.824  0.00  0.00    +0.000 C 
ATOM     27  C   UNL     1      -1.293   9.855  17.377  0.00  0.00    +0.000 C 
ENDBRANCH  19  20
ENDBRANCH  17  19
ENDBRANCH   1  17
TORSDOF 5
ENDMDL
MODEL 3
REMARK VINA RESULT:      -8.0      0.579      1.327
REMARK  Name = 
REMARK  6 active torsions:
REMARK  status: ('A' for Active; 'I' for Inactive)
REMARK    1  A    between atoms: C_1  and  C_2
REMARK    2  A    between atoms: C_2  and  S_3
REMARK    3  A    between atoms: C_2  and  C_20
REMARK    4  A    between atoms: S_3  and  C_4
REMARK    5  A    between atoms: C_6  and  C_7
REMARK    6  A    between atoms: C_14  and  C_15
REMARK                            x       y       z     vdW  Elec       q    Type
REMARK                         _______ _______ _______ _____ _____    ______ ____
ROOT
ATOM      1  C   UNL     1       4.552   4.782  17.406  0.00  0.00    +0.000 A 
ATOM      2  N   UNL     1       4.840   4.600  16.118  0.00  0.00    +0.000 NA
ATOM      3  C   UNL     1       6.119   4.750  15.734  0.00  0.00    +0.000 A 
ATOM      4  C   UNL     1       7.101   5.117  16.636  0.00  0.00    +0.000 A 
ATOM      5  C   UNL     1       6.723   5.277  17.961  0.00  0.00    +0.000 A 
ATOM      6  N   UNL     1       5.438   5.088  18.360  0.00  0.00    +0.000 NA
ENDROOT
BRANCH   3   7
ATOM      7  C   UNL     1       6.383   4.491  14.306  0.00  0.00    +0.000 A 
ATOM      8  C   UNL     1       5.596   3.566  13.589  0.00  0.00    +0.000 A 
ATOM      9  C   UNL     1       5.845   3.286  12.244  0.00  0.00    +0.000 A 
ATOM     10  C   UNL     1       6.895   3.920  11.585  0.00  0.00    +0.000 A 
ATOM     11  C   UNL     1       7.691   4.832  12.271  0.00  0.00    +0.000 A 
ATOM     12  C   UNL     1       7.439   5.114  13.617  0.00  0.00    +0.000 A 
ENDBRANCH   3   7
BRANCH   5  13
ATOM     13  C   UNL     1       7.763   5.665  18.997  0.00  0.00    +0.000 C 
ATOM     14  F   UNL     1       7.255   5.712  20.266  0.00  0.00    +0.000 F 
ATOM     15  F   UNL     1       8.819   4.808  19.063  0.00  0.00    +0.000 F 
ATOM     16  F   UNL     1       8.291   6.905  18.779  0.00  0.00    +0.000 F 
ENDBRANCH   5  13
BRANCH   1  17
ATOM     17  S   UNL     1       2.859   4.606  17.849  0.00  0.00    +0.000 S 
BRANCH  17  19
ATOM     18  C   UNL     1       2.692   3.593  20.412  0.00  0.00    +0.000 C 
ATOM     19  C   UNL     1       2.946   4.903  19.652  0.00  0.00    +0.000 C 
BRANCH  19  20
ATOM     20  C   UNL     1       2.020   6.026  20.151  0.00  0.00    +0.000 C 
ATOM     21  O   UNL     1       1.122   5.763  20.961  0.00  0.00    +0.000 OA
ATOM     22  N   UNL     1       2.289   7.347  19.795  0.00  0.00    +0.000 N 
ATOM     23  C   UNL     1       1.519   8.418  20.427  0.00  0.00    +0.000 C 
ATOM     24  C   UNL     1       0.584   9.091  19.424  0.00  0.00    +0.000 C 
ATOM     25  C   UNL     1       1.336   9.530  18.165  0.00  0.00    +0.000 C 
ATOM     26  C   UNL     1       2.160   8.379  17.584  0.00  0.00    +0.000 C 
ATOM     27  C   UNL     1       3.087   7.798  18.656  0.00  0.00    +0.000 C 
ENDBRANCH  19  20
ENDBRANCH  17  19
ENDBRANCH   1  17
TORSDOF 5
ENDMDL
MODEL 4
REMARK VINA RESULT:      -8.0      3.678      5.427
REMARK  Name = 
REMARK  6 active torsions:
REMARK  status: ('A' for Active; 'I' for Inactive)
REMARK    1  A    between atoms: C_1  and  C_2
REMARK    2  A    between atoms: C_2  and  S_3
REMARK    3  A    between atoms: C_2  and  C_20
REMARK    4  A    between atoms: S_3  and  C_4
REMARK    5  A    between atoms: C_6  and  C_7
REMARK    6  A    between atoms: C_14  and  C_15
REMARK                            x       y       z     vdW  Elec       q    Type
REMARK                         _______ _______ _______ _____ _____    ______ ____
ROOT
ATOM      1  C   UNL     1       2.291   6.336  19.760  0.00  0.00    +0.000 A 
ATOM      2  N   UNL     1       3.328   6.288  18.924  0.00  0.00    +0.000 NA
ATOM      3  C   UNL     1       3.663   5.094  18.409  0.00  0.00    +0.000 A 
ATOM      4  C   UNL     1       2.981   3.943  18.759  0.00  0.00    +0.000 A 
ATOM      5  C   UNL     1       1.906   4.079  19.625  0.00  0.00    +0.000 A 
ATOM      6  N   UNL     1       1.539   5.290  20.119  0.00  0.00    +0.000 NA
ENDROOT
BRANCH   3   7
ATOM      7  C   UNL     1       4.789   5.112  17.456  0.00  0.00    +0.000 A 
ATOM      8  C   UNL     1       5.781   6.110  17.539  0.00  0.00    +0.000 A 
ATOM      9  C   UNL     1       6.841   6.162  16.631  0.00  0.00    +0.000 A 
ATOM     10  C   UNL     1       6.929   5.218  15.611  0.00  0.00    +0.000 A 
ATOM     11  C   UNL     1       5.959   4.226  15.503  0.00  0.00    +0.000 A 
ATOM     12  C   UNL     1       4.900   4.173  16.414  0.00  0.00    +0.000 A 
ENDBRANCH   3   7
BRANCH   5  13
ATOM     13  C   UNL     1       1.111   2.850  20.033  0.00  0.00    +0.000 C 
ATOM     14  F   UNL     1       0.768   2.855  21.357  0.00  0.00    +0.000 F 
ATOM     15  F   UNL     1      -0.062   2.707  19.358  0.00  0.00    +0.000 F 
ATOM     16  F   UNL     1       1.802   1.687  19.848  0.00  0.00    +0.000 F 
ENDBRANCH   5  13
BRANCH   1  17
ATOM     17  S   UNL     1       1.914   7.918  20.431  0.00  0.00    +0.000 S 
BRANCH  17  19
ATOM     18  C   UNL     1       2.215   8.873  17.858  0.00  0.00    +0.000 C 
ATOM     19  C   UNL     1       1.169   8.737  18.974  0.00  0.00    +0.000 C 
BRANCH  19  20
ATOM     20  C   UNL     1       0.504  10.090  19.284  0.00  0.00    +0.000 C 
ATOM     21  O   UNL     1       0.893  10.754  20.253  0.00  0.00    +0.000 OA
ATOM     22  N   UNL     1      -0.430  10.616  18.392  0.00  0.00    +0.000 N 
ATOM     23  C   UNL     1      -0.910  11.982  18.600  0.00  0.00    +0.000 C 
ATOM     24  C   UNL     1      -2.377  11.993  19.026  0.00  0.00    +0.000 C 
ATOM     25  C   UNL     1      -3.243  11.171  18.069  0.00  0.00    +0.000 C 
ATOM     26  C   UNL     1      -2.659   9.773  17.857  0.00  0.00    +0.000 C 
ATOM     27  C   UNL     1      -1.202   9.873  17.397  0.00  0.00    +0.000 C 
ENDBRANCH  19  20
ENDBRANCH  17  19
ENDBRANCH   1  17
TORSDOF 5
ENDMDL
MODEL 5
REMARK VINA RESULT:      -8.0      0.688      1.028
REMARK  Name = 
REMARK  6 active torsions:
REMARK  status: ('A' for Active; 'I' for Inactive)
REMARK    1  A    between atoms: C_1  and  C_2
REMARK    2  A    between atoms: C_2  and  S_3
REMARK    3  A    between atoms: C_2  and  C_20
REMARK    4  A    between atoms: S_3  and  C_4
REMARK    5  A    between atoms: C_6  and  C_7
REMARK    6  A    between atoms: C_14  and  C_15
REMARK                            x       y       z     vdW  Elec       q    Type
REMARK                         _______ _______ _______ _____ _____    ______ ____
ROOT
ATOM      1  C   UNL     1       4.540   4.922  17.426  0.00  0.00    +0.000 A 
ATOM      2  N   UNL     1       4.832   4.695  16.146  0.00  0.00    +0.000 NA
ATOM      3  C   UNL     1       6.119   4.786  15.770  0.00  0.00    +0.000 A 
ATOM      4  C   UNL     1       7.107   5.139  16.671  0.00  0.00    +0.000 A 
ATOM      5  C   UNL     1       6.723   5.347  17.988  0.00  0.00    +0.000 A 
ATOM      6  N   UNL     1       5.429   5.218  18.380  0.00  0.00    +0.000 NA
ENDROOT
BRANCH   3   7
ATOM      7  C   UNL     1       6.385   4.479  14.352  0.00  0.00    +0.000 A 
ATOM      8  C   UNL     1       7.426   5.132  13.661  0.00  0.00    +0.000 A 
ATOM      9  C   UNL     1       7.679   4.875  12.311  0.00  0.00    +0.000 A 
ATOM     10  C   UNL     1       6.888   3.963  11.618  0.00  0.00    +0.000 A 
ATOM     11  C   UNL     1       5.849   3.310  12.275  0.00  0.00    +0.000 A 
ATOM     12  C   UNL     1       5.600   3.564  13.627  0.00  0.00    +0.000 A 
ENDBRANCH   3   7
BRANCH   5  13
ATOM     13  C   UNL     1       7.769   5.723  19.024  0.00  0.00    +0.000 C 
ATOM     14  F   UNL     1       8.813   4.841  19.067  0.00  0.00    +0.000 F 
ATOM     15  F   UNL     1       8.335   6.943  18.815  0.00  0.00    +0.000 F 
ATOM     16  F   UNL     1       7.270   5.747  20.295  0.00  0.00    +0.000 F 
ENDBRANCH   5  13
BRANCH   1  17
ATOM     17  S   UNL     1       2.838   4.821  17.858  0.00  0.00    +0.000 S 
BRANCH  17  19
ATOM     18  C   UNL     1       2.684   3.767  20.404  0.00  0.00    +0.000 C 
ATOM     19  C   UNL     1       2.928   5.091  19.665  0.00  0.00    +0.000 C 
BRANCH  19  20
ATOM     20  C   UNL     1       1.997   6.200  20.184  0.00  0.00    +0.000 C 
ATOM     21  O   UNL     1       1.140   5.930  21.035  0.00  0.00    +0.000 OA
ATOM     22  N   UNL     1       2.220   7.521  19.796  0.00  0.00    +0.000 N 
ATOM     23  C   UNL     1       1.450   8.584  20.442  0.00  0.00    +0.000 C 
ATOM     24  C   UNL     1       0.459   9.219  19.468  0.00  0.00    +0.000 C 
ATOM     25  C   UNL     1       1.148   9.653  18.172  0.00  0.00    +0.000 C 
ATOM     26  C   UNL     1       1.975   8.512  17.576  0.00  0.00    +0.000 C 
ATOM     27  C   UNL     1       2.959   7.971  18.617  0.00  0.00    +0.000 C 
ENDBRANCH  19  20
ENDBRANCH  17  19
ENDBRANCH   1  17
TORSDOF 5
ENDMDL
MODEL 6
REMARK VINA RESULT:      -7.9      3.590      5.368
REMARK  Name = 
REMARK  6 active torsions:
REMARK  status: ('A' for Active; 'I' for Inactive)
REMARK    1  A    between atoms: C_1  and  C_2
REMARK    2  A    between atoms: C_2  and  S_3
REMARK    3  A    between atoms: C_2  and  C_20
REMARK    4  A    between atoms: S_3  and  C_4
REMARK    5  A    between atoms: C_6  and  C_7
REMARK    6  A    between atoms: C_14  and  C_15
REMARK                            x       y       z     vdW  Elec       q    Type
REMARK                         _______ _______ _______ _____ _____    ______ ____
ROOT
ATOM      1  C   UNL     1       2.213   6.393  20.062  0.00  0.00    +0.000 A 
ATOM      2  N   UNL     1       2.991   6.395  18.980  0.00  0.00    +0.000 NA
ATOM      3  C   UNL     1       3.396   5.209  18.497  0.00  0.00    +0.000 A 
ATOM      4  C   UNL     1       3.050   4.024  19.120  0.00  0.00    +0.000 A 
ATOM      5  C   UNL     1       2.228   4.106  20.234  0.00  0.00    +0.000 A 
ATOM      6  N   UNL     1       1.785   5.301  20.703  0.00  0.00    +0.000 NA
ENDROOT
BRANCH   3   7
ATOM      7  C   UNL     1       4.216   5.274  17.272  0.00  0.00    +0.000 A 
ATOM      8  C   UNL     1       4.573   6.519  16.715  0.00  0.00    +0.000 A 
ATOM      9  C   UNL     1       5.326   6.603  15.541  0.00  0.00    +0.000 A 
ATOM     10  C   UNL     1       5.734   5.441  14.893  0.00  0.00    +0.000 A 
ATOM     11  C   UNL     1       5.390   4.199  15.419  0.00  0.00    +0.000 A 
ATOM     12  C   UNL     1       4.639   4.116  16.595  0.00  0.00    +0.000 A 
ENDBRANCH   3   7
BRANCH   5  13
ATOM     13  C   UNL     1       1.803   2.834  20.949  0.00  0.00    +0.000 C 
ATOM     14  F   UNL     1       1.621   1.782  20.095  0.00  0.00    +0.000 F 
ATOM     15  F   UNL     1       2.703   2.398  21.873  0.00  0.00    +0.000 F 
ATOM     16  F   UNL     1       0.615   2.969  21.607  0.00  0.00    +0.000 F 
ENDBRANCH   5  13
BRANCH   1  17
ATOM     17  S   UNL     1       1.738   7.973  20.672  0.00  0.00    +0.000 S 
BRANCH  17  19
ATOM     18  C   UNL     1       2.145   8.836  18.082  0.00  0.00    +0.000 C 
ATOM     19  C   UNL     1       1.052   8.732  19.155  0.00  0.00    +0.000 C 
BRANCH  19  20
ATOM     20  C   UNL     1       0.365  10.089  19.385  0.00  0.00    +0.000 C 
ATOM     21  O   UNL     1       0.691  10.782  20.358  0.00  0.00    +0.000 OA
ATOM     22  N   UNL     1      -0.514  10.586  18.423  0.00  0.00    +0.000 N 
ATOM     23  C   UNL     1      -1.011  11.955  18.563  0.00  0.00    +0.000 C 
ATOM     24  C   UNL     1      -2.501  11.969  18.897  0.00  0.00    +0.000 C 
ATOM     25  C   UNL     1      -3.304  11.117  17.911  0.00  0.00    +0.000 C 
ATOM     26  C   UNL     1      -2.703   9.716  17.774  0.00  0.00    +0.000 C 
ATOM     27  C   UNL     1      -1.220   9.811  17.404  0.00  0.00    +0.000 C 
ENDBRANCH  19  20
ENDBRANCH  17  19
ENDBRANCH   1  17
TORSDOF 5
ENDMDL
MODEL 7
REMARK VINA RESULT:      -7.9      3.585      5.223
REMARK  Name = 
REMARK  6 active torsions:
REMARK  status: ('A' for Active; 'I' for Inactive)
REMARK    1  A    between atoms: C_1  and  C_2
REMARK    2  A    between atoms: C_2  and  S_3
REMARK    3  A    between atoms: C_2  and  C_20
REMARK    4  A    between atoms: S_3  and  C_4
REMARK    5  A    between atoms: C_6  and  C_7
REMARK    6  A    between atoms: C_14  and  C_15
REMARK                            x       y       z     vdW  Elec       q    Type
REMARK                         _______ _______ _______ _____ _____    ______ ____
ROOT
ATOM      1  C   UNL     1       2.542   6.034  19.543  0.00  0.00    +0.000 A 
ATOM      2  N   UNL     1       3.555   5.993  18.678  0.00  0.00    +0.000 NA
ATOM      3  C   UNL     1       3.813   4.823  18.070  0.00  0.00    +0.000 A 
ATOM      4  C   UNL     1       3.078   3.688  18.356  0.00  0.00    +0.000 A 
ATOM      5  C   UNL     1       2.032   3.816  19.259  0.00  0.00    +0.000 A 
ATOM      6  N   UNL     1       1.744   5.006  19.847  0.00  0.00    +0.000 NA
ENDROOT
BRANCH   3   7
ATOM      7  C   UNL     1       4.915   4.851  17.090  0.00  0.00    +0.000 A 
ATOM      8  C   UNL     1       5.986   5.755  17.244  0.00  0.00    +0.000 A 
ATOM      9  C   UNL     1       7.027   5.817  16.314  0.00  0.00    +0.000 A 
ATOM     10  C   UNL     1       7.016   4.979  15.202  0.00  0.00    +0.000 A 
ATOM     11  C   UNL     1       5.967   4.082  15.023  0.00  0.00    +0.000 A 
ATOM     12  C   UNL     1       4.928   4.019  15.956  0.00  0.00    +0.000 A 
ENDBRANCH   3   7
BRANCH   5  13
ATOM     13  C   UNL     1       1.181   2.604  19.600  0.00  0.00    +0.000 C 
ATOM     14  F   UNL     1       1.852   1.424  19.440  0.00  0.00    +0.000 F 
ATOM     15  F   UNL     1       0.733   2.593  20.885  0.00  0.00    +0.000 F 
ATOM     16  F   UNL     1       0.074   2.495  18.808  0.00  0.00    +0.000 F 
ENDBRANCH   5  13
BRANCH   1  17
ATOM     17  S   UNL     1       2.268   7.581  20.335  0.00  0.00    +0.000 S 
BRANCH  17  19
ATOM     18  C   UNL     1       2.275   8.625  17.780  0.00  0.00    +0.000 C 
ATOM     19  C   UNL     1       1.378   8.485  19.018  0.00  0.00    +0.000 C 
BRANCH  19  20
ATOM     20  C   UNL     1       0.818   9.849  19.458  0.00  0.00    +0.000 C 
ATOM     21  O   UNL     1       1.213  10.881  18.901  0.00  0.00    +0.000 OA
ATOM     22  N   UNL     1      -0.229   9.897  20.379  0.00  0.00    +0.000 N 
ATOM     23  C   UNL     1      -0.876  11.182  20.643  0.00  0.00    +0.000 C 
ATOM     24  C   UNL     1      -0.563  11.677  22.054  0.00  0.00    +0.000 C 
ATOM     25  C   UNL     1      -0.864  10.605  23.104  0.00  0.00    +0.000 C 
ATOM     26  C   UNL     1      -0.200   9.275  22.742  0.00  0.00    +0.000 C 
ATOM     27  C   UNL     1      -0.605   8.849  21.327  0.00  0.00    +0.000 C 
ENDBRANCH  19  20
ENDBRANCH  17  19
ENDBRANCH   1  17
TORSDOF 5
ENDMDL
MODEL 8
REMARK VINA RESULT:      -7.8      1.254      2.156
REMARK  Name = 
REMARK  6 active torsions:
REMARK  status: ('A' for Active; 'I' for Inactive)
REMARK    1  A    between atoms: C_1  and  C_2
REMARK    2  A    between atoms: C_2  and  S_3
REMARK    3  A    between atoms: C_2  and  C_20
REMARK    4  A    between atoms: S_3  and  C_4
REMARK    5  A    between atoms: C_6  and  C_7
REMARK    6  A    between atoms: C_14  and  C_15
REMARK                            x       y       z     vdW  Elec       q    Type
REMARK                         _______ _______ _______ _____ _____    ______ ____
ROOT
ATOM      1  C   UNL     1       4.556   4.937  17.488  0.00  0.00    +0.000 A 
ATOM      2  N   UNL     1       4.844   4.739  16.202  0.00  0.00    +0.000 NA
ATOM      3  C   UNL     1       6.130   4.835  15.825  0.00  0.00    +0.000 A 
ATOM      4  C   UNL     1       7.121   5.164  16.732  0.00  0.00    +0.000 A 
ATOM      5  C   UNL     1       6.742   5.342  18.054  0.00  0.00    +0.000 A 
ATOM      6  N   UNL     1       5.448   5.208  18.446  0.00  0.00    +0.000 NA
ENDROOT
BRANCH   3   7
ATOM      7  C   UNL     1       6.392   4.560  14.399  0.00  0.00    +0.000 A 
ATOM      8  C   UNL     1       5.593   3.641  13.689  0.00  0.00    +0.000 A 
ATOM      9  C   UNL     1       5.838   3.346  12.346  0.00  0.00    +0.000 A 
ATOM     10  C   UNL     1       6.898   3.961  11.683  0.00  0.00    +0.000 A 
ATOM     11  C   UNL     1       7.706   4.867  12.363  0.00  0.00    +0.000 A 
ATOM     12  C   UNL     1       7.457   5.164  13.706  0.00  0.00    +0.000 A 
ENDBRANCH   3   7
BRANCH   5  13
ATOM     13  C   UNL     1       7.792   5.690  19.096  0.00  0.00    +0.000 C 
ATOM     14  F   UNL     1       8.353   6.920  18.892  0.00  0.00    +0.000 F 
ATOM     15  F   UNL     1       7.312   5.719  20.369  0.00  0.00    +0.000 F 
ATOM     16  F   UNL     1       8.841   4.817  19.102  0.00  0.00    +0.000 F 
ENDBRANCH   5  13
BRANCH   1  17
ATOM     17  S   UNL     1       2.855   4.831  17.921  0.00  0.00    +0.000 S 
BRANCH  17  19
ATOM     18  C   UNL     1       3.637   7.470  17.707  0.00  0.00    +0.000 C 
ATOM     19  C   UNL     1       2.451   6.601  18.149  0.00  0.00    +0.000 C 
BRANCH  19  20
ATOM     20  C   UNL     1       1.992   6.965  19.572  0.00  0.00    +0.000 C 
ATOM     21  O   UNL     1       1.989   6.096  20.454  0.00  0.00    +0.000 OA
ATOM     22  N   UNL     1       1.719   8.296  19.887  0.00  0.00    +0.000 N 
ATOM     23  C   UNL     1       1.470   8.652  21.283  0.00  0.00    +0.000 C 
ATOM     24  C   UNL     1       0.011   9.050  21.499  0.00  0.00    +0.000 C 
ATOM     25  C   UNL     1      -0.432  10.120  20.498  0.00  0.00    +0.000 C 
ATOM     26  C   UNL     1      -0.097   9.708  19.063  0.00  0.00    +0.000 C 
ATOM     27  C   UNL     1       1.391   9.365  18.945  0.00  0.00    +0.000 C 
ENDBRANCH  19  20
ENDBRANCH  17  19
ENDBRANCH   1  17
TORSDOF 5
ENDMDL
MODEL 9
REMARK VINA RESULT:      -7.8      1.258      2.077
REMARK  Name = 
REMARK  6 active torsions:
REMARK  status: ('A' for Active; 'I' for Inactive)
REMARK    1  A    between atoms: C_1  and  C_2
REMARK    2  A    between atoms: C_2  and  S_3
REMARK    3  A    between atoms: C_2  and  C_20
REMARK    4  A    between atoms: S_3  and  C_4
REMARK    5  A    between atoms: C_6  and  C_7
REMARK    6  A    between atoms: C_14  and  C_15
REMARK                            x       y       z     vdW  Elec       q    Type
REMARK                         _______ _______ _______ _____ _____    ______ ____
ROOT
ATOM      1  C   UNL     1       4.561   4.939  17.491  0.00  0.00    +0.000 A 
ATOM      2  N   UNL     1       4.851   4.718  16.209  0.00  0.00    +0.000 NA
ATOM      3  C   UNL     1       6.138   4.801  15.833  0.00  0.00    +0.000 A 
ATOM      4  C   UNL     1       7.129   5.142  16.736  0.00  0.00    +0.000 A 
ATOM      5  C   UNL     1       6.748   5.345  18.054  0.00  0.00    +0.000 A 
ATOM      6  N   UNL     1       5.453   5.224  18.445  0.00  0.00    +0.000 NA
ENDROOT
BRANCH   3   7
ATOM      7  C   UNL     1       6.401   4.500  14.413  0.00  0.00    +0.000 A 
ATOM      8  C   UNL     1       7.449   5.146  13.727  0.00  0.00    +0.000 A 
ATOM      9  C   UNL     1       7.699   4.896  12.375  0.00  0.00    +0.000 A 
ATOM     10  C   UNL     1       6.898   3.997  11.676  0.00  0.00    +0.000 A 
ATOM     11  C   UNL     1       5.852   3.351  12.329  0.00  0.00    +0.000 A 
ATOM     12  C   UNL     1       5.605   3.600  13.682  0.00  0.00    +0.000 A 
ENDBRANCH   3   7
BRANCH   5  13
ATOM     13  C   UNL     1       7.797   5.707  19.091  0.00  0.00    +0.000 C 
ATOM     14  F   UNL     1       8.834   4.817  19.129  0.00  0.00    +0.000 F 
ATOM     15  F   UNL     1       8.373   6.924  18.888  0.00  0.00    +0.000 F 
ATOM     16  F   UNL     1       7.299   5.729  20.363  0.00  0.00    +0.000 F 
ENDBRANCH   5  13
BRANCH   1  17
ATOM     17  S   UNL     1       2.859   4.849  17.923  0.00  0.00    +0.000 S 
BRANCH  17  19
ATOM     18  C   UNL     1       3.665   7.480  17.705  0.00  0.00    +0.000 C 
ATOM     19  C   UNL     1       2.467   6.623  18.140  0.00  0.00    +0.000 C 
BRANCH  19  20
ATOM     20  C   UNL     1       1.999   6.996  19.557  0.00  0.00    +0.000 C 
ATOM     21  O   UNL     1       1.996   6.135  20.446  0.00  0.00    +0.000 OA
ATOM     22  N   UNL     1       1.717   8.328  19.858  0.00  0.00    +0.000 N 
ATOM     23  C   UNL     1       1.457   8.696  21.251  0.00  0.00    +0.000 C 
ATOM     24  C   UNL     1      -0.005   9.087  21.455  0.00  0.00    +0.000 C 
ATOM     25  C   UNL     1      -0.448  10.146  20.443  0.00  0.00    +0.000 C 
ATOM     26  C   UNL     1      -0.103   9.723  19.013  0.00  0.00    +0.000 C 
ATOM     27  C   UNL     1       1.387   9.388  18.906  0.00  0.00    +0.000 C 
ENDBRANCH  19  20
ENDBRANCH  17  19
ENDBRANCH   1  17
TORSDOF 5
ENDMDL
