MODEL 1
REMARK VINA RESULT:      -8.2      0.000      0.000
REMARK  Name = 
REMARK  4 active torsions:
REMARK  status: ('A' for Active; 'I' for Inactive)
REMARK    1  A    between atoms: C_1  and  C_2
REMARK    2  A    between atoms: C_7  and  C_8
REMARK    3  A    between atoms: C_14  and  N_15
REMARK    4  A    between atoms: N_15  and  C_16
REMARK                            x       y       z     vdW  Elec       q    Type
REMARK                         _______ _______ _______ _____ _____    ______ ____
ROOT
ATOM      1  C   UNL     1       1.302   8.584  20.590  0.00  0.00    +0.000 A 
ATOM      2  N   UNL     1       1.465   8.821  21.900  0.00  0.00    +0.000 NA
ATOM      3  N   UNL     1       0.912  10.036  22.061  0.00  0.00    +0.000 N 
ATOM      4  C   UNL     1       0.300  10.530  20.939  0.00  0.00    +0.000 A 
ATOM      5  C   UNL     1      -0.397  11.714  20.708  0.00  0.00    +0.000 A 
ATOM      6  C   UNL     1      -0.974  11.871  19.440  0.00  0.00    +0.000 A 
ATOM      7  C   UNL     1      -0.887  10.898  18.430  0.00  0.00    +0.000 A 
ATOM      8  C   UNL     1      -0.110   9.757  18.682  0.00  0.00    +0.000 A 
ATOM      9  C   UNL     1       0.495   9.570  19.954  0.00  0.00    +0.000 A 
ATOM     10  H   UNL     1       0.968  10.470  22.975  0.00  0.00    +0.000 HD
ENDROOT
BRANCH   1  17
ATOM     11  C   UNL     1       3.631   1.755  18.746  0.00  0.00    +0.000 C 
ATOM     12  C   UNL     1       3.457   3.247  18.707  0.00  0.00    +0.000 A 
ATOM     13  C   UNL     1       3.939   3.984  17.619  0.00  0.00    +0.000 A 
ATOM     14  C   UNL     1       3.730   5.364  17.536  0.00  0.00    +0.000 A 
ATOM     15  C   UNL     1       3.020   6.013  18.560  0.00  0.00    +0.000 A 
ATOM     16  C   UNL     1       2.579   7.348  18.749  0.00  0.00    +0.000 A 
ATOM     17  C   UNL     1       1.932   7.401  19.962  0.00  0.00    +0.000 A 
ATOM     18  N   UNL     1       2.013   6.164  20.540  0.00  0.00    +0.000 N 
ATOM     19  C   UNL     1       2.600   5.274  19.665  0.00  0.00    +0.000 A 
ATOM     20  C   UNL     1       2.794   3.892  19.764  0.00  0.00    +0.000 A 
ATOM     21  H   UNL     1       1.638   5.940  21.450  0.00  0.00    +0.000 HD
ENDBRANCH   1  17
BRANCH   7  22
ATOM     22  N   UNL     1      -1.571  11.164  17.237  0.00  0.00    +0.000 N 
ATOM     23  H   UNL     1      -0.939  11.630  16.588  0.00  0.00    +0.000 HD
BRANCH  22  24
ATOM     24  C   UNL     1      -2.458  10.198  16.573  0.00  0.00    +0.000 C 
ATOM     25  C   UNL     1      -3.360   9.477  17.585  0.00  0.00    +0.000 C 
ATOM     26  C   UNL     1      -4.389  10.393  18.251  0.00  0.00    +0.000 C 
ATOM     27  C   UNL     1      -5.204  11.227  17.267  0.00  0.00    +0.000 C 
ATOM     28  C   UNL     1      -4.378  11.864  16.155  0.00  0.00    +0.000 C 
ATOM     29  C   UNL     1      -3.343  10.922  15.541  0.00  0.00    +0.000 C 
ENDBRANCH  22  24
ENDBRANCH   7  22
TORSDOF 3
ENDMDL
MODEL 2
REMARK VINA RESULT:      -8.0      0.896      1.622
REMARK  Name = 
REMARK  4 active torsions:
REMARK  status: ('A' for Active; 'I' for Inactive)
REMARK    1  A    between atoms: C_1  and  C_2
REMARK    2  A    between atoms: C_7  and  C_8
REMARK    3  A    between atoms: C_14  and  N_15
REMARK    4  A    between atoms: N_15  and  C_16
REMARK                            x       y       z     vdW  Elec       q    Type
REMARK                         _______ _______ _______ _____ _____    ______ ____
ROOT
ATOM      1  C   UNL     1       0.919   8.880  21.154  0.00  0.00    +0.000 A 
ATOM      2  N   UNL     1       1.122   8.919  22.480  0.00  0.00    +0.000 NA
ATOM      3  N   UNL     1       0.450  10.019  22.858  0.00  0.00    +0.000 N 
ATOM      4  C   UNL     1      -0.267  10.616  21.855  0.00  0.00    +0.000 A 
ATOM      5  C   UNL     1      -1.099  11.733  21.848  0.00  0.00    +0.000 A 
ATOM      6  C   UNL     1      -1.752  12.027  20.643  0.00  0.00    +0.000 A 
ATOM      7  C   UNL     1      -1.612  11.248  19.482  0.00  0.00    +0.000 A 
ATOM      8  C   UNL     1      -0.705  10.178  19.515  0.00  0.00    +0.000 A 
ATOM      9  C   UNL     1      -0.020   9.857  20.718  0.00  0.00    +0.000 A 
ATOM     10  H   UNL     1       0.505  10.303  23.830  0.00  0.00    +0.000 HD
ENDROOT
BRANCH   1  17
ATOM     11  C   UNL     1       3.876   2.754  18.124  0.00  0.00    +0.000 C 
ATOM     12  C   UNL     1       3.540   4.202  18.340  0.00  0.00    +0.000 A 
ATOM     13  C   UNL     1       3.883   5.156  17.375  0.00  0.00    +0.000 A 
ATOM     14  C   UNL     1       3.523   6.498  17.529  0.00  0.00    +0.000 A 
ATOM     15  C   UNL     1       2.799   6.886  18.670  0.00  0.00    +0.000 A 
ATOM     16  C   UNL     1       2.228   8.114  19.093  0.00  0.00    +0.000 A 
ATOM     17  C   UNL     1       1.641   7.895  20.318  0.00  0.00    +0.000 A 
ATOM     18  N   UNL     1       1.884   6.598  20.679  0.00  0.00    +0.000 N 
ATOM     19  C   UNL     1       2.519   5.935  19.649  0.00  0.00    +0.000 A 
ATOM     20  C   UNL     1       2.866   4.587  19.510  0.00  0.00    +0.000 A 
ATOM     21  H   UNL     1       1.582   6.189  21.551  0.00  0.00    +0.000 HD
ENDBRANCH   1  17
BRANCH   7  22
ATOM     22  N   UNL     1      -2.379  11.624  18.373  0.00  0.00    +0.000 N 
ATOM     23  H   UNL     1      -1.762  11.780  17.578  0.00  0.00    +0.000 HD
BRANCH  22  24
ATOM     24  C   UNL     1      -3.639  10.969  17.993  0.00  0.00    +0.000 C 
ATOM     25  C   UNL     1      -4.279  11.645  16.772  0.00  0.00    +0.000 C 
ATOM     26  C   UNL     1      -3.471  11.472  15.483  0.00  0.00    +0.000 C 
ATOM     27  C   UNL     1      -3.083  10.027  15.185  0.00  0.00    +0.000 C 
ATOM     28  C   UNL     1      -2.563   9.259  16.394  0.00  0.00    +0.000 C 
ATOM     29  C   UNL     1      -3.381   9.486  17.666  0.00  0.00    +0.000 C 
ENDBRANCH  22  24
ENDBRANCH   7  22
TORSDOF 3
ENDMDL
MODEL 3
REMARK VINA RESULT:      -8.0      0.880      1.535
REMARK  Name = 
REMARK  4 active torsions:
REMARK  status: ('A' for Active; 'I' for Inactive)
REMARK    1  A    between atoms: C_1  and  C_2
REMARK    2  A    between atoms: C_7  and  C_8
REMARK    3  A    between atoms: C_14  and  N_15
REMARK    4  A    between atoms: N_15  and  C_16
REMARK                            x       y       z     vdW  Elec       q    Type
REMARK                         _______ _______ _______ _____ _____    ______ ____
ROOT
ATOM      1  C   UNL     1       1.465   8.487  20.346  0.00  0.00    +0.000 A 
ATOM      2  N   UNL     1       1.617   8.628  21.672  0.00  0.00    +0.000 NA
ATOM      3  N   UNL     1       0.986   9.786  21.929  0.00  0.00    +0.000 N 
ATOM      4  C   UNL     1       0.339  10.328  20.850  0.00  0.00    +0.000 A 
ATOM      5  C   UNL     1      -0.437  11.477  20.715  0.00  0.00    +0.000 A 
ATOM      6  C   UNL     1      -1.028  11.698  19.463  0.00  0.00    +0.000 A 
ATOM      7  C   UNL     1      -0.880  10.818  18.378  0.00  0.00    +0.000 A 
ATOM      8  C   UNL     1      -0.029   9.714  18.537  0.00  0.00    +0.000 A 
ATOM      9  C   UNL     1       0.593   9.466  19.791  0.00  0.00    +0.000 A 
ATOM     10  H   UNL     1       1.016  10.148  22.876  0.00  0.00    +0.000 HD
ENDROOT
BRANCH   1  17
ATOM     11  C   UNL     1       5.738   4.399  15.820  0.00  0.00    +0.000 C 
ATOM     12  C   UNL     1       4.749   4.747  16.895  0.00  0.00    +0.000 A 
ATOM     13  C   UNL     1       4.267   3.756  17.758  0.00  0.00    +0.000 A 
ATOM     14  C   UNL     1       3.396   4.072  18.804  0.00  0.00    +0.000 A 
ATOM     15  C   UNL     1       3.006   5.410  18.990  0.00  0.00    +0.000 A 
ATOM     16  C   UNL     1       2.217   6.071  19.966  0.00  0.00    +0.000 A 
ATOM     17  C   UNL     1       2.170   7.403  19.626  0.00  0.00    +0.000 A 
ATOM     18  N   UNL     1       2.853   7.565  18.452  0.00  0.00    +0.000 N 
ATOM     19  C   UNL     1       3.446   6.374  18.085  0.00  0.00    +0.000 A 
ATOM     20  C   UNL     1       4.323   6.078  17.036  0.00  0.00    +0.000 A 
ATOM     21  H   UNL     1       2.948   8.447  17.971  0.00  0.00    +0.000 HD
ENDBRANCH   1  17
BRANCH   7  22
ATOM     22  N   UNL     1      -1.584  11.134  17.209  0.00  0.00    +0.000 N 
ATOM     23  H   UNL     1      -0.960  11.614  16.563  0.00  0.00    +0.000 HD
BRANCH  22  24
ATOM     24  C   UNL     1      -2.497  10.202  16.531  0.00  0.00    +0.000 C 
ATOM     25  C   UNL     1      -3.366   9.434  17.537  0.00  0.00    +0.000 C 
ATOM     26  C   UNL     1      -4.368  10.319  18.282  0.00  0.00    +0.000 C 
ATOM     27  C   UNL     1      -5.214  11.201  17.368  0.00  0.00    +0.000 C 
ATOM     28  C   UNL     1      -4.426  11.889  16.260  0.00  0.00    +0.000 C 
ATOM     29  C   UNL     1      -3.415  10.976  15.566  0.00  0.00    +0.000 C 
ENDBRANCH  22  24
ENDBRANCH   7  22
TORSDOF 3
ENDMDL
MODEL 4
REMARK VINA RESULT:      -8.0      2.822      8.280
REMARK  Name = 
REMARK  4 active torsions:
REMARK  status: ('A' for Active; 'I' for Inactive)
REMARK    1  A    between atoms: C_1  and  C_2
REMARK    2  A    between atoms: C_7  and  C_8
REMARK    3  A    between atoms: C_14  and  N_15
REMARK    4  A    between atoms: N_15  and  C_16
REMARK                            x       y       z     vdW  Elec       q    Type
REMARK                         _______ _______ _______ _____ _____    ______ ____
ROOT
ATOM      1  C   UNL     1       1.194   9.363  19.032  0.00  0.00    +0.000 A 
ATOM      2  N   UNL     1       1.377   9.878  17.807  0.00  0.00    +0.000 NA
ATOM      3  N   UNL     1       2.326   9.085  17.282  0.00  0.00    +0.000 N 
ATOM      4  C   UNL     1       2.670   8.019  18.070  0.00  0.00    +0.000 A 
ATOM      5  C   UNL     1       3.571   6.974  17.874  0.00  0.00    +0.000 A 
ATOM      6  C   UNL     1       3.620   5.987  18.869  0.00  0.00    +0.000 A 
ATOM      7  C   UNL     1       2.806   6.009  20.014  0.00  0.00    +0.000 A 
ATOM      8  C   UNL     1       1.970   7.119  20.205  0.00  0.00    +0.000 A 
ATOM      9  C   UNL     1       1.902   8.141  19.220  0.00  0.00    +0.000 A 
ATOM     10  H   UNL     1       2.688   9.315  16.363  0.00  0.00    +0.000 HD
ENDROOT
BRANCH   1  17
ATOM     11  C   UNL     1      -3.816  13.639  22.505  0.00  0.00    +0.000 C 
ATOM     12  C   UNL     1      -2.707  12.649  22.298  0.00  0.00    +0.000 A 
ATOM     13  C   UNL     1      -2.236  11.882  23.370  0.00  0.00    +0.000 A 
ATOM     14  C   UNL     1      -1.248  10.911  23.183  0.00  0.00    +0.000 A 
ATOM     15  C   UNL     1      -0.728  10.703  21.894  0.00  0.00    +0.000 A 
ATOM     16  C   UNL     1       0.203   9.778  21.354  0.00  0.00    +0.000 A 
ATOM     17  C   UNL     1       0.334  10.060  20.014  0.00  0.00    +0.000 A 
ATOM     18  N   UNL     1      -0.436  11.155  19.733  0.00  0.00    +0.000 N 
ATOM     19  C   UNL     1      -1.163  11.516  20.850  0.00  0.00    +0.000 A 
ATOM     20  C   UNL     1      -2.155  12.489  21.016  0.00  0.00    +0.000 A 
ATOM     21  H   UNL     1      -0.498  11.584  18.822  0.00  0.00    +0.000 HD
ENDBRANCH   1  17
BRANCH   7  22
ATOM     22  N   UNL     1       2.917   4.920  20.888  0.00  0.00    +0.000 N 
ATOM     23  H   UNL     1       3.390   5.222  21.738  0.00  0.00    +0.000 HD
BRANCH  22  24
ATOM     24  C   UNL     1       1.825   3.972  21.151  0.00  0.00    +0.000 C 
ATOM     25  C   UNL     1       0.775   3.999  20.031  0.00  0.00    +0.000 C 
ATOM     26  C   UNL     1       1.292   3.470  18.692  0.00  0.00    +0.000 C 
ATOM     27  C   UNL     1       1.974   2.108  18.787  0.00  0.00    +0.000 C 
ATOM     28  C   UNL     1       2.935   1.973  19.963  0.00  0.00    +0.000 C 
ATOM     29  C   UNL     1       2.388   2.543  21.272  0.00  0.00    +0.000 C 
ENDBRANCH  22  24
ENDBRANCH   7  22
TORSDOF 3
ENDMDL
MODEL 5
REMARK VINA RESULT:      -7.9      5.587      8.955
REMARK  Name = 
REMARK  4 active torsions:
REMARK  status: ('A' for Active; 'I' for Inactive)
REMARK    1  A    between atoms: C_1  and  C_2
REMARK    2  A    between atoms: C_7  and  C_8
REMARK    3  A    between atoms: C_14  and  N_15
REMARK    4  A    between atoms: N_15  and  C_16
REMARK                            x       y       z     vdW  Elec       q    Type
REMARK                         _______ _______ _______ _____ _____    ______ ____
ROOT
ATOM      1  C   UNL     1       7.390   6.899  17.008  0.00  0.00    +0.000 A 
ATOM      2  N   UNL     1       7.840   6.503  15.808  0.00  0.00    +0.000 NA
ATOM      3  N   UNL     1       7.269   5.296  15.652  0.00  0.00    +0.000 N 
ATOM      4  C   UNL     1       6.384   4.958  16.642  0.00  0.00    +0.000 A 
ATOM      5  C   UNL     1       5.583   3.833  16.825  0.00  0.00    +0.000 A 
ATOM      6  C   UNL     1       4.718   3.846  17.929  0.00  0.00    +0.000 A 
ATOM      7  C   UNL     1       4.625   4.928  18.820  0.00  0.00    +0.000 A 
ATOM      8  C   UNL     1       5.504   6.006  18.639  0.00  0.00    +0.000 A 
ATOM      9  C   UNL     1       6.400   6.021  17.536  0.00  0.00    +0.000 A 
ATOM     10  H   UNL     1       7.510   4.755  14.830  0.00  0.00    +0.000 HD
ENDROOT
BRANCH   1  17
ATOM     11  C   UNL     1       9.136  13.890  18.888  0.00  0.00    +0.000 C 
ATOM     12  C   UNL     1       9.098  12.389  18.912  0.00  0.00    +0.000 A 
ATOM     13  C   UNL     1       9.669  11.686  19.979  0.00  0.00    +0.000 A 
ATOM     14  C   UNL     1       9.587  10.292  20.050  0.00  0.00    +0.000 A 
ATOM     15  C   UNL     1       8.914   9.593  19.033  0.00  0.00    +0.000 A 
ATOM     16  C   UNL     1       8.592   8.225  18.837  0.00  0.00    +0.000 A 
ATOM     17  C   UNL     1       7.925   8.127  17.637  0.00  0.00    +0.000 A 
ATOM     18  N   UNL     1       7.881   9.372  17.073  0.00  0.00    +0.000 N 
ATOM     19  C   UNL     1       8.406  10.303  17.947  0.00  0.00    +0.000 A 
ATOM     20  C   UNL     1       8.473  11.697  17.861  0.00  0.00    +0.000 A 
ATOM     21  H   UNL     1       7.467   9.571  16.175  0.00  0.00    +0.000 HD
ENDBRANCH   1  17
BRANCH   7  22
ATOM     22  N   UNL     1       3.667   4.828  19.837  0.00  0.00    +0.000 N 
ATOM     23  H   UNL     1       4.095   5.085  20.724  0.00  0.00    +0.000 HD
BRANCH  22  24
ATOM     24  C   UNL     1       2.287   5.318  19.708  0.00  0.00    +0.000 C 
ATOM     25  C   UNL     1       1.707   5.007  18.321  0.00  0.00    +0.000 C 
ATOM     26  C   UNL     1       1.502   3.513  18.062  0.00  0.00    +0.000 C 
ATOM     27  C   UNL     1       0.731   2.794  19.165  0.00  0.00    +0.000 C 
ATOM     28  C   UNL     1       1.172   3.163  20.577  0.00  0.00    +0.000 C 
ATOM     29  C   UNL     1       1.395   4.662  20.780  0.00  0.00    +0.000 C 
ENDBRANCH  22  24
ENDBRANCH   7  22
TORSDOF 3
ENDMDL
MODEL 6
REMARK VINA RESULT:      -7.9      3.078      8.359
REMARK  Name = 
REMARK  4 active torsions:
REMARK  status: ('A' for Active; 'I' for Inactive)
REMARK    1  A    between atoms: C_1  and  C_2
REMARK    2  A    between atoms: C_7  and  C_8
REMARK    3  A    between atoms: C_14  and  N_15
REMARK    4  A    between atoms: N_15  and  C_16
REMARK                            x       y       z     vdW  Elec       q    Type
REMARK                         _______ _______ _______ _____ _____    ______ ____
ROOT
ATOM      1  C   UNL     1       1.186   9.738  19.139  0.00  0.00    +0.000 A 
ATOM      2  N   UNL     1       1.221  10.234  17.892  0.00  0.00    +0.000 NA
ATOM      3  N   UNL     1       2.029   9.378  17.246  0.00  0.00    +0.000 N 
ATOM      4  C   UNL     1       2.416   8.295  17.992  0.00  0.00    +0.000 A 
ATOM      5  C   UNL     1       3.209   7.192  17.683  0.00  0.00    +0.000 A 
ATOM      6  C   UNL     1       3.339   6.209  18.675  0.00  0.00    +0.000 A 
ATOM      7  C   UNL     1       2.705   6.291  19.925  0.00  0.00    +0.000 A 
ATOM      8  C   UNL     1       1.979   7.455  20.220  0.00  0.00    +0.000 A 
ATOM      9  C   UNL     1       1.834   8.474  19.240  0.00  0.00    +0.000 A 
ATOM     10  H   UNL     1       2.267   9.578  16.281  0.00  0.00    +0.000 HD
ENDROOT
BRANCH   1  17
ATOM     11  C   UNL     1      -1.360  14.954  23.804  0.00  0.00    +0.000 C 
ATOM     12  C   UNL     1      -1.116  13.604  23.192  0.00  0.00    +0.000 A 
ATOM     13  C   UNL     1      -1.820  12.485  23.650  0.00  0.00    +0.000 A 
ATOM     14  C   UNL     1      -1.653  11.233  23.050  0.00  0.00    +0.000 A 
ATOM     15  C   UNL     1      -0.766  11.106  21.967  0.00  0.00    +0.000 A 
ATOM     16  C   UNL     1      -0.423  10.032  21.107  0.00  0.00    +0.000 A 
ATOM     17  C   UNL     1       0.526  10.496  20.224  0.00  0.00    +0.000 A 
ATOM     18  N   UNL     1       0.811  11.793  20.553  0.00  0.00    +0.000 N 
ATOM     19  C   UNL     1      -0.027  12.217  21.564  0.00  0.00    +0.000 A 
ATOM     20  C   UNL     1      -0.186  13.479  22.147  0.00  0.00    +0.000 A 
ATOM     21  H   UNL     1       1.496  12.359  20.075  0.00  0.00    +0.000 HD
ENDBRANCH   1  17
BRANCH   7  22
ATOM     22  N   UNL     1       2.872   5.202  20.790  0.00  0.00    +0.000 N 
ATOM     23  H   UNL     1       3.433   5.493  21.589  0.00  0.00    +0.000 HD
BRANCH  22  24
ATOM     24  C   UNL     1       1.786   4.283  21.163  0.00  0.00    +0.000 C 
ATOM     25  C   UNL     1       0.775   4.115  20.019  0.00  0.00    +0.000 C 
ATOM     26  C   UNL     1       1.347   3.394  18.796  0.00  0.00    +0.000 C 
ATOM     27  C   UNL     1       2.047   2.079  19.124  0.00  0.00    +0.000 C 
ATOM     28  C   UNL     1       2.968   2.147  20.337  0.00  0.00    +0.000 C 
ATOM     29  C   UNL     1       2.367   2.903  21.523  0.00  0.00    +0.000 C 
ENDBRANCH  22  24
ENDBRANCH   7  22
TORSDOF 3
ENDMDL
MODEL 7
REMARK VINA RESULT:      -7.8      1.476      2.255
REMARK  Name = 
REMARK  4 active torsions:
REMARK  status: ('A' for Active; 'I' for Inactive)
REMARK    1  A    between atoms: C_1  and  C_2
REMARK    2  A    between atoms: C_7  and  C_8
REMARK    3  A    between atoms: C_14  and  N_15
REMARK    4  A    between atoms: N_15  and  C_16
REMARK                            x       y       z     vdW  Elec       q    Type
REMARK                         _______ _______ _______ _____ _____    ______ ____
ROOT
ATOM      1  C   UNL     1       2.027   7.749  19.663  0.00  0.00    +0.000 A 
ATOM      2  N   UNL     1       2.219   7.633  20.987  0.00  0.00    +0.000 NA
ATOM      3  N   UNL     1       1.508   8.657  21.488  0.00  0.00    +0.000 N 
ATOM      4  C   UNL     1       0.777   9.346  20.557  0.00  0.00    +0.000 A 
ATOM      5  C   UNL     1      -0.093  10.428  20.676  0.00  0.00    +0.000 A 
ATOM      6  C   UNL     1      -0.748  10.844  19.509  0.00  0.00    +0.000 A 
ATOM      7  C   UNL     1      -0.573  10.217  18.264  0.00  0.00    +0.000 A 
ATOM      8  C   UNL     1       0.369   9.181  18.176  0.00  0.00    +0.000 A 
ATOM      9  C   UNL     1       1.057   8.740  19.339  0.00  0.00    +0.000 A 
ATOM     10  H   UNL     1       1.547   8.822  22.488  0.00  0.00    +0.000 HD
ENDROOT
BRANCH   1  17
ATOM     11  C   UNL     1       6.723   4.991  14.585  0.00  0.00    +0.000 C 
ATOM     12  C   UNL     1       5.617   5.053  15.599  0.00  0.00    +0.000 A 
ATOM     13  C   UNL     1       5.004   3.877  16.047  0.00  0.00    +0.000 A 
ATOM     14  C   UNL     1       4.017   3.911  17.036  0.00  0.00    +0.000 A 
ATOM     15  C   UNL     1       3.643   5.148  17.589  0.00  0.00    +0.000 A 
ATOM     16  C   UNL     1       2.755   5.525  18.629  0.00  0.00    +0.000 A 
ATOM     17  C   UNL     1       2.787   6.897  18.722  0.00  0.00    +0.000 A 
ATOM     18  N   UNL     1       3.616   7.369  17.742  0.00  0.00    +0.000 N 
ATOM     19  C   UNL     1       4.219   6.314  17.088  0.00  0.00    +0.000 A 
ATOM     20  C   UNL     1       5.213   6.300  16.103  0.00  0.00    +0.000 A 
ATOM     21  H   UNL     1       3.795   8.349  17.577  0.00  0.00    +0.000 HD
ENDBRANCH   1  17
BRANCH   7  22
ATOM     22  N   UNL     1      -1.347  10.699  17.200  0.00  0.00    +0.000 N 
ATOM     23  H   UNL     1      -0.749  11.226  16.566  0.00  0.00    +0.000 HD
BRANCH  22  24
ATOM     24  C   UNL     1      -2.354   9.894  16.494  0.00  0.00    +0.000 C 
ATOM     25  C   UNL     1      -3.430   9.371  17.456  0.00  0.00    +0.000 C 
ATOM     26  C   UNL     1      -4.313  10.474  18.046  0.00  0.00    +0.000 C 
ATOM     27  C   UNL     1      -4.903  11.418  17.004  0.00  0.00    +0.000 C 
ATOM     28  C   UNL     1      -3.912  11.870  15.938  0.00  0.00    +0.000 C 
ATOM     29  C   UNL     1      -3.031  10.741  15.401  0.00  0.00    +0.000 C 
ENDBRANCH  22  24
ENDBRANCH   7  22
TORSDOF 3
ENDMDL
MODEL 8
REMARK VINA RESULT:      -7.8      5.517      8.839
REMARK  Name = 
REMARK  4 active torsions:
REMARK  status: ('A' for Active; 'I' for Inactive)
REMARK    1  A    between atoms: C_1  and  C_2
REMARK    2  A    between atoms: C_7  and  C_8
REMARK    3  A    between atoms: C_14  and  N_15
REMARK    4  A    between atoms: N_15  and  C_16
REMARK                            x       y       z     vdW  Elec       q    Type
REMARK                         _______ _______ _______ _____ _____    ______ ____
ROOT
ATOM      1  C   UNL     1       7.364   6.800  17.188  0.00  0.00    +0.000 A 
ATOM      2  N   UNL     1       7.871   6.287  16.056  0.00  0.00    +0.000 NA
ATOM      3  N   UNL     1       7.332   5.057  16.011  0.00  0.00    +0.000 N 
ATOM      4  C   UNL     1       6.415   4.807  16.998  0.00  0.00    +0.000 A 
ATOM      5  C   UNL     1       5.630   3.689  17.273  0.00  0.00    +0.000 A 
ATOM      6  C   UNL     1       4.721   3.800  18.335  0.00  0.00    +0.000 A 
ATOM      7  C   UNL     1       4.570   4.970  19.098  0.00  0.00    +0.000 A 
ATOM      8  C   UNL     1       5.434   6.043  18.834  0.00  0.00    +0.000 A 
ATOM      9  C   UNL     1       6.372   5.961  17.770  0.00  0.00    +0.000 A 
ATOM     10  H   UNL     1       7.618   4.436  15.263  0.00  0.00    +0.000 HD
ENDROOT
BRANCH   1  17
ATOM     11  C   UNL     1      10.834  12.318  20.789  0.00  0.00    +0.000 C 
ATOM     12  C   UNL     1       9.902  11.615  19.844  0.00  0.00    +0.000 A 
ATOM     13  C   UNL     1       9.188  12.344  18.885  0.00  0.00    +0.000 A 
ATOM     14  C   UNL     1       8.365  11.699  17.957  0.00  0.00    +0.000 A 
ATOM     15  C   UNL     1       8.263  10.298  17.988  0.00  0.00    +0.000 A 
ATOM     16  C   UNL     1       7.597   9.348  17.172  0.00  0.00    +0.000 A 
ATOM     17  C   UNL     1       7.848   8.102  17.698  0.00  0.00    +0.000 A 
ATOM     18  N   UNL     1       8.594   8.265  18.833  0.00  0.00    +0.000 N 
ATOM     19  C   UNL     1       8.933   9.593  18.987  0.00  0.00    +0.000 A 
ATOM     20  C   UNL     1       9.765  10.219  19.921  0.00  0.00    +0.000 A 
ATOM     21  H   UNL     1       8.893   7.504  19.425  0.00  0.00    +0.000 HD
ENDBRANCH   1  17
BRANCH   7  22
ATOM     22  N   UNL     1       3.574   4.956  20.082  0.00  0.00    +0.000 N 
ATOM     23  H   UNL     1       3.962   5.314  20.954  0.00  0.00    +0.000 HD
BRANCH  22  24
ATOM     24  C   UNL     1       2.192   5.401  19.851  0.00  0.00    +0.000 C 
ATOM     25  C   UNL     1       1.746   5.122  18.408  0.00  0.00    +0.000 C 
ATOM     26  C   UNL     1       1.621   3.632  18.083  0.00  0.00    +0.000 C 
ATOM     27  C   UNL     1       0.786   2.847  19.090  0.00  0.00    +0.000 C 
ATOM     28  C   UNL     1       1.090   3.179  20.546  0.00  0.00    +0.000 C 
ATOM     29  C   UNL     1       1.238   4.676  20.818  0.00  0.00    +0.000 C 
ENDBRANCH  22  24
ENDBRANCH   7  22
TORSDOF 3
ENDMDL
MODEL 9
REMARK VINA RESULT:      -7.8      1.225      2.258
REMARK  Name = 
REMARK  4 active torsions:
REMARK  status: ('A' for Active; 'I' for Inactive)
REMARK    1  A    between atoms: C_1  and  C_2
REMARK    2  A    between atoms: C_7  and  C_8
REMARK    3  A    between atoms: C_14  and  N_15
REMARK    4  A    between atoms: N_15  and  C_16
REMARK                            x       y       z     vdW  Elec       q    Type
REMARK                         _______ _______ _______ _____ _____    ______ ____
ROOT
ATOM      1  C   UNL     1       0.889   8.918  21.126  0.00  0.00    +0.000 A 
ATOM      2  N   UNL     1       1.090   8.932  22.453  0.00  0.00    +0.000 NA
ATOM      3  N   UNL     1       0.400  10.013  22.854  0.00  0.00    +0.000 N 
ATOM      4  C   UNL     1      -0.327  10.618  21.862  0.00  0.00    +0.000 A 
ATOM      5  C   UNL     1      -1.178  11.721  21.878  0.00  0.00    +0.000 A 
ATOM      6  C   UNL     1      -1.836  12.029  20.679  0.00  0.00    +0.000 A 
ATOM      7  C   UNL     1      -1.682  11.277  19.503  0.00  0.00    +0.000 A 
ATOM      8  C   UNL     1      -0.757  10.222  19.513  0.00  0.00    +0.000 A 
ATOM      9  C   UNL     1      -0.067   9.888  20.710  0.00  0.00    +0.000 A 
ATOM     10  H   UNL     1       0.449  10.277  23.831  0.00  0.00    +0.000 HD
ENDROOT
BRANCH   1  17
ATOM     11  C   UNL     1       5.159   5.608  16.001  0.00  0.00    +0.000 C 
ATOM     12  C   UNL     1       4.220   5.778  17.161  0.00  0.00    +0.000 A 
ATOM     13  C   UNL     1       3.878   4.680  17.958  0.00  0.00    +0.000 A 
ATOM     14  C   UNL     1       3.057   4.831  19.079  0.00  0.00    +0.000 A 
ATOM     15  C   UNL     1       2.576   6.110  19.408  0.00  0.00    +0.000 A 
ATOM     16  C   UNL     1       1.803   6.616  20.485  0.00  0.00    +0.000 A 
ATOM     17  C   UNL     1       1.628   7.964  20.270  0.00  0.00    +0.000 A 
ATOM     18  N   UNL     1       2.215   8.282  19.076  0.00  0.00    +0.000 N 
ATOM     19  C   UNL     1       2.876   7.182  18.569  0.00  0.00    +0.000 A 
ATOM     20  C   UNL     1       3.700   7.051  17.447  0.00  0.00    +0.000 A 
ATOM     21  H   UNL     1       2.207   9.207  18.672  0.00  0.00    +0.000 HD
ENDBRANCH   1  17
BRANCH   7  22
ATOM     22  N   UNL     1      -2.455  11.663  18.401  0.00  0.00    +0.000 N 
ATOM     23  H   UNL     1      -1.838  11.882  17.621  0.00  0.00    +0.000 HD
BRANCH  22  24
ATOM     24  C   UNL     1      -3.678  10.966  17.979  0.00  0.00    +0.000 C 
ATOM     25  C   UNL     1      -4.300  11.621  16.737  0.00  0.00    +0.000 C 
ATOM     26  C   UNL     1      -3.444  11.479  15.476  0.00  0.00    +0.000 C 
ATOM     27  C   UNL     1      -2.996  10.049  15.190  0.00  0.00    +0.000 C 
ATOM     28  C   UNL     1      -2.491   9.297  16.416  0.00  0.00    +0.000 C 
ATOM     29  C   UNL     1      -3.359   9.493  17.659  0.00  0.00    +0.000 C 
ENDBRANCH  22  24
ENDBRANCH   7  22
TORSDOF 3
ENDMDL
