MODEL 1
REMARK VINA RESULT:      -8.0      0.000      0.000
REMARK  Name = 
REMARK  6 active torsions:
REMARK  status: ('A' for Active; 'I' for Inactive)
REMARK    1  A    between atoms: C_1  and  C_2
REMARK    2  A    between atoms: C_2  and  C_3
REMARK    3  A    between atoms: C_2  and  O_4
REMARK    4  A    between atoms: O_4  and  C_5
REMARK    5  A    between atoms: C_5  and  C_7
REMARK    6  A    between atoms: C_13  and  C_14
REMARK                            x       y       z     vdW  Elec       q    Type
REMARK                         _______ _______ _______ _____ _____    ______ ____
ROOT
ATOM      1  C   UNL     1       3.758   5.566  18.915  0.00  0.00    +0.000 A 
ATOM      2  C   UNL     1       4.049   6.112  17.661  0.00  0.00    +0.000 A 
ATOM      3  C   UNL     1       3.482   7.332  17.295  0.00  0.00    +0.000 A 
ATOM      4  C   UNL     1       2.619   8.008  18.174  0.00  0.00    +0.000 A 
ATOM      5  C   UNL     1       2.005   9.206  17.809  0.00  0.00    +0.000 A 
ATOM      6  C   UNL     1       1.152   9.843  18.703  0.00  0.00    +0.000 A 
ATOM      7  C   UNL     1       0.929   9.279  19.957  0.00  0.00    +0.000 A 
ATOM      8  N   UNL     1       1.528   8.116  20.327  0.00  0.00    +0.000 NA
ATOM      9  C   UNL     1       2.341   7.488  19.454  0.00  0.00    +0.000 A 
ATOM     10  C   UNL     1       2.925   6.275  19.799  0.00  0.00    +0.000 A 
ENDROOT
BRANCH   7  11
ATOM     11  C   UNL     1       0.073   9.942  20.966  0.00  0.00    +0.000 A 
ATOM     12  C   UNL     1      -0.580  11.161  20.695  0.00  0.00    +0.000 A 
ATOM     13  C   UNL     1      -1.298  11.842  21.682  0.00  0.00    +0.000 A 
ATOM     14  C   UNL     1      -1.396  11.309  22.963  0.00  0.00    +0.000 A 
ATOM     15  C   UNL     1      -0.801  10.083  23.246  0.00  0.00    +0.000 A 
ATOM     16  C   UNL     1      -0.081   9.405  22.256  0.00  0.00    +0.000 A 
ENDBRANCH   7  11
BRANCH   1  17
ATOM     17  C   UNL     1       4.264   4.238  19.349  0.00  0.00    +0.000 C 
ATOM     18  O   UNL     1       5.460   3.984  19.425  0.00  0.00    +0.000 OA
BRANCH  17  19
ATOM     19  O   UNL     1       3.256   3.390  19.686  0.00  0.00    +0.000 OA
BRANCH  19  21
ATOM     20  C   UNL     1       3.363   1.537  18.121  0.00  0.00    +0.000 C 
ATOM     21  C   UNL     1       2.584   2.769  18.568  0.00  0.00    +0.000 C 
ATOM     22  C   UNL     1       1.178   2.368  19.004  0.00  0.00    +0.000 C 
ENDBRANCH  19  21
ENDBRANCH  17  19
ENDBRANCH   1  17
TORSDOF 4
ENDMDL
MODEL 2
REMARK VINA RESULT:      -7.9      0.267      1.059
REMARK  Name = 
REMARK  6 active torsions:
REMARK  status: ('A' for Active; 'I' for Inactive)
REMARK    1  A    between atoms: C_1  and  C_2
REMARK    2  A    between atoms: C_2  and  C_3
REMARK    3  A    between atoms: C_2  and  O_4
REMARK    4  A    between atoms: O_4  and  C_5
REMARK    5  A    between atoms: C_5  and  C_7
REMARK    6  A    between atoms: C_13  and  C_14
REMARK                            x       y       z     vdW  Elec       q    Type
REMARK                         _______ _______ _______ _____ _____    ______ ____
ROOT
ATOM      1  C   UNL     1       3.696   5.501  18.884  0.00  0.00    +0.000 A 
ATOM      2  C   UNL     1       3.981   6.038  17.625  0.00  0.00    +0.000 A 
ATOM      3  C   UNL     1       3.460   7.283  17.276  0.00  0.00    +0.000 A 
ATOM      4  C   UNL     1       2.649   7.993  18.178  0.00  0.00    +0.000 A 
ATOM      5  C   UNL     1       2.080   9.219  17.830  0.00  0.00    +0.000 A 
ATOM      6  C   UNL     1       1.278   9.890  18.746  0.00  0.00    +0.000 A 
ATOM      7  C   UNL     1       1.061   9.332  20.004  0.00  0.00    +0.000 A 
ATOM      8  N   UNL     1       1.616   8.143  20.356  0.00  0.00    +0.000 NA
ATOM      9  C   UNL     1       2.380   7.482  19.462  0.00  0.00    +0.000 A 
ATOM     10  C   UNL     1       2.917   6.243  19.790  0.00  0.00    +0.000 A 
ENDROOT
BRANCH   7  11
ATOM     11  C   UNL     1       0.260  10.029  21.035  0.00  0.00    +0.000 A 
ATOM     12  C   UNL     1       0.037   9.462  22.305  0.00  0.00    +0.000 A 
ATOM     13  C   UNL     1      -0.809  10.068  23.239  0.00  0.00    +0.000 A 
ATOM     14  C   UNL     1      -1.439  11.268  22.930  0.00  0.00    +0.000 A 
ATOM     15  C   UNL     1      -1.200  11.875  21.700  0.00  0.00    +0.000 A 
ATOM     16  C   UNL     1      -0.354  11.265  20.767  0.00  0.00    +0.000 A 
ENDBRANCH   7  11
BRANCH   1  17
ATOM     17  C   UNL     1       4.153   4.150  19.303  0.00  0.00    +0.000 C 
ATOM     18  O   UNL     1       5.338   3.846  19.357  0.00  0.00    +0.000 OA
BRANCH  17  19
ATOM     19  O   UNL     1       3.116   3.344  19.653  0.00  0.00    +0.000 OA
BRANCH  19  21
ATOM     20  C   UNL     1       2.720   1.962  17.696  0.00  0.00    +0.000 C 
ATOM     21  C   UNL     1       2.174   3.068  18.593  0.00  0.00    +0.000 C 
ATOM     22  C   UNL     1       0.852   2.630  19.215  0.00  0.00    +0.000 C 
ENDBRANCH  19  21
ENDBRANCH  17  19
ENDBRANCH   1  17
TORSDOF 4
ENDMDL
MODEL 3
REMARK VINA RESULT:      -7.9      5.314      6.794
REMARK  Name = 
REMARK  6 active torsions:
REMARK  status: ('A' for Active; 'I' for Inactive)
REMARK    1  A    between atoms: C_1  and  C_2
REMARK    2  A    between atoms: C_2  and  C_3
REMARK    3  A    between atoms: C_2  and  O_4
REMARK    4  A    between atoms: O_4  and  C_5
REMARK    5  A    between atoms: C_5  and  C_7
REMARK    6  A    between atoms: C_13  and  C_14
REMARK                            x       y       z     vdW  Elec       q    Type
REMARK                         _______ _______ _______ _____ _____    ______ ____
ROOT
ATOM      1  C   UNL     1       6.442   4.416  14.463  0.00  0.00    +0.000 A 
ATOM      2  C   UNL     1       7.488   5.179  14.990  0.00  0.00    +0.000 A 
ATOM      3  C   UNL     1       7.473   5.525  16.340  0.00  0.00    +0.000 A 
ATOM      4  C   UNL     1       6.413   5.115  17.168  0.00  0.00    +0.000 A 
ATOM      5  C   UNL     1       6.356   5.489  18.511  0.00  0.00    +0.000 A 
ATOM      6  C   UNL     1       5.289   5.071  19.297  0.00  0.00    +0.000 A 
ATOM      7  C   UNL     1       4.295   4.275  18.734  0.00  0.00    +0.000 A 
ATOM      8  N   UNL     1       4.344   3.898  17.429  0.00  0.00    +0.000 NA
ATOM      9  C   UNL     1       5.369   4.318  16.661  0.00  0.00    +0.000 A 
ATOM     10  C   UNL     1       5.410   3.979  15.314  0.00  0.00    +0.000 A 
ENDROOT
BRANCH   7  11
ATOM     11  C   UNL     1       3.165   3.757  19.539  0.00  0.00    +0.000 A 
ATOM     12  C   UNL     1       1.831   4.102  19.246  0.00  0.00    +0.000 A 
ATOM     13  C   UNL     1       0.774   3.704  20.070  0.00  0.00    +0.000 A 
ATOM     14  C   UNL     1       1.027   2.933  21.200  0.00  0.00    +0.000 A 
ATOM     15  C   UNL     1       2.330   2.538  21.488  0.00  0.00    +0.000 A 
ATOM     16  C   UNL     1       3.386   2.941  20.662  0.00  0.00    +0.000 A 
ENDBRANCH   7  11
BRANCH   1  17
ATOM     17  C   UNL     1       6.348   4.070  13.020  0.00  0.00    +0.000 C 
ATOM     18  O   UNL     1       7.257   4.295  12.231  0.00  0.00    +0.000 OA
BRANCH  17  19
ATOM     19  O   UNL     1       5.179   3.445  12.718  0.00  0.00    +0.000 OA
BRANCH  19  21
ATOM     20  C   UNL     1       5.618   1.540  11.277  0.00  0.00    +0.000 C 
ATOM     21  C   UNL     1       5.079   2.965  11.359  0.00  0.00    +0.000 C 
ATOM     22  C   UNL     1       3.614   2.994  10.936  0.00  0.00    +0.000 C 
ENDBRANCH  19  21
ENDBRANCH  17  19
ENDBRANCH   1  17
TORSDOF 4
ENDMDL
MODEL 4
REMARK VINA RESULT:      -7.6      0.877      1.039
REMARK  Name = 
REMARK  6 active torsions:
REMARK  status: ('A' for Active; 'I' for Inactive)
REMARK    1  A    between atoms: C_1  and  C_2
REMARK    2  A    between atoms: C_2  and  C_3
REMARK    3  A    between atoms: C_2  and  O_4
REMARK    4  A    between atoms: O_4  and  C_5
REMARK    5  A    between atoms: C_5  and  C_7
REMARK    6  A    between atoms: C_13  and  C_14
REMARK                            x       y       z     vdW  Elec       q    Type
REMARK                         _______ _______ _______ _____ _____    ______ ____
ROOT
ATOM      1  C   UNL     1       3.796   4.840  18.928  0.00  0.00    +0.000 A 
ATOM      2  C   UNL     1       4.133   5.346  17.669  0.00  0.00    +0.000 A 
ATOM      3  C   UNL     1       3.663   6.601  17.285  0.00  0.00    +0.000 A 
ATOM      4  C   UNL     1       2.852   7.353  18.153  0.00  0.00    +0.000 A 
ATOM      5  C   UNL     1       2.334   8.590  17.770  0.00  0.00    +0.000 A 
ATOM      6  C   UNL     1       1.529   9.302  18.652  0.00  0.00    +0.000 A 
ATOM      7  C   UNL     1       1.259   8.773  19.912  0.00  0.00    +0.000 A 
ATOM      8  N   UNL     1       1.765   7.572  20.298  0.00  0.00    +0.000 NA
ATOM      9  C   UNL     1       2.530   6.872  19.437  0.00  0.00    +0.000 A 
ATOM     10  C   UNL     1       3.017   5.622  19.800  0.00  0.00    +0.000 A 
ENDROOT
BRANCH   7  11
ATOM     11  C   UNL     1       0.453   9.513  20.909  0.00  0.00    +0.000 A 
ATOM     12  C   UNL     1      -0.168  10.738  20.594  0.00  0.00    +0.000 A 
ATOM     13  C   UNL     1      -0.836  11.490  21.565  0.00  0.00    +0.000 A 
ATOM     14  C   UNL     1      -0.915  11.024  22.873  0.00  0.00    +0.000 A 
ATOM     15  C   UNL     1      -0.351   9.794  23.201  0.00  0.00    +0.000 A 
ATOM     16  C   UNL     1       0.319   9.045  22.228  0.00  0.00    +0.000 A 
ENDBRANCH   7  11
BRANCH   1  17
ATOM     17  C   UNL     1       4.197   3.482  19.380  0.00  0.00    +0.000 C 
ATOM     18  O   UNL     1       5.308   3.243  19.834  0.00  0.00    +0.000 OA
BRANCH  17  19
ATOM     19  O   UNL     1       3.180   2.586  19.273  0.00  0.00    +0.000 OA
BRANCH  19  21
ATOM     20  C   UNL     1       0.795   2.568  18.817  0.00  0.00    +0.000 C 
ATOM     21  C   UNL     1       1.900   3.058  19.747  0.00  0.00    +0.000 C 
ATOM     22  C   UNL     1       1.671   2.521  21.156  0.00  0.00    +0.000 C 
ENDBRANCH  19  21
ENDBRANCH  17  19
ENDBRANCH   1  17
TORSDOF 4
ENDMDL
MODEL 5
REMARK VINA RESULT:      -7.6      2.249      3.769
REMARK  Name = 
REMARK  6 active torsions:
REMARK  status: ('A' for Active; 'I' for Inactive)
REMARK    1  A    between atoms: C_1  and  C_2
REMARK    2  A    between atoms: C_2  and  C_3
REMARK    3  A    between atoms: C_2  and  O_4
REMARK    4  A    between atoms: O_4  and  C_5
REMARK    5  A    between atoms: C_5  and  C_7
REMARK    6  A    between atoms: C_13  and  C_14
REMARK                            x       y       z     vdW  Elec       q    Type
REMARK                         _______ _______ _______ _____ _____    ______ ____
ROOT
ATOM      1  C   UNL     1       4.426   5.999  17.157  0.00  0.00    +0.000 A 
ATOM      2  C   UNL     1       4.228   4.678  17.568  0.00  0.00    +0.000 A 
ATOM      3  C   UNL     1       3.352   4.410  18.618  0.00  0.00    +0.000 A 
ATOM      4  C   UNL     1       2.675   5.457  19.266  0.00  0.00    +0.000 A 
ATOM      5  C   UNL     1       1.829   5.214  20.348  0.00  0.00    +0.000 A 
ATOM      6  C   UNL     1       1.181   6.277  20.968  0.00  0.00    +0.000 A 
ATOM      7  C   UNL     1       1.379   7.571  20.492  0.00  0.00    +0.000 A 
ATOM      8  N   UNL     1       2.194   7.819  19.433  0.00  0.00    +0.000 NA
ATOM      9  C   UNL     1       2.838   6.791  18.843  0.00  0.00    +0.000 A 
ATOM     10  C   UNL     1       3.710   7.033  17.788  0.00  0.00    +0.000 A 
ENDROOT
BRANCH   7  11
ATOM     11  C   UNL     1       0.673   8.731  21.080  0.00  0.00    +0.000 A 
ATOM     12  C   UNL     1       0.439   9.906  20.339  0.00  0.00    +0.000 A 
ATOM     13  C   UNL     1      -0.129  11.041  20.926  0.00  0.00    +0.000 A 
ATOM     14  C   UNL     1      -0.493  11.021  22.268  0.00  0.00    +0.000 A 
ATOM     15  C   UNL     1      -0.316   9.857  23.012  0.00  0.00    +0.000 A 
ATOM     16  C   UNL     1       0.254   8.724  22.422  0.00  0.00    +0.000 A 
ENDBRANCH   7  11
BRANCH   1  17
ATOM     17  C   UNL     1       5.398   6.373  16.096  0.00  0.00    +0.000 C 
ATOM     18  O   UNL     1       5.045   6.825  15.014  0.00  0.00    +0.000 OA
BRANCH  17  19
ATOM     19  O   UNL     1       6.685   6.199  16.495  0.00  0.00    +0.000 OA
BRANCH  19  21
ATOM     20  C   UNL     1       7.770   5.808  18.633  0.00  0.00    +0.000 C 
ATOM     21  C   UNL     1       7.018   6.809  17.762  0.00  0.00    +0.000 C 
ATOM     22  C   UNL     1       7.891   8.033  17.501  0.00  0.00    +0.000 C 
ENDBRANCH  19  21
ENDBRANCH  17  19
ENDBRANCH   1  17
TORSDOF 4
ENDMDL
MODEL 6
REMARK VINA RESULT:      -7.6      0.795      1.028
REMARK  Name = 
REMARK  6 active torsions:
REMARK  status: ('A' for Active; 'I' for Inactive)
REMARK    1  A    between atoms: C_1  and  C_2
REMARK    2  A    between atoms: C_2  and  C_3
REMARK    3  A    between atoms: C_2  and  O_4
REMARK    4  A    between atoms: O_4  and  C_5
REMARK    5  A    between atoms: C_5  and  C_7
REMARK    6  A    between atoms: C_13  and  C_14
REMARK                            x       y       z     vdW  Elec       q    Type
REMARK                         _______ _______ _______ _____ _____    ______ ____
ROOT
ATOM      1  C   UNL     1       3.494   5.336  18.774  0.00  0.00    +0.000 A 
ATOM      2  C   UNL     1       3.908   5.937  17.582  0.00  0.00    +0.000 A 
ATOM      3  C   UNL     1       3.481   7.229  17.280  0.00  0.00    +0.000 A 
ATOM      4  C   UNL     1       2.637   7.924  18.163  0.00  0.00    +0.000 A 
ATOM      5  C   UNL     1       2.163   9.200  17.859  0.00  0.00    +0.000 A 
ATOM      6  C   UNL     1       1.324   9.854  18.754  0.00  0.00    +0.000 A 
ATOM      7  C   UNL     1       0.977   9.229  19.949  0.00  0.00    +0.000 A 
ATOM      8  N   UNL     1       1.439   7.990  20.260  0.00  0.00    +0.000 NA
ATOM      9  C   UNL     1       2.238   7.346  19.384  0.00  0.00    +0.000 A 
ATOM     10  C   UNL     1       2.683   6.061  19.667  0.00  0.00    +0.000 A 
ENDROOT
BRANCH   7  11
ATOM     11  C   UNL     1       0.131   9.902  20.960  0.00  0.00    +0.000 A 
ATOM     12  C   UNL     1      -0.494  11.137  20.698  0.00  0.00    +0.000 A 
ATOM     13  C   UNL     1      -1.202  11.825  21.688  0.00  0.00    +0.000 A 
ATOM     14  C   UNL     1      -1.317  11.282  22.964  0.00  0.00    +0.000 A 
ATOM     15  C   UNL     1      -0.749  10.041  23.238  0.00  0.00    +0.000 A 
ATOM     16  C   UNL     1      -0.040   9.356  22.245  0.00  0.00    +0.000 A 
ENDBRANCH   7  11
BRANCH   1  17
ATOM     17  C   UNL     1       3.845   3.937  19.132  0.00  0.00    +0.000 C 
ATOM     18  O   UNL     1       4.544   3.232  18.415  0.00  0.00    +0.000 OA
BRANCH  17  19
ATOM     19  O   UNL     1       3.345   3.577  20.344  0.00  0.00    +0.000 OA
BRANCH  19  21
ATOM     20  C   UNL     1       1.564   2.490  21.587  0.00  0.00    +0.000 C 
ATOM     21  C   UNL     1       2.402   2.483  20.313  0.00  0.00    +0.000 C 
ATOM     22  C   UNL     1       1.500   2.649  19.094  0.00  0.00    +0.000 C 
ENDBRANCH  19  21
ENDBRANCH  17  19
ENDBRANCH   1  17
TORSDOF 4
ENDMDL
MODEL 7
REMARK VINA RESULT:      -7.6      1.407      2.393
REMARK  Name = 
REMARK  6 active torsions:
REMARK  status: ('A' for Active; 'I' for Inactive)
REMARK    1  A    between atoms: C_1  and  C_2
REMARK    2  A    between atoms: C_2  and  C_3
REMARK    3  A    between atoms: C_2  and  O_4
REMARK    4  A    between atoms: O_4  and  C_5
REMARK    5  A    between atoms: C_5  and  C_7
REMARK    6  A    between atoms: C_13  and  C_14
REMARK                            x       y       z     vdW  Elec       q    Type
REMARK                         _______ _______ _______ _____ _____    ______ ____
ROOT
ATOM      1  C   UNL     1       4.085   5.498  18.490  0.00  0.00    +0.000 A 
ATOM      2  C   UNL     1       4.259   6.109  17.245  0.00  0.00    +0.000 A 
ATOM      3  C   UNL     1       3.603   7.309  16.972  0.00  0.00    +0.000 A 
ATOM      4  C   UNL     1       2.768   7.900  17.936  0.00  0.00    +0.000 A 
ATOM      5  C   UNL     1       2.067   9.075  17.666  0.00  0.00    +0.000 A 
ATOM      6  C   UNL     1       1.246   9.626  18.642  0.00  0.00    +0.000 A 
ATOM      7  C   UNL     1       1.141   9.002  19.882  0.00  0.00    +0.000 A 
ATOM      8  N   UNL     1       1.826   7.861  20.160  0.00  0.00    +0.000 NA
ATOM      9  C   UNL     1       2.609   7.314  19.207  0.00  0.00    +0.000 A 
ATOM     10  C   UNL     1       3.279   6.123  19.459  0.00  0.00    +0.000 A 
ENDROOT
BRANCH   7  11
ATOM     11  C   UNL     1       0.324   9.575  20.975  0.00  0.00    +0.000 A 
ATOM     12  C   UNL     1      -0.422  10.757  20.797  0.00  0.00    +0.000 A 
ATOM     13  C   UNL     1      -1.106  11.358  21.859  0.00  0.00    +0.000 A 
ATOM     14  C   UNL     1      -1.074  10.778  23.122  0.00  0.00    +0.000 A 
ATOM     15  C   UNL     1      -0.384   9.584  23.316  0.00  0.00    +0.000 A 
ATOM     16  C   UNL     1       0.301   8.987  22.252  0.00  0.00    +0.000 A 
ENDBRANCH   7  11
BRANCH   1  17
ATOM     17  C   UNL     1       4.690   4.184  18.831  0.00  0.00    +0.000 C 
ATOM     18  O   UNL     1       4.101   3.125  18.657  0.00  0.00    +0.000 OA
BRANCH  17  19
ATOM     19  O   UNL     1       5.961   4.311  19.298  0.00  0.00    +0.000 OA
BRANCH  19  21
ATOM     20  C   UNL     1       7.852   5.824  19.479  0.00  0.00    +0.000 C 
ATOM     21  C   UNL     1       6.793   5.229  18.556  0.00  0.00    +0.000 C 
ATOM     22  C   UNL     1       7.463   4.469  17.415  0.00  0.00    +0.000 C 
ENDBRANCH  19  21
ENDBRANCH  17  19
ENDBRANCH   1  17
TORSDOF 4
ENDMDL
MODEL 8
REMARK VINA RESULT:      -7.5      1.056      1.605
REMARK  Name = 
REMARK  6 active torsions:
REMARK  status: ('A' for Active; 'I' for Inactive)
REMARK    1  A    between atoms: C_1  and  C_2
REMARK    2  A    between atoms: C_2  and  C_3
REMARK    3  A    between atoms: C_2  and  O_4
REMARK    4  A    between atoms: O_4  and  C_5
REMARK    5  A    between atoms: C_5  and  C_7
REMARK    6  A    between atoms: C_13  and  C_14
REMARK                            x       y       z     vdW  Elec       q    Type
REMARK                         _______ _______ _______ _____ _____    ______ ____
ROOT
ATOM      1  C   UNL     1       3.142   5.913  19.087  0.00  0.00    +0.000 A 
ATOM      2  C   UNL     1       3.456   6.395  17.812  0.00  0.00    +0.000 A 
ATOM      3  C   UNL     1       2.995   7.650  17.420  0.00  0.00    +0.000 A 
ATOM      4  C   UNL     1       2.214   8.427  18.293  0.00  0.00    +0.000 A 
ATOM      5  C   UNL     1       1.705   9.666  17.903  0.00  0.00    +0.000 A 
ATOM      6  C   UNL     1       0.931  10.403  18.792  0.00  0.00    +0.000 A 
ATOM      7  C   UNL     1       0.683   9.897  20.066  0.00  0.00    +0.000 A 
ATOM      8  N   UNL     1       1.181   8.696  20.460  0.00  0.00    +0.000 NA
ATOM      9  C   UNL     1       1.916   7.971  19.592  0.00  0.00    +0.000 A 
ATOM     10  C   UNL     1       2.394   6.720  19.964  0.00  0.00    +0.000 A 
ENDROOT
BRANCH   7  11
ATOM     11  C   UNL     1      -0.089  10.664  21.069  0.00  0.00    +0.000 A 
ATOM     12  C   UNL     1      -0.470  10.095  22.301  0.00  0.00    +0.000 A 
ATOM     13  C   UNL     1      -1.292  10.780  23.200  0.00  0.00    +0.000 A 
ATOM     14  C   UNL     1      -1.738  12.062  22.897  0.00  0.00    +0.000 A 
ATOM     15  C   UNL     1      -1.338  12.667  21.709  0.00  0.00    +0.000 A 
ATOM     16  C   UNL     1      -0.517  11.978  20.809  0.00  0.00    +0.000 A 
ENDBRANCH   7  11
BRANCH   1  17
ATOM     17  C   UNL     1       3.534   4.557  19.552  0.00  0.00    +0.000 C 
ATOM     18  O   UNL     1       4.437   3.919  19.026  0.00  0.00    +0.000 OA
BRANCH  17  19
ATOM     19  O   UNL     1       2.813   4.158  20.633  0.00  0.00    +0.000 OA
BRANCH  19  21
ATOM     20  C   UNL     1       1.624   2.416  21.838  0.00  0.00    +0.000 C 
ATOM     21  C   UNL     1       2.145   2.885  20.483  0.00  0.00    +0.000 C 
ATOM     22  C   UNL     1       0.985   3.053  19.507  0.00  0.00    +0.000 C 
ENDBRANCH  19  21
ENDBRANCH  17  19
ENDBRANCH   1  17
TORSDOF 4
ENDMDL
MODEL 9
REMARK VINA RESULT:      -7.5      3.108      4.524
REMARK  Name = 
REMARK  6 active torsions:
REMARK  status: ('A' for Active; 'I' for Inactive)
REMARK    1  A    between atoms: C_1  and  C_2
REMARK    2  A    between atoms: C_2  and  C_3
REMARK    3  A    between atoms: C_2  and  O_4
REMARK    4  A    between atoms: O_4  and  C_5
REMARK    5  A    between atoms: C_5  and  C_7
REMARK    6  A    between atoms: C_13  and  C_14
REMARK                            x       y       z     vdW  Elec       q    Type
REMARK                         _______ _______ _______ _____ _____    ______ ____
ROOT
ATOM      1  C   UNL     1       5.272   4.928  16.304  0.00  0.00    +0.000 A 
ATOM      2  C   UNL     1       4.988   3.654  16.804  0.00  0.00    +0.000 A 
ATOM      3  C   UNL     1       4.089   3.517  17.861  0.00  0.00    +0.000 A 
ATOM      4  C   UNL     1       3.475   4.648  18.425  0.00  0.00    +0.000 A 
ATOM      5  C   UNL     1       2.608   4.536  19.512  0.00  0.00    +0.000 A 
ATOM      6  C   UNL     1       2.025   5.678  20.048  0.00  0.00    +0.000 A 
ATOM      7  C   UNL     1       2.307   6.920  19.485  0.00  0.00    +0.000 A 
ATOM      8  N   UNL     1       3.144   7.041  18.420  0.00  0.00    +0.000 NA
ATOM      9  C   UNL     1       3.725   5.935  17.911  0.00  0.00    +0.000 A 
ATOM     10  C   UNL     1       4.618   6.047  16.852  0.00  0.00    +0.000 A 
ENDROOT
BRANCH   7  11
ATOM     11  C   UNL     1       1.672   8.161  19.982  0.00  0.00    +0.000 A 
ATOM     12  C   UNL     1       1.298   8.310  21.332  0.00  0.00    +0.000 A 
ATOM     13  C   UNL     1       0.600   9.437  21.778  0.00  0.00    +0.000 A 
ATOM     14  C   UNL     1       0.275  10.452  20.885  0.00  0.00    +0.000 A 
ATOM     15  C   UNL     1       0.674  10.353  19.555  0.00  0.00    +0.000 A 
ATOM     16  C   UNL     1       1.371   9.223  19.111  0.00  0.00    +0.000 A 
ENDBRANCH   7  11
BRANCH   1  17
ATOM     17  C   UNL     1       6.272   5.164  15.230  0.00  0.00    +0.000 C 
ATOM     18  O   UNL     1       7.424   5.502  15.469  0.00  0.00    +0.000 OA
BRANCH  17  19
ATOM     19  O   UNL     1       5.766   4.913  13.994  0.00  0.00    +0.000 OA
BRANCH  19  21
ATOM     20  C   UNL     1       5.634   3.176  12.302  0.00  0.00    +0.000 C 
ATOM     21  C   UNL     1       6.554   4.013  13.184  0.00  0.00    +0.000 C 
ATOM     22  C   UNL     1       7.500   4.838  12.316  0.00  0.00    +0.000 C 
ENDBRANCH  19  21
ENDBRANCH  17  19
ENDBRANCH   1  17
TORSDOF 4
ENDMDL
