MODEL 1
REMARK VINA RESULT:      -7.7      0.000      0.000
REMARK  Name = 
REMARK  5 active torsions:
REMARK  status: ('A' for Active; 'I' for Inactive)
REMARK    1  A    between atoms: C_1  and  N_2
REMARK    2  A    between atoms: N_2  and  C_3
REMARK    3  A    between atoms: N_2  and  C_4
REMARK    4  A    between atoms: C_7  and  C_8
REMARK    5  A    between atoms: C_10  and  C_11
REMARK                            x       y       z     vdW  Elec       q    Type
REMARK                         _______ _______ _______ _____ _____    ______ ____
ROOT
ATOM      1  C   UNL     1       0.537  10.258  19.969  0.00  0.00    +0.000 C 
ATOM      2  C   UNL     1      -0.812  10.297  19.269  0.00  0.00    +0.000 C 
ATOM      3  C   UNL     1      -1.301  11.447  18.774  0.00  0.00    +0.000 C 
ATOM      4  N   UNL     1      -0.534  12.581  18.882  0.00  0.00    +0.000 N 
ATOM      5  N   UNL     1      -0.889  13.865  18.503  0.00  0.00    +0.000 N 
ATOM      6  C   UNL     1       0.053  14.811  18.817  0.00  0.00    +0.000 C 
ATOM      7  S   UNL     1      -0.261  16.440  18.812  0.00  0.00    +0.000 S 
ATOM      8  S   UNL     1       1.564  14.059  19.272  0.00  0.00    +0.000 S 
ATOM      9  C   UNL     1       0.753  12.511  19.360  0.00  0.00    +0.000 C 
ATOM     10  N   UNL     1       1.361  11.487  19.847  0.00  0.00    +0.000 NA
ATOM     11  H   UNL     1      -1.874  14.100  18.453  0.00  0.00    +0.000 HD
ENDROOT
BRANCH   1  15
ATOM     12  C   UNL     1       2.752   6.646  18.839  0.00  0.00    +0.000 A 
ATOM     13  C   UNL     1       2.575   7.717  17.946  0.00  0.00    +0.000 A 
ATOM     14  C   UNL     1       1.881   8.885  18.299  0.00  0.00    +0.000 A 
ATOM     15  C   UNL     1       1.336   9.030  19.575  0.00  0.00    +0.000 A 
ATOM     16  C   UNL     1       1.541   7.999  20.496  0.00  0.00    +0.000 A 
ATOM     17  C   UNL     1       2.236   6.838  20.131  0.00  0.00    +0.000 A 
BRANCH  12  19
ATOM     18  C   UNL     1       2.706   4.415  17.771  0.00  0.00    +0.000 C 
ATOM     19  N   UNL     1       3.414   5.474  18.479  0.00  0.00    +0.000 N 
ATOM     20  C   UNL     1       4.663   5.113  19.142  0.00  0.00    +0.000 C 
ENDBRANCH  12  19
ENDBRANCH   1  15
BRANCH   3  21
ATOM     21  C   UNL     1      -2.625  11.489  18.149  0.00  0.00    +0.000 A 
ATOM     22  C   UNL     1      -3.741  11.883  18.898  0.00  0.00    +0.000 A 
ATOM     23  C   UNL     1      -5.007  11.918  18.313  0.00  0.00    +0.000 A 
ATOM     24  C   UNL     1      -5.167  11.556  16.976  0.00  0.00    +0.000 A 
ATOM     25  C   UNL     1      -4.062  11.160  16.223  0.00  0.00    +0.000 A 
ATOM     26  C   UNL     1      -2.793  11.127  16.806  0.00  0.00    +0.000 A 
ENDBRANCH   3  21
TORSDOF 3
ENDMDL
MODEL 2
REMARK VINA RESULT:      -7.7      0.156      1.367
REMARK  Name = 
REMARK  5 active torsions:
REMARK  status: ('A' for Active; 'I' for Inactive)
REMARK    1  A    between atoms: C_1  and  N_2
REMARK    2  A    between atoms: N_2  and  C_3
REMARK    3  A    between atoms: N_2  and  C_4
REMARK    4  A    between atoms: C_7  and  C_8
REMARK    5  A    between atoms: C_10  and  C_11
REMARK                            x       y       z     vdW  Elec       q    Type
REMARK                         _______ _______ _______ _____ _____    ______ ____
ROOT
ATOM      1  C   UNL     1       0.581  10.197  19.931  0.00  0.00    +0.000 C 
ATOM      2  C   UNL     1      -0.783  10.251  19.261  0.00  0.00    +0.000 C 
ATOM      3  C   UNL     1      -1.267  11.405  18.769  0.00  0.00    +0.000 C 
ATOM      4  N   UNL     1      -0.480  12.528  18.852  0.00  0.00    +0.000 N 
ATOM      5  N   UNL     1      -0.826  13.814  18.472  0.00  0.00    +0.000 N 
ATOM      6  C   UNL     1       0.137  14.749  18.759  0.00  0.00    +0.000 C 
ATOM      7  S   UNL     1      -0.154  16.382  18.750  0.00  0.00    +0.000 S 
ATOM      8  S   UNL     1       1.647  13.978  19.185  0.00  0.00    +0.000 S 
ATOM      9  C   UNL     1       0.816  12.442  19.302  0.00  0.00    +0.000 C 
ATOM     10  N   UNL     1       1.419  11.412  19.783  0.00  0.00    +0.000 NA
ATOM     11  H   UNL     1      -1.808  14.064  18.443  0.00  0.00    +0.000 HD
ENDROOT
BRANCH   1  15
ATOM     12  C   UNL     1       2.908   6.669  18.762  0.00  0.00    +0.000 A 
ATOM     13  C   UNL     1       2.307   6.775  20.029  0.00  0.00    +0.000 A 
ATOM     14  C   UNL     1       1.548   7.892  20.411  0.00  0.00    +0.000 A 
ATOM     15  C   UNL     1       1.353   8.955  19.528  0.00  0.00    +0.000 A 
ATOM     16  C   UNL     1       1.900   8.851  18.246  0.00  0.00    +0.000 A 
ATOM     17  C   UNL     1       2.656   7.730  17.877  0.00  0.00    +0.000 A 
BRANCH  12  19
ATOM     18  C   UNL     1       3.103   4.475  17.635  0.00  0.00    +0.000 C 
ATOM     19  N   UNL     1       3.687   5.574  18.393  0.00  0.00    +0.000 N 
ATOM     20  C   UNL     1       4.944   5.312  19.087  0.00  0.00    +0.000 C 
ENDBRANCH  12  19
ENDBRANCH   1  15
BRANCH   3  21
ATOM     21  C   UNL     1      -2.604  11.462  18.174  0.00  0.00    +0.000 A 
ATOM     22  C   UNL     1      -2.788  11.116  16.830  0.00  0.00    +0.000 A 
ATOM     23  C   UNL     1      -4.056  11.176  16.253  0.00  0.00    +0.000 A 
ATOM     24  C   UNL     1      -5.150  11.586  17.015  0.00  0.00    +0.000 A 
ATOM     25  C   UNL     1      -4.976  11.934  18.354  0.00  0.00    +0.000 A 
ATOM     26  C   UNL     1      -3.706  11.872  18.935  0.00  0.00    +0.000 A 
ENDBRANCH   3  21
TORSDOF 3
ENDMDL
MODEL 3
REMARK VINA RESULT:      -7.7      0.110      1.200
REMARK  Name = 
REMARK  5 active torsions:
REMARK  status: ('A' for Active; 'I' for Inactive)
REMARK    1  A    between atoms: C_1  and  N_2
REMARK    2  A    between atoms: N_2  and  C_3
REMARK    3  A    between atoms: N_2  and  C_4
REMARK    4  A    between atoms: C_7  and  C_8
REMARK    5  A    between atoms: C_10  and  C_11
REMARK                            x       y       z     vdW  Elec       q    Type
REMARK                         _______ _______ _______ _____ _____    ______ ____
ROOT
ATOM      1  C   UNL     1       0.511  10.259  20.033  0.00  0.00    +0.000 C 
ATOM      2  C   UNL     1      -0.835  10.293  19.327  0.00  0.00    +0.000 C 
ATOM      3  C   UNL     1      -1.313  11.436  18.804  0.00  0.00    +0.000 C 
ATOM      4  N   UNL     1      -0.535  12.565  18.888  0.00  0.00    +0.000 N 
ATOM      5  N   UNL     1      -0.878  13.842  18.478  0.00  0.00    +0.000 N 
ATOM      6  C   UNL     1       0.072  14.788  18.773  0.00  0.00    +0.000 C 
ATOM      7  S   UNL     1      -0.228  16.418  18.729  0.00  0.00    +0.000 S 
ATOM      8  S   UNL     1       1.575  14.033  19.251  0.00  0.00    +0.000 S 
ATOM      9  C   UNL     1       0.749  12.494  19.372  0.00  0.00    +0.000 C 
ATOM     10  N   UNL     1       1.346  11.476  19.885  0.00  0.00    +0.000 NA
ATOM     11  H   UNL     1      -1.861  14.086  18.419  0.00  0.00    +0.000 HD
ENDROOT
BRANCH   1  15
ATOM     12  C   UNL     1       2.695   6.602  18.993  0.00  0.00    +0.000 A 
ATOM     13  C   UNL     1       2.549   7.662  18.082  0.00  0.00    +0.000 A 
ATOM     14  C   UNL     1       1.865   8.844  18.406  0.00  0.00    +0.000 A 
ATOM     15  C   UNL     1       1.300   9.015  19.671  0.00  0.00    +0.000 A 
ATOM     16  C   UNL     1       1.475   7.994  20.609  0.00  0.00    +0.000 A 
ATOM     17  C   UNL     1       2.160   6.819  20.273  0.00  0.00    +0.000 A 
BRANCH  12  19
ATOM     18  C   UNL     1       4.782   5.276  18.884  0.00  0.00    +0.000 C 
ATOM     19  N   UNL     1       3.348   5.416  18.662  0.00  0.00    +0.000 N 
ATOM     20  C   UNL     1       2.723   4.479  17.734  0.00  0.00    +0.000 C 
ENDBRANCH  12  19
ENDBRANCH   1  15
BRANCH   3  21
ATOM     21  C   UNL     1      -2.635  11.475  18.174  0.00  0.00    +0.000 A 
ATOM     22  C   UNL     1      -2.779  11.122  16.827  0.00  0.00    +0.000 A 
ATOM     23  C   UNL     1      -4.033  11.165  16.217  0.00  0.00    +0.000 A 
ATOM     24  C   UNL     1      -5.151  11.565  16.949  0.00  0.00    +0.000 A 
ATOM     25  C   UNL     1      -5.016  11.920  18.291  0.00  0.00    +0.000 A 
ATOM     26  C   UNL     1      -3.762  11.875  18.904  0.00  0.00    +0.000 A 
ENDBRANCH   3  21
TORSDOF 3
ENDMDL
MODEL 4
REMARK VINA RESULT:      -7.3      3.928      8.222
REMARK  Name = 
REMARK  5 active torsions:
REMARK  status: ('A' for Active; 'I' for Inactive)
REMARK    1  A    between atoms: C_1  and  N_2
REMARK    2  A    between atoms: N_2  and  C_3
REMARK    3  A    between atoms: N_2  and  C_4
REMARK    4  A    between atoms: C_7  and  C_8
REMARK    5  A    between atoms: C_10  and  C_11
REMARK                            x       y       z     vdW  Elec       q    Type
REMARK                         _______ _______ _______ _____ _____    ______ ____
ROOT
ATOM      1  C   UNL     1       2.071   8.292  17.721  0.00  0.00    +0.000 C 
ATOM      2  C   UNL     1       1.677   7.081  18.551  0.00  0.00    +0.000 C 
ATOM      3  C   UNL     1       2.519   6.045  18.707  0.00  0.00    +0.000 C 
ATOM      4  N   UNL     1       3.763   6.125  18.128  0.00  0.00    +0.000 N 
ATOM      5  N   UNL     1       4.737   5.141  18.114  0.00  0.00    +0.000 N 
ATOM      6  C   UNL     1       5.846   5.478  17.380  0.00  0.00    +0.000 C 
ATOM      7  S   UNL     1       6.984   4.371  16.897  0.00  0.00    +0.000 S 
ATOM      8  S   UNL     1       5.842   7.182  16.989  0.00  0.00    +0.000 S 
ATOM      9  C   UNL     1       4.179   7.288  17.525  0.00  0.00    +0.000 C 
ATOM     10  N   UNL     1       3.498   8.360  17.320  0.00  0.00    +0.000 NA
ATOM     11  H   UNL     1       4.451   4.174  18.221  0.00  0.00    +0.000 HD
ENDROOT
BRANCH   1  15
ATOM     12  C   UNL     1       0.755  12.067  19.523  0.00  0.00    +0.000 A 
ATOM     13  C   UNL     1       0.252  10.825  19.952  0.00  0.00    +0.000 A 
ATOM     14  C   UNL     1       0.676   9.609  19.394  0.00  0.00    +0.000 A 
ATOM     15  C   UNL     1       1.632   9.587  18.379  0.00  0.00    +0.000 A 
ATOM     16  C   UNL     1       2.182  10.805  17.970  0.00  0.00    +0.000 A 
ATOM     17  C   UNL     1       1.751  12.013  18.535  0.00  0.00    +0.000 A 
BRANCH  12  19
ATOM     18  C   UNL     1      -0.037  14.385  19.177  0.00  0.00    +0.000 C 
ATOM     19  N   UNL     1       0.312  13.276  20.056  0.00  0.00    +0.000 N 
ATOM     20  C   UNL     1       0.578  13.593  21.455  0.00  0.00    +0.000 C 
ENDBRANCH  12  19
ENDBRANCH   1  15
BRANCH   3  21
ATOM     21  C   UNL     1       2.113   4.857  19.461  0.00  0.00    +0.000 A 
ATOM     22  C   UNL     1       2.417   4.755  20.824  0.00  0.00    +0.000 A 
ATOM     23  C   UNL     1       2.041   3.623  21.548  0.00  0.00    +0.000 A 
ATOM     24  C   UNL     1       1.361   2.584  20.913  0.00  0.00    +0.000 A 
ATOM     25  C   UNL     1       1.056   2.676  19.556  0.00  0.00    +0.000 A 
ATOM     26  C   UNL     1       1.429   3.809  18.829  0.00  0.00    +0.000 A 
ENDBRANCH   3  21
TORSDOF 3
ENDMDL
MODEL 5
REMARK VINA RESULT:      -7.2      3.922      8.173
REMARK  Name = 
REMARK  5 active torsions:
REMARK  status: ('A' for Active; 'I' for Inactive)
REMARK    1  A    between atoms: C_1  and  N_2
REMARK    2  A    between atoms: N_2  and  C_3
REMARK    3  A    between atoms: N_2  and  C_4
REMARK    4  A    between atoms: C_7  and  C_8
REMARK    5  A    between atoms: C_10  and  C_11
REMARK                            x       y       z     vdW  Elec       q    Type
REMARK                         _______ _______ _______ _____ _____    ______ ____
ROOT
ATOM      1  C   UNL     1       2.086   8.286  17.683  0.00  0.00    +0.000 C 
ATOM      2  C   UNL     1       1.683   7.077  18.512  0.00  0.00    +0.000 C 
ATOM      3  C   UNL     1       2.531   6.051  18.697  0.00  0.00    +0.000 C 
ATOM      4  N   UNL     1       3.788   6.139  18.150  0.00  0.00    +0.000 N 
ATOM      5  N   UNL     1       4.772   5.164  18.167  0.00  0.00    +0.000 N 
ATOM      6  C   UNL     1       5.896   5.506  17.458  0.00  0.00    +0.000 C 
ATOM      7  S   UNL     1       7.055   4.407  17.012  0.00  0.00    +0.000 S 
ATOM      8  S   UNL     1       5.885   7.207  17.054  0.00  0.00    +0.000 S 
ATOM      9  C   UNL     1       4.208   7.301  17.548  0.00  0.00    +0.000 C 
ATOM     10  N   UNL     1       3.522   8.365  17.317  0.00  0.00    +0.000 NA
ATOM     11  H   UNL     1       4.493   4.195  18.274  0.00  0.00    +0.000 HD
ENDROOT
BRANCH   1  15
ATOM     12  C   UNL     1       0.780  11.996  19.621  0.00  0.00    +0.000 A 
ATOM     13  C   UNL     1       1.752  11.993  18.605  0.00  0.00    +0.000 A 
ATOM     14  C   UNL     1       2.169  10.814  17.966  0.00  0.00    +0.000 A 
ATOM     15  C   UNL     1       1.619   9.582  18.319  0.00  0.00    +0.000 A 
ATOM     16  C   UNL     1       0.617   9.566  19.293  0.00  0.00    +0.000 A 
ATOM     17  C   UNL     1       0.209  10.750  19.923  0.00  0.00    +0.000 A 
BRANCH  12  19
ATOM     18  C   UNL     1       0.033  13.130  21.689  0.00  0.00    +0.000 C 
ATOM     19  N   UNL     1       0.389  13.162  20.277  0.00  0.00    +0.000 N 
ATOM     20  C   UNL     1      -0.064  14.313  19.502  0.00  0.00    +0.000 C 
ENDBRANCH  12  19
ENDBRANCH   1  15
BRANCH   3  21
ATOM     21  C   UNL     1       2.118   4.865  19.451  0.00  0.00    +0.000 A 
ATOM     22  C   UNL     1       2.403   4.769  20.818  0.00  0.00    +0.000 A 
ATOM     23  C   UNL     1       2.021   3.639  21.541  0.00  0.00    +0.000 A 
ATOM     24  C   UNL     1       1.352   2.596  20.902  0.00  0.00    +0.000 A 
ATOM     25  C   UNL     1       1.065   2.681  19.540  0.00  0.00    +0.000 A 
ATOM     26  C   UNL     1       1.446   3.813  18.814  0.00  0.00    +0.000 A 
ENDBRANCH   3  21
TORSDOF 3
ENDMDL
MODEL 6
REMARK VINA RESULT:      -7.2      4.025      8.275
REMARK  Name = 
REMARK  5 active torsions:
REMARK  status: ('A' for Active; 'I' for Inactive)
REMARK    1  A    between atoms: C_1  and  N_2
REMARK    2  A    between atoms: N_2  and  C_3
REMARK    3  A    between atoms: N_2  and  C_4
REMARK    4  A    between atoms: C_7  and  C_8
REMARK    5  A    between atoms: C_10  and  C_11
REMARK                            x       y       z     vdW  Elec       q    Type
REMARK                         _______ _______ _______ _____ _____    ______ ____
ROOT
ATOM      1  C   UNL     1       2.038   8.301  17.797  0.00  0.00    +0.000 C 
ATOM      2  C   UNL     1       1.665   7.081  18.624  0.00  0.00    +0.000 C 
ATOM      3  C   UNL     1       2.499   6.031  18.722  0.00  0.00    +0.000 C 
ATOM      4  N   UNL     1       3.716   6.104  18.088  0.00  0.00    +0.000 N 
ATOM      5  N   UNL     1       4.674   5.107  18.011  0.00  0.00    +0.000 N 
ATOM      6  C   UNL     1       5.752   5.442  17.231  0.00  0.00    +0.000 C 
ATOM      7  S   UNL     1       6.850   4.329  16.677  0.00  0.00    +0.000 S 
ATOM      8  S   UNL     1       5.755   7.152  16.870  0.00  0.00    +0.000 S 
ATOM      9  C   UNL     1       4.120   7.272  17.486  0.00  0.00    +0.000 C 
ATOM     10  N   UNL     1       3.446   8.356  17.330  0.00  0.00    +0.000 NA
ATOM     11  H   UNL     1       4.380   4.142  18.114  0.00  0.00    +0.000 HD
ENDROOT
BRANCH   1  15
ATOM     12  C   UNL     1       0.854  12.056  19.727  0.00  0.00    +0.000 A 
ATOM     13  C   UNL     1       0.438  10.806  20.219  0.00  0.00    +0.000 A 
ATOM     14  C   UNL     1       0.821   9.596  19.620  0.00  0.00    +0.000 A 
ATOM     15  C   UNL     1       1.649   9.590  18.497  0.00  0.00    +0.000 A 
ATOM     16  C   UNL     1       2.115  10.818  18.019  0.00  0.00    +0.000 A 
ATOM     17  C   UNL     1       1.725  12.019  18.626  0.00  0.00    +0.000 A 
BRANCH  12  19
ATOM     18  C   UNL     1       0.010  13.300  21.692  0.00  0.00    +0.000 C 
ATOM     19  N   UNL     1       0.449  13.259  20.303  0.00  0.00    +0.000 N 
ATOM     20  C   UNL     1       0.067  14.380  19.450  0.00  0.00    +0.000 C 
ENDBRANCH  12  19
ENDBRANCH   1  15
BRANCH   3  21
ATOM     21  C   UNL     1       2.112   4.835  19.475  0.00  0.00    +0.000 A 
ATOM     22  C   UNL     1       1.409   3.805  18.839  0.00  0.00    +0.000 A 
ATOM     23  C   UNL     1       1.028   2.667  19.550  0.00  0.00    +0.000 A 
ATOM     24  C   UNL     1       1.345   2.552  20.903  0.00  0.00    +0.000 A 
ATOM     25  C   UNL     1       2.044   3.574  21.546  0.00  0.00    +0.000 A 
ATOM     26  C   UNL     1       2.427   4.714  20.834  0.00  0.00    +0.000 A 
ENDBRANCH   3  21
TORSDOF 3
ENDMDL
MODEL 7
REMARK VINA RESULT:      -7.2      3.942      8.197
REMARK  Name = 
REMARK  5 active torsions:
REMARK  status: ('A' for Active; 'I' for Inactive)
REMARK    1  A    between atoms: C_1  and  N_2
REMARK    2  A    between atoms: N_2  and  C_3
REMARK    3  A    between atoms: N_2  and  C_4
REMARK    4  A    between atoms: C_7  and  C_8
REMARK    5  A    between atoms: C_10  and  C_11
REMARK                            x       y       z     vdW  Elec       q    Type
REMARK                         _______ _______ _______ _____ _____    ______ ____
ROOT
ATOM      1  C   UNL     1       2.092   8.293  17.688  0.00  0.00    +0.000 C 
ATOM      2  C   UNL     1       1.694   7.087  18.523  0.00  0.00    +0.000 C 
ATOM      3  C   UNL     1       2.540   6.058  18.700  0.00  0.00    +0.000 C 
ATOM      4  N   UNL     1       3.791   6.140  18.138  0.00  0.00    +0.000 N 
ATOM      5  N   UNL     1       4.771   5.163  18.146  0.00  0.00    +0.000 N 
ATOM      6  C   UNL     1       5.889   5.500  17.424  0.00  0.00    +0.000 C 
ATOM      7  S   UNL     1       7.039   4.396  16.967  0.00  0.00    +0.000 S 
ATOM      8  S   UNL     1       5.880   7.200  17.018  0.00  0.00    +0.000 S 
ATOM      9  C   UNL     1       4.209   7.301  17.530  0.00  0.00    +0.000 C 
ATOM     10  N   UNL     1       3.524   8.366  17.305  0.00  0.00    +0.000 NA
ATOM     11  H   UNL     1       4.490   4.195  18.258  0.00  0.00    +0.000 HD
ENDROOT
BRANCH   1  15
ATOM     12  C   UNL     1       0.821  12.011  19.635  0.00  0.00    +0.000 A 
ATOM     13  C   UNL     1       1.783  12.002  18.610  0.00  0.00    +0.000 A 
ATOM     14  C   UNL     1       2.189  10.822  17.968  0.00  0.00    +0.000 A 
ATOM     15  C   UNL     1       1.637   9.592  18.328  0.00  0.00    +0.000 A 
ATOM     16  C   UNL     1       0.644   9.581  19.311  0.00  0.00    +0.000 A 
ATOM     17  C   UNL     1       0.247  10.767  19.944  0.00  0.00    +0.000 A 
BRANCH  12  19
ATOM     18  C   UNL     1       0.779  14.483  19.737  0.00  0.00    +0.000 C 
ATOM     19  N   UNL     1       0.441  13.179  20.294  0.00  0.00    +0.000 N 
ATOM     20  C   UNL     1       0.081  13.131  21.707  0.00  0.00    +0.000 C 
ENDBRANCH  12  19
ENDBRANCH   1  15
BRANCH   3  21
ATOM     21  C   UNL     1       2.131   4.875  19.460  0.00  0.00    +0.000 A 
ATOM     22  C   UNL     1       1.428   3.844  18.825  0.00  0.00    +0.000 A 
ATOM     23  C   UNL     1       1.026   2.717  19.543  0.00  0.00    +0.000 A 
ATOM     24  C   UNL     1       1.323   2.614  20.902  0.00  0.00    +0.000 A 
ATOM     25  C   UNL     1       2.022   3.637  21.543  0.00  0.00    +0.000 A 
ATOM     26  C   UNL     1       2.427   4.765  20.825  0.00  0.00    +0.000 A 
ENDBRANCH   3  21
TORSDOF 3
ENDMDL
MODEL 8
REMARK VINA RESULT:      -7.1      2.963      3.900
REMARK  Name = 
REMARK  5 active torsions:
REMARK  status: ('A' for Active; 'I' for Inactive)
REMARK    1  A    between atoms: C_1  and  N_2
REMARK    2  A    between atoms: N_2  and  C_3
REMARK    3  A    between atoms: N_2  and  C_4
REMARK    4  A    between atoms: C_7  and  C_8
REMARK    5  A    between atoms: C_10  and  C_11
REMARK                            x       y       z     vdW  Elec       q    Type
REMARK                         _______ _______ _______ _____ _____    ______ ____
ROOT
ATOM      1  C   UNL     1       0.233  10.450  18.454  0.00  0.00    +0.000 C 
ATOM      2  C   UNL     1      -0.092  11.274  19.690  0.00  0.00    +0.000 C 
ATOM      3  C   UNL     1      -1.319  11.792  19.873  0.00  0.00    +0.000 C 
ATOM      4  N   UNL     1      -2.285  11.525  18.933  0.00  0.00    +0.000 N 
ATOM      5  N   UNL     1      -3.577  12.022  18.905  0.00  0.00    +0.000 N 
ATOM      6  C   UNL     1      -4.285  11.649  17.791  0.00  0.00    +0.000 C 
ATOM      7  S   UNL     1      -5.698  12.383  17.327  0.00  0.00    +0.000 S 
ATOM      8  S   UNL     1      -3.462  10.370  16.929  0.00  0.00    +0.000 S 
ATOM      9  C   UNL     1      -2.038  10.643  17.908  0.00  0.00    +0.000 C 
ATOM     10  N   UNL     1      -0.929  10.058  17.618  0.00  0.00    +0.000 NA
ATOM     11  H   UNL     1      -3.771  12.896  19.383  0.00  0.00    +0.000 HD
ENDROOT
BRANCH   1  15
ATOM     12  C   UNL     1       2.601   6.900  19.463  0.00  0.00    +0.000 A 
ATOM     13  C   UNL     1       2.577   7.430  18.161  0.00  0.00    +0.000 A 
ATOM     14  C   UNL     1       1.836   8.574  17.827  0.00  0.00    +0.000 A 
ATOM     15  C   UNL     1       1.085   9.242  18.795  0.00  0.00    +0.000 A 
ATOM     16  C   UNL     1       1.131   8.762  20.107  0.00  0.00    +0.000 A 
ATOM     17  C   UNL     1       1.876   7.619  20.427  0.00  0.00    +0.000 A 
BRANCH  12  19
ATOM     18  C   UNL     1       4.597   5.471  19.156  0.00  0.00    +0.000 C 
ATOM     19  N   UNL     1       3.313   5.747  19.787  0.00  0.00    +0.000 N 
ATOM     20  C   UNL     1       2.628   4.626  20.422  0.00  0.00    +0.000 C 
ENDBRANCH  12  19
ENDBRANCH   1  15
BRANCH   3  21
ATOM     21  C   UNL     1      -1.611  12.631  21.037  0.00  0.00    +0.000 A 
ATOM     22  C   UNL     1      -2.019  12.042  22.240  0.00  0.00    +0.000 A 
ATOM     23  C   UNL     1      -2.308  12.834  23.352  0.00  0.00    +0.000 A 
ATOM     24  C   UNL     1      -2.192  14.221  23.268  0.00  0.00    +0.000 A 
ATOM     25  C   UNL     1      -1.788  14.817  22.073  0.00  0.00    +0.000 A 
ATOM     26  C   UNL     1      -1.497  14.025  20.959  0.00  0.00    +0.000 A 
ENDBRANCH   3  21
TORSDOF 3
ENDMDL
MODEL 9
REMARK VINA RESULT:      -7.1      2.876      3.948
REMARK  Name = 
REMARK  5 active torsions:
REMARK  status: ('A' for Active; 'I' for Inactive)
REMARK    1  A    between atoms: C_1  and  N_2
REMARK    2  A    between atoms: N_2  and  C_3
REMARK    3  A    between atoms: N_2  and  C_4
REMARK    4  A    between atoms: C_7  and  C_8
REMARK    5  A    between atoms: C_10  and  C_11
REMARK                            x       y       z     vdW  Elec       q    Type
REMARK                         _______ _______ _______ _____ _____    ______ ____
ROOT
ATOM      1  C   UNL     1       0.640  10.112  18.422  0.00  0.00    +0.000 C 
ATOM      2  C   UNL     1       0.364  10.937  19.669  0.00  0.00    +0.000 C 
ATOM      3  C   UNL     1      -0.850  11.472  19.889  0.00  0.00    +0.000 C 
ATOM      4  N   UNL     1      -1.846  11.224  18.977  0.00  0.00    +0.000 N 
ATOM      5  N   UNL     1      -3.131  11.740  18.988  0.00  0.00    +0.000 N 
ATOM      6  C   UNL     1      -3.876  11.381  17.893  0.00  0.00    +0.000 C 
ATOM      7  S   UNL     1      -5.291  12.138  17.472  0.00  0.00    +0.000 S 
ATOM      8  S   UNL     1      -3.098  10.092  17.004  0.00  0.00    +0.000 S 
ATOM      9  C   UNL     1      -1.642  10.341  17.943  0.00  0.00    +0.000 C 
ATOM     10  N   UNL     1      -0.551   9.740  17.619  0.00  0.00    +0.000 NA
ATOM     11  H   UNL     1      -3.298  12.615  19.473  0.00  0.00    +0.000 HD
ENDROOT
BRANCH   1  15
ATOM     12  C   UNL     1       2.982   6.520  19.337  0.00  0.00    +0.000 A 
ATOM     13  C   UNL     1       3.062   7.159  18.087  0.00  0.00    +0.000 A 
ATOM     14  C   UNL     1       2.329   8.317  17.786  0.00  0.00    +0.000 A 
ATOM     15  C   UNL     1       1.484   8.890  18.736  0.00  0.00    +0.000 A 
ATOM     16  C   UNL     1       1.425   8.300  20.002  0.00  0.00    +0.000 A 
ATOM     17  C   UNL     1       2.162   7.144  20.290  0.00  0.00    +0.000 A 
BRANCH  12  19
ATOM     18  C   UNL     1       5.071   5.201  19.198  0.00  0.00    +0.000 C 
ATOM     19  N   UNL     1       3.686   5.352  19.625  0.00  0.00    +0.000 N 
ATOM     20  C   UNL     1       2.961   4.135  19.976  0.00  0.00    +0.000 C 
ENDBRANCH  12  19
ENDBRANCH   1  15
BRANCH   3  21
ATOM     21  C   UNL     1      -1.095  12.312  21.064  0.00  0.00    +0.000 A 
ATOM     22  C   UNL     1      -0.835  13.686  21.010  0.00  0.00    +0.000 A 
ATOM     23  C   UNL     1      -1.057  14.492  22.127  0.00  0.00    +0.000 A 
ATOM     24  C   UNL     1      -1.540  13.928  23.308  0.00  0.00    +0.000 A 
ATOM     25  C   UNL     1      -1.801  12.559  23.372  0.00  0.00    +0.000 A 
ATOM     26  C   UNL     1      -1.580  11.751  22.253  0.00  0.00    +0.000 A 
ENDBRANCH   3  21
TORSDOF 3
ENDMDL
