MODEL 1
REMARK VINA RESULT:      -6.1      0.000      0.000
REMARK  Name = 
REMARK  4 active torsions:
REMARK  status: ('A' for Active; 'I' for Inactive)
REMARK    1  A    between atoms: C_1  and  C_2
REMARK    2  A    between atoms: N_5  and  C_6
REMARK    3  A    between atoms: C_6  and  C_7
REMARK    4  A    between atoms: C_10  and  C_11
REMARK                            x       y       z     vdW  Elec       q    Type
REMARK                         _______ _______ _______ _____ _____    ______ ____
ROOT
ATOM      1  C   UNL     1       1.376   4.872  20.836  0.00  0.00    +0.000 C 
ATOM      2  C   UNL     1       1.936   4.451  19.479  0.00  0.00    +0.000 C 
ATOM      3  C   UNL     1       3.064   5.382  19.030  0.00  0.00    +0.000 C 
ATOM      4  C   UNL     1       3.602   5.141  17.607  0.00  0.00    +0.000 C 
ATOM      5  N   UNL     1       4.547   4.025  17.576  0.00  0.00    +0.000 NA
ATOM      6  C   UNL     1       3.974   2.713  17.251  0.00  0.00    +0.000 C 
ATOM      7  C   UNL     1       2.612   2.353  17.812  0.00  0.00    +0.000 C 
ATOM      8  S   UNL     1       2.413   2.722  19.530  0.00  0.00    +0.000 S 
ATOM      9  O   UNL     1       3.676   2.570  20.228  0.00  0.00    +0.000 OA
ATOM     10  O   UNL     1       1.252   1.968  19.970  0.00  0.00    +0.000 OA
ENDROOT
BRANCH   5  11
ATOM     11  C   UNL     1       5.735   4.271  16.728  0.00  0.00    +0.000 C 
BRANCH  11  12
ATOM     12  C   UNL     1       6.653   5.299  17.332  0.00  0.00    +0.000 A 
ATOM     13  C   UNL     1       7.474   5.170  18.435  0.00  0.00    +0.000 A 
ATOM     14  C   UNL     1       8.074   6.407  18.807  0.00  0.00    +0.000 A 
ATOM     15  C   UNL     1       7.753   7.424  17.931  0.00  0.00    +0.000 A 
ATOM     16  S   UNL     1       6.743   6.877  16.668  0.00  0.00    +0.000 S 
BRANCH  15  17
ATOM     17  C   UNL     1       8.194   8.777  18.049  0.00  0.00    +0.000 C 
ATOM     18  N   UNL     1       8.553   9.872  18.158  0.00  0.00    +0.000 NA
ENDBRANCH  15  17
ENDBRANCH  11  12
ENDBRANCH   5  11
TORSDOF 3
ENDMDL
MODEL 2
REMARK VINA RESULT:      -5.9      2.645      3.662
REMARK  Name = 
REMARK  4 active torsions:
REMARK  status: ('A' for Active; 'I' for Inactive)
REMARK    1  A    between atoms: C_1  and  C_2
REMARK    2  A    between atoms: N_5  and  C_6
REMARK    3  A    between atoms: C_6  and  C_7
REMARK    4  A    between atoms: C_10  and  C_11
REMARK                            x       y       z     vdW  Elec       q    Type
REMARK                         _______ _______ _______ _____ _____    ______ ____
ROOT
ATOM      1  C   UNL     1       1.103   2.559  21.635  0.00  0.00    +0.000 C 
ATOM      2  C   UNL     1       1.539   3.550  20.557  0.00  0.00    +0.000 C 
ATOM      3  C   UNL     1       2.852   4.240  20.935  0.00  0.00    +0.000 C 
ATOM      4  C   UNL     1       3.307   5.369  19.991  0.00  0.00    +0.000 C 
ATOM      5  N   UNL     1       3.962   4.835  18.797  0.00  0.00    +0.000 NA
ATOM      6  C   UNL     1       3.094   4.629  17.632  0.00  0.00    +0.000 C 
ATOM      7  C   UNL     1       1.690   4.102  17.853  0.00  0.00    +0.000 C 
ATOM      8  S   UNL     1       1.595   2.728  18.964  0.00  0.00    +0.000 S 
ATOM      9  O   UNL     1       2.792   1.914  18.862  0.00  0.00    +0.000 OA
ATOM     10  O   UNL     1       0.293   2.124  18.744  0.00  0.00    +0.000 OA
ENDROOT
BRANCH   5  11
ATOM     11  C   UNL     1       5.169   5.590  18.390  0.00  0.00    +0.000 C 
BRANCH  11  12
ATOM     12  C   UNL     1       5.414   5.499  16.908  0.00  0.00    +0.000 A 
ATOM     13  C   UNL     1       5.156   6.448  15.938  0.00  0.00    +0.000 A 
ATOM     14  C   UNL     1       5.368   5.945  14.622  0.00  0.00    +0.000 A 
ATOM     15  C   UNL     1       5.853   4.653  14.633  0.00  0.00    +0.000 A 
ATOM     16  S   UNL     1       6.057   4.065  16.222  0.00  0.00    +0.000 S 
BRANCH  15  17
ATOM     17  C   UNL     1       6.149   3.880  13.469  0.00  0.00    +0.000 C 
ATOM     18  N   UNL     1       6.399   3.261  12.523  0.00  0.00    +0.000 NA
ENDBRANCH  15  17
ENDBRANCH  11  12
ENDBRANCH   5  11
TORSDOF 3
ENDMDL
MODEL 3
REMARK VINA RESULT:      -5.8      4.110      5.609
REMARK  Name = 
REMARK  4 active torsions:
REMARK  status: ('A' for Active; 'I' for Inactive)
REMARK    1  A    between atoms: C_1  and  C_2
REMARK    2  A    between atoms: N_5  and  C_6
REMARK    3  A    between atoms: C_6  and  C_7
REMARK    4  A    between atoms: C_10  and  C_11
REMARK                            x       y       z     vdW  Elec       q    Type
REMARK                         _______ _______ _______ _____ _____    ______ ____
ROOT
ATOM      1  C   UNL     1       7.663   4.733  17.511  0.00  0.00    +0.000 C 
ATOM      2  C   UNL     1       6.213   4.495  17.928  0.00  0.00    +0.000 C 
ATOM      3  C   UNL     1       5.807   5.419  19.078  0.00  0.00    +0.000 C 
ATOM      4  C   UNL     1       4.413   5.163  19.680  0.00  0.00    +0.000 C 
ATOM      5  N   UNL     1       3.360   5.763  18.861  0.00  0.00    +0.000 NA
ATOM      6  C   UNL     1       2.751   4.881  17.857  0.00  0.00    +0.000 C 
ATOM      7  C   UNL     1       3.641   3.910  17.105  0.00  0.00    +0.000 C 
ATOM      8  S   UNL     1       5.141   4.622  16.495  0.00  0.00    +0.000 S 
ATOM      9  O   UNL     1       4.934   6.015  16.146  0.00  0.00    +0.000 OA
ATOM     10  O   UNL     1       5.646   3.697  15.496  0.00  0.00    +0.000 OA
ENDROOT
BRANCH   5  11
ATOM     11  C   UNL     1       2.296   6.427  19.647  0.00  0.00    +0.000 C 
BRANCH  11  12
ATOM     12  C   UNL     1       1.979   7.799  19.118  0.00  0.00    +0.000 A 
ATOM     13  C   UNL     1       2.290   8.332  17.882  0.00  0.00    +0.000 A 
ATOM     14  C   UNL     1       1.971   9.718  17.798  0.00  0.00    +0.000 A 
ATOM     15  C   UNL     1       1.358  10.180  18.945  0.00  0.00    +0.000 A 
ATOM     16  S   UNL     1       1.163   8.941  20.103  0.00  0.00    +0.000 S 
BRANCH  15  17
ATOM     17  C   UNL     1       0.934  11.527  19.162  0.00  0.00    +0.000 C 
ATOM     18  N   UNL     1       0.585  12.618  19.326  0.00  0.00    +0.000 NA
ENDBRANCH  15  17
ENDBRANCH  11  12
ENDBRANCH   5  11
TORSDOF 3
ENDMDL
MODEL 4
REMARK VINA RESULT:      -5.7      1.498      1.937
REMARK  Name = 
REMARK  4 active torsions:
REMARK  status: ('A' for Active; 'I' for Inactive)
REMARK    1  A    between atoms: C_1  and  C_2
REMARK    2  A    between atoms: N_5  and  C_6
REMARK    3  A    between atoms: C_6  and  C_7
REMARK    4  A    between atoms: C_10  and  C_11
REMARK                            x       y       z     vdW  Elec       q    Type
REMARK                         _______ _______ _______ _____ _____    ______ ____
ROOT
ATOM      1  C   UNL     1       1.956   2.121  21.453  0.00  0.00    +0.000 C 
ATOM      2  C   UNL     1       2.698   3.241  20.726  0.00  0.00    +0.000 C 
ATOM      3  C   UNL     1       3.968   2.720  20.051  0.00  0.00    +0.000 C 
ATOM      4  C   UNL     1       4.874   3.791  19.416  0.00  0.00    +0.000 C 
ATOM      5  N   UNL     1       4.376   4.201  18.103  0.00  0.00    +0.000 NA
ATOM      6  C   UNL     1       3.498   5.377  18.093  0.00  0.00    +0.000 C 
ATOM      7  C   UNL     1       2.492   5.545  19.215  0.00  0.00    +0.000 C 
ATOM      8  S   UNL     1       1.580   4.079  19.601  0.00  0.00    +0.000 S 
ATOM      9  O   UNL     1       1.381   3.280  18.406  0.00  0.00    +0.000 OA
ATOM     10  O   UNL     1       0.432   4.513  20.377  0.00  0.00    +0.000 OA
ENDROOT
BRANCH   5  11
ATOM     11  C   UNL     1       5.438   4.367  17.086  0.00  0.00    +0.000 C 
BRANCH  11  12
ATOM     12  C   UNL     1       6.472   5.373  17.512  0.00  0.00    +0.000 A 
ATOM     13  C   UNL     1       7.505   5.209  18.415  0.00  0.00    +0.000 A 
ATOM     14  C   UNL     1       8.182   6.433  18.687  0.00  0.00    +0.000 A 
ATOM     15  C   UNL     1       7.694   7.475  17.926  0.00  0.00    +0.000 A 
ATOM     16  S   UNL     1       6.437   6.970  16.889  0.00  0.00    +0.000 S 
BRANCH  15  17
ATOM     17  C   UNL     1       8.163   8.824  17.988  0.00  0.00    +0.000 C 
ATOM     18  N   UNL     1       8.530   9.920  18.037  0.00  0.00    +0.000 NA
ENDBRANCH  15  17
ENDBRANCH  11  12
ENDBRANCH   5  11
TORSDOF 3
ENDMDL
MODEL 5
REMARK VINA RESULT:      -5.7      3.814      5.541
REMARK  Name = 
REMARK  4 active torsions:
REMARK  status: ('A' for Active; 'I' for Inactive)
REMARK    1  A    between atoms: C_1  and  C_2
REMARK    2  A    between atoms: N_5  and  C_6
REMARK    3  A    between atoms: C_6  and  C_7
REMARK    4  A    between atoms: C_10  and  C_11
REMARK                            x       y       z     vdW  Elec       q    Type
REMARK                         _______ _______ _______ _____ _____    ______ ____
ROOT
ATOM      1  C   UNL     1       1.374   1.839  19.088  0.00  0.00    +0.000 C 
ATOM      2  C   UNL     1       2.296   2.995  18.702  0.00  0.00    +0.000 C 
ATOM      3  C   UNL     1       1.512   4.138  18.054  0.00  0.00    +0.000 C 
ATOM      4  C   UNL     1       2.360   5.292  17.488  0.00  0.00    +0.000 C 
ATOM      5  N   UNL     1       2.780   6.214  18.544  0.00  0.00    +0.000 NA
ATOM      6  C   UNL     1       4.095   5.946  19.139  0.00  0.00    +0.000 C 
ATOM      7  C   UNL     1       4.509   4.507  19.375  0.00  0.00    +0.000 C 
ATOM      8  S   UNL     1       3.259   3.505  20.127  0.00  0.00    +0.000 S 
ATOM      9  O   UNL     1       2.444   4.303  21.023  0.00  0.00    +0.000 OA
ATOM     10  O   UNL     1       3.941   2.325  20.631  0.00  0.00    +0.000 OA
ENDROOT
BRANCH   5  11
ATOM     11  C   UNL     1       2.689   7.641  18.163  0.00  0.00    +0.000 C 
BRANCH  11  12
ATOM     12  C   UNL     1       1.825   8.423  19.115  0.00  0.00    +0.000 A 
ATOM     13  C   UNL     1       1.131   9.594  18.876  0.00  0.00    +0.000 A 
ATOM     14  C   UNL     1       0.556  10.129  20.064  0.00  0.00    +0.000 A 
ATOM     15  C   UNL     1       0.763   9.312  21.156  0.00  0.00    +0.000 A 
ATOM     16  S   UNL     1       1.638   7.907  20.739  0.00  0.00    +0.000 S 
BRANCH  15  17
ATOM     17  C   UNL     1       0.316   9.589  22.484  0.00  0.00    +0.000 C 
ATOM     18  N   UNL     1      -0.041   9.825  23.560  0.00  0.00    +0.000 NA
ENDBRANCH  15  17
ENDBRANCH  11  12
ENDBRANCH   5  11
TORSDOF 3
ENDMDL
MODEL 6
REMARK VINA RESULT:      -5.7      4.210      5.644
REMARK  Name = 
REMARK  4 active torsions:
REMARK  status: ('A' for Active; 'I' for Inactive)
REMARK    1  A    between atoms: C_1  and  C_2
REMARK    2  A    between atoms: N_5  and  C_6
REMARK    3  A    between atoms: C_6  and  C_7
REMARK    4  A    between atoms: C_10  and  C_11
REMARK                            x       y       z     vdW  Elec       q    Type
REMARK                         _______ _______ _______ _____ _____    ______ ____
ROOT
ATOM      1  C   UNL     1       4.447   3.813  16.338  0.00  0.00    +0.000 C 
ATOM      2  C   UNL     1       3.952   4.088  17.757  0.00  0.00    +0.000 C 
ATOM      3  C   UNL     1       4.040   5.577  18.097  0.00  0.00    +0.000 C 
ATOM      4  C   UNL     1       3.708   5.949  19.555  0.00  0.00    +0.000 C 
ATOM      5  N   UNL     1       2.263   6.011  19.774  0.00  0.00    +0.000 NA
ATOM      6  C   UNL     1       1.640   4.778  20.270  0.00  0.00    +0.000 C 
ATOM      7  C   UNL     1       2.126   3.447  19.729  0.00  0.00    +0.000 C 
ATOM      8  S   UNL     1       2.309   3.400  17.970  0.00  0.00    +0.000 S 
ATOM      9  O   UNL     1       1.322   4.254  17.337  0.00  0.00    +0.000 OA
ATOM     10  O   UNL     1       2.381   1.994  17.612  0.00  0.00    +0.000 OA
ENDROOT
BRANCH   5  11
ATOM     11  C   UNL     1       1.834   7.154  20.610  0.00  0.00    +0.000 C 
BRANCH  11  12
ATOM     12  C   UNL     1       1.469   8.354  19.777  0.00  0.00    +0.000 A 
ATOM     13  C   UNL     1       1.832   8.633  18.473  0.00  0.00    +0.000 A 
ATOM     14  C   UNL     1       1.434   9.940  18.072  0.00  0.00    +0.000 A 
ATOM     15  C   UNL     1       0.715  10.588  19.055  0.00  0.00    +0.000 A 
ATOM     16  S   UNL     1       0.518   9.615  20.443  0.00  0.00    +0.000 S 
BRANCH  15  17
ATOM     17  C   UNL     1       0.194  11.915  18.950  0.00  0.00    +0.000 C 
ATOM     18  N   UNL     1      -0.215  12.994  18.867  0.00  0.00    +0.000 NA
ENDBRANCH  15  17
ENDBRANCH  11  12
ENDBRANCH   5  11
TORSDOF 3
ENDMDL
MODEL 7
REMARK VINA RESULT:      -5.6      2.581      4.082
REMARK  Name = 
REMARK  4 active torsions:
REMARK  status: ('A' for Active; 'I' for Inactive)
REMARK    1  A    between atoms: C_1  and  C_2
REMARK    2  A    between atoms: N_5  and  C_6
REMARK    3  A    between atoms: C_6  and  C_7
REMARK    4  A    between atoms: C_10  and  C_11
REMARK                            x       y       z     vdW  Elec       q    Type
REMARK                         _______ _______ _______ _____ _____    ______ ____
ROOT
ATOM      1  C   UNL     1       1.652   1.453  19.154  0.00  0.00    +0.000 C 
ATOM      2  C   UNL     1       2.555   2.632  19.516  0.00  0.00    +0.000 C 
ATOM      3  C   UNL     1       3.853   2.607  18.706  0.00  0.00    +0.000 C 
ATOM      4  C   UNL     1       4.903   3.663  19.096  0.00  0.00    +0.000 C 
ATOM      5  N   UNL     1       4.593   4.966  18.507  0.00  0.00    +0.000 NA
ATOM      6  C   UNL     1       3.811   5.877  19.352  0.00  0.00    +0.000 C 
ATOM      7  C   UNL     1       2.696   5.304  20.206  0.00  0.00    +0.000 C 
ATOM      8  S   UNL     1       1.640   4.167  19.356  0.00  0.00    +0.000 S 
ATOM      9  O   UNL     1       1.522   4.537  17.958  0.00  0.00    +0.000 OA
ATOM     10  O   UNL     1       0.445   4.044  20.171  0.00  0.00    +0.000 OA
ENDROOT
BRANCH   5  11
ATOM     11  C   UNL     1       5.775   5.678  17.973  0.00  0.00    +0.000 C 
BRANCH  11  12
ATOM     12  C   UNL     1       6.172   5.167  16.614  0.00  0.00    +0.000 A 
ATOM     13  C   UNL     1       7.373   5.336  15.954  0.00  0.00    +0.000 A 
ATOM     14  C   UNL     1       7.325   4.850  14.616  0.00  0.00    +0.000 A 
ATOM     15  C   UNL     1       6.114   4.257  14.323  0.00  0.00    +0.000 A 
ATOM     16  S   UNL     1       5.054   4.283  15.660  0.00  0.00    +0.000 S 
BRANCH  15  17
ATOM     17  C   UNL     1       5.764   3.690  13.059  0.00  0.00    +0.000 C 
ATOM     18  N   UNL     1       5.492   3.224  12.035  0.00  0.00    +0.000 NA
ENDBRANCH  15  17
ENDBRANCH  11  12
ENDBRANCH   5  11
TORSDOF 3
ENDMDL
MODEL 8
REMARK VINA RESULT:      -5.6      4.298      5.960
REMARK  Name = 
REMARK  4 active torsions:
REMARK  status: ('A' for Active; 'I' for Inactive)
REMARK    1  A    between atoms: C_1  and  C_2
REMARK    2  A    between atoms: N_5  and  C_6
REMARK    3  A    between atoms: C_6  and  C_7
REMARK    4  A    between atoms: C_10  and  C_11
REMARK                            x       y       z     vdW  Elec       q    Type
REMARK                         _______ _______ _______ _____ _____    ______ ____
ROOT
ATOM      1  C   UNL     1       4.275   2.623  19.610  0.00  0.00    +0.000 C 
ATOM      2  C   UNL     1       4.011   3.770  18.636  0.00  0.00    +0.000 C 
ATOM      3  C   UNL     1       2.713   4.503  18.980  0.00  0.00    +0.000 C 
ATOM      4  C   UNL     1       2.270   5.583  17.976  0.00  0.00    +0.000 C 
ATOM      5  N   UNL     1       3.000   6.834  18.181  0.00  0.00    +0.000 NA
ATOM      6  C   UNL     1       4.209   7.008  17.367  0.00  0.00    +0.000 C 
ATOM      7  C   UNL     1       5.101   5.807  17.119  0.00  0.00    +0.000 C 
ATOM      8  S   UNL     1       5.444   4.846  18.565  0.00  0.00    +0.000 S 
ATOM      9  O   UNL     1       5.490   5.699  19.738  0.00  0.00    +0.000 OA
ATOM     10  O   UNL     1       6.590   4.018  18.233  0.00  0.00    +0.000 OA
ENDROOT
BRANCH   5  11
ATOM     11  C   UNL     1       2.154   8.044  18.076  0.00  0.00    +0.000 C 
BRANCH  11  12
ATOM     12  C   UNL     1       1.647   8.493  19.420  0.00  0.00    +0.000 A 
ATOM     13  C   UNL     1       1.732   7.833  20.631  0.00  0.00    +0.000 A 
ATOM     14  C   UNL     1       0.994   8.493  21.656  0.00  0.00    +0.000 A 
ATOM     15  C   UNL     1       0.435   9.674  21.215  0.00  0.00    +0.000 A 
ATOM     16  S   UNL     1       0.810   9.981  19.578  0.00  0.00    +0.000 S 
BRANCH  15  17
ATOM     17  C   UNL     1      -0.369  10.547  22.009  0.00  0.00    +0.000 C 
ATOM     18  N   UNL     1      -1.026  11.259  22.642  0.00  0.00    +0.000 NA
ENDBRANCH  15  17
ENDBRANCH  11  12
ENDBRANCH   5  11
TORSDOF 3
ENDMDL
MODEL 9
REMARK VINA RESULT:      -5.6      3.571      5.737
REMARK  Name = 
REMARK  4 active torsions:
REMARK  status: ('A' for Active; 'I' for Inactive)
REMARK    1  A    between atoms: C_1  and  C_2
REMARK    2  A    between atoms: N_5  and  C_6
REMARK    3  A    between atoms: C_6  and  C_7
REMARK    4  A    between atoms: C_10  and  C_11
REMARK                            x       y       z     vdW  Elec       q    Type
REMARK                         _______ _______ _______ _____ _____    ______ ____
ROOT
ATOM      1  C   UNL     1       8.273   5.638  18.807  0.00  0.00    +0.000 C 
ATOM      2  C   UNL     1       6.973   4.924  18.439  0.00  0.00    +0.000 C 
ATOM      3  C   UNL     1       5.808   5.411  19.302  0.00  0.00    +0.000 C 
ATOM      4  C   UNL     1       4.480   4.653  19.119  0.00  0.00    +0.000 C 
ATOM      5  N   UNL     1       3.760   5.115  17.933  0.00  0.00    +0.000 NA
ATOM      6  C   UNL     1       4.008   4.358  16.701  0.00  0.00    +0.000 C 
ATOM      7  C   UNL     1       5.414   3.867  16.417  0.00  0.00    +0.000 C 
ATOM      8  S   UNL     1       6.674   5.081  16.677  0.00  0.00    +0.000 S 
ATOM      9  O   UNL     1       6.169   6.406  16.370  0.00  0.00    +0.000 OA
ATOM     10  O   UNL     1       7.856   4.586  15.993  0.00  0.00    +0.000 OA
ENDROOT
BRANCH   5  11
ATOM     11  C   UNL     1       2.302   5.264  18.139  0.00  0.00    +0.000 C 
BRANCH  11  12
ATOM     12  C   UNL     1       1.963   6.547  18.849  0.00  0.00    +0.000 A 
ATOM     13  C   UNL     1       1.954   7.831  18.339  0.00  0.00    +0.000 A 
ATOM     14  C   UNL     1       1.740   8.810  19.351  0.00  0.00    +0.000 A 
ATOM     15  C   UNL     1       1.517   8.239  20.587  0.00  0.00    +0.000 A 
ATOM     16  S   UNL     1       1.557   6.535  20.515  0.00  0.00    +0.000 S 
BRANCH  15  17
ATOM     17  C   UNL     1       1.285   8.965  21.795  0.00  0.00    +0.000 C 
ATOM     18  N   UNL     1       1.099   9.542  22.781  0.00  0.00    +0.000 NA
ENDBRANCH  15  17
ENDBRANCH  11  12
ENDBRANCH   5  11
TORSDOF 3
ENDMDL
