MODEL 1
REMARK VINA RESULT:      -7.8      0.000      0.000
REMARK  Name = 
REMARK  3 active torsions:
REMARK  status: ('A' for Active; 'I' for Inactive)
REMARK    1  A    between atoms: C_1  and  S_2
REMARK    2  A    between atoms: S_2  and  N_5
REMARK    3  A    between atoms: C_8  and  C_9
REMARK                            x       y       z     vdW  Elec       q    Type
REMARK                         _______ _______ _______ _____ _____    ______ ____
ROOT
ATOM      1  C   UNL     1       2.697   7.672  18.175  0.00  0.00    +0.000 C 
ATOM      2  O   UNL     1       3.170   7.937  17.067  0.00  0.00    +0.000 OA
ATOM      3  N   UNL     1       2.151   8.667  18.964  0.00  0.00    +0.000 N 
ATOM      4  C   UNL     1       1.943  10.009  18.401  0.00  0.00    +0.000 C 
ATOM      5  C   UNL     1       0.469  10.418  18.557  0.00  0.00    +0.000 C 
ATOM      6  N   UNL     1       0.026  10.264  19.945  0.00  0.00    +0.000 N 
ATOM      7  C   UNL     1      -0.671  11.245  20.618  0.00  0.00    +0.000 A 
ATOM      8  N   UNL     1      -0.149  11.714  21.730  0.00  0.00    +0.000 NA
ATOM      9  C   UNL     1      -0.800  12.721  22.406  0.00  0.00    +0.000 A 
ATOM     10  C   UNL     1      -1.965  13.253  22.010  0.00  0.00    +0.000 A 
ATOM     11  N   UNL     1      -2.566  12.759  20.870  0.00  0.00    +0.000 N 
ATOM     12  N   UNL     1      -3.751  13.124  20.311  0.00  0.00    +0.000 NA
ATOM     13  C   UNL     1      -3.901  12.283  19.286  0.00  0.00    +0.000 A 
ATOM     14  C   UNL     1      -2.824  11.381  19.157  0.00  0.00    +0.000 A 
ATOM     15  C   UNL     1      -1.955  11.742  20.161  0.00  0.00    +0.000 A 
ATOM     16  C   UNL     1      -2.769  10.326  18.114  0.00  0.00    +0.000 C 
ATOM     17  C   UNL     1      -4.139  10.105  17.458  0.00  0.00    +0.000 C 
ATOM     18  C   UNL     1      -4.824  11.442  17.131  0.00  0.00    +0.000 C 
ATOM     19  C   UNL     1      -5.102  12.264  18.405  0.00  0.00    +0.000 C 
ATOM     20  C   UNL     1       0.300   8.979  20.584  0.00  0.00    +0.000 C 
ATOM     21  C   UNL     1       1.763   8.567  20.379  0.00  0.00    +0.000 C 
ENDROOT
BRANCH   1  25
ATOM     22  N   UNL     1       5.122   4.963  17.956  0.00  0.00    +0.000 NA
ATOM     23  C   UNL     1       5.006   5.772  19.196  0.00  0.00    +0.000 C 
ATOM     24  C   UNL     1       3.573   5.812  19.705  0.00  0.00    +0.000 C 
ATOM     25  C   UNL     1       2.555   6.216  18.636  0.00  0.00    +0.000 C 
ATOM     26  C   UNL     1       2.706   5.277  17.436  0.00  0.00    +0.000 C 
ATOM     27  C   UNL     1       4.136   5.278  16.892  0.00  0.00    +0.000 C 
BRANCH  22  29
ATOM     28  C   UNL     1       7.225   6.399  16.951  0.00  0.00    +0.000 C 
ATOM     29  S   UNL     1       6.728   4.742  17.410  0.00  0.00    +0.000 S 
ATOM     30  O   UNL     1       6.682   3.943  16.204  0.00  0.00    +0.000 OA
ATOM     31  O   UNL     1       7.535   4.337  18.545  0.00  0.00    +0.000 OA
ENDBRANCH  22  29
ENDBRANCH   1  25
TORSDOF 2
ENDMDL
MODEL 2
REMARK VINA RESULT:      -7.5      7.747     11.460
REMARK  Name = 
REMARK  3 active torsions:
REMARK  status: ('A' for Active; 'I' for Inactive)
REMARK    1  A    between atoms: C_1  and  S_2
REMARK    2  A    between atoms: S_2  and  N_5
REMARK    3  A    between atoms: C_8  and  C_9
REMARK                            x       y       z     vdW  Elec       q    Type
REMARK                         _______ _______ _______ _____ _____    ______ ____
ROOT
ATOM      1  C   UNL     1       3.484  14.452  20.551  0.00  0.00    +0.000 C 
ATOM      2  O   UNL     1       3.448  13.942  21.672  0.00  0.00    +0.000 OA
ATOM      3  N   UNL     1       4.572  15.207  20.154  0.00  0.00    +0.000 N 
ATOM      4  C   UNL     1       5.782  15.232  20.988  0.00  0.00    +0.000 C 
ATOM      5  C   UNL     1       7.001  14.805  20.154  0.00  0.00    +0.000 C 
ATOM      6  N   UNL     1       7.094  15.591  18.921  0.00  0.00    +0.000 N 
ATOM      7  C   UNL     1       8.268  16.177  18.497  0.00  0.00    +0.000 A 
ATOM      8  N   UNL     1       8.274  17.480  18.323  0.00  0.00    +0.000 NA
ATOM      9  C   UNL     1       9.441  18.102  17.938  0.00  0.00    +0.000 A 
ATOM     10  C   UNL     1      10.590  17.452  17.705  0.00  0.00    +0.000 A 
ATOM     11  N   UNL     1      10.614  16.078  17.837  0.00  0.00    +0.000 N 
ATOM     12  N   UNL     1      11.650  15.225  17.621  0.00  0.00    +0.000 NA
ATOM     13  C   UNL     1      11.119  14.014  17.804  0.00  0.00    +0.000 A 
ATOM     14  C   UNL     1       9.752  14.064  18.152  0.00  0.00    +0.000 A 
ATOM     15  C   UNL     1       9.465  15.408  18.214  0.00  0.00    +0.000 A 
ATOM     16  C   UNL     1       8.928  12.850  18.378  0.00  0.00    +0.000 C 
ATOM     17  C   UNL     1       9.619  11.588  17.845  0.00  0.00    +0.000 C 
ATOM     18  C   UNL     1      11.107  11.560  18.228  0.00  0.00    +0.000 C 
ATOM     19  C   UNL     1      11.875  12.745  17.610  0.00  0.00    +0.000 C 
ATOM     20  C   UNL     1       5.885  15.679  18.104  0.00  0.00    +0.000 C 
ATOM     21  C   UNL     1       4.673  16.062  18.961  0.00  0.00    +0.000 C 
ENDROOT
BRANCH   1  25
ATOM     22  N   UNL     1       0.118  13.166  21.084  0.00  0.00    +0.000 NA
ATOM     23  C   UNL     1       0.354  14.626  20.953  0.00  0.00    +0.000 C 
ATOM     24  C   UNL     1       1.125  14.956  19.683  0.00  0.00    +0.000 C 
ATOM     25  C   UNL     1       2.402  14.130  19.510  0.00  0.00    +0.000 C 
ATOM     26  C   UNL     1       2.039  12.644  19.587  0.00  0.00    +0.000 C 
ATOM     27  C   UNL     1       1.311  12.305  20.888  0.00  0.00    +0.000 C 
BRANCH  22  29
ATOM     28  C   UNL     1      -2.483  12.524  21.645  0.00  0.00    +0.000 C 
ATOM     29  S   UNL     1      -0.877  12.733  22.406  0.00  0.00    +0.000 S 
ATOM     30  O   UNL     1      -0.953  13.871  23.297  0.00  0.00    +0.000 OA
ATOM     31  O   UNL     1      -0.444  11.435  22.887  0.00  0.00    +0.000 OA
ENDBRANCH  22  29
ENDBRANCH   1  25
TORSDOF 2
ENDMDL
MODEL 3
REMARK VINA RESULT:      -7.5      3.972      9.624
REMARK  Name = 
REMARK  3 active torsions:
REMARK  status: ('A' for Active; 'I' for Inactive)
REMARK    1  A    between atoms: C_1  and  S_2
REMARK    2  A    between atoms: S_2  and  N_5
REMARK    3  A    between atoms: C_8  and  C_9
REMARK                            x       y       z     vdW  Elec       q    Type
REMARK                         _______ _______ _______ _____ _____    ______ ____
ROOT
ATOM      1  C   UNL     1       1.066  10.823  19.434  0.00  0.00    +0.000 C 
ATOM      2  O   UNL     1       0.976  11.636  18.512  0.00  0.00    +0.000 OA
ATOM      3  N   UNL     1       1.051   9.464  19.179  0.00  0.00    +0.000 N 
ATOM      4  C   UNL     1       1.138   8.984  17.793  0.00  0.00    +0.000 C 
ATOM      5  C   UNL     1       2.325   8.016  17.649  0.00  0.00    +0.000 C 
ATOM      6  N   UNL     1       2.261   6.956  18.658  0.00  0.00    +0.000 N 
ATOM      7  C   UNL     1       2.429   5.622  18.350  0.00  0.00    +0.000 A 
ATOM      8  N   UNL     1       1.451   4.797  18.650  0.00  0.00    +0.000 NA
ATOM      9  C   UNL     1       1.569   3.465  18.321  0.00  0.00    +0.000 A 
ATOM     10  C   UNL     1       2.646   2.939  17.720  0.00  0.00    +0.000 A 
ATOM     11  N   UNL     1       3.711   3.765  17.426  0.00  0.00    +0.000 N 
ATOM     12  N   UNL     1       4.903   3.440  16.855  0.00  0.00    +0.000 NA
ATOM     13  C   UNL     1       5.597   4.580  16.880  0.00  0.00    +0.000 A 
ATOM     14  C   UNL     1       4.872   5.650  17.446  0.00  0.00    +0.000 A 
ATOM     15  C   UNL     1       3.643   5.108  17.745  0.00  0.00    +0.000 A 
ATOM     16  C   UNL     1       5.436   7.013  17.615  0.00  0.00    +0.000 C 
ATOM     17  C   UNL     1       6.962   7.020  17.450  0.00  0.00    +0.000 C 
ATOM     18  C   UNL     1       7.397   6.177  16.240  0.00  0.00    +0.000 C 
ATOM     19  C   UNL     1       7.005   4.696  16.409  0.00  0.00    +0.000 C 
ATOM     20  C   UNL     1       2.075   7.378  20.045  0.00  0.00    +0.000 C 
ATOM     21  C   UNL     1       0.917   8.377  20.161  0.00  0.00    +0.000 C 
ENDROOT
BRANCH   1  25
ATOM     22  N   UNL     1      -1.153  12.509  21.779  0.00  0.00    +0.000 NA
ATOM     23  C   UNL     1      -0.996  11.033  21.820  0.00  0.00    +0.000 C 
ATOM     24  C   UNL     1       0.468  10.629  21.919  0.00  0.00    +0.000 C 
ATOM     25  C   UNL     1       1.358  11.293  20.865  0.00  0.00    +0.000 C 
ATOM     26  C   UNL     1       1.178  12.811  20.957  0.00  0.00    +0.000 C 
ATOM     27  C   UNL     1      -0.288  13.218  20.804  0.00  0.00    +0.000 C 
BRANCH  22  29
ATOM     28  C   UNL     1      -3.366  12.674  20.176  0.00  0.00    +0.000 C 
ATOM     29  S   UNL     1      -2.778  13.041  21.826  0.00  0.00    +0.000 S 
ATOM     30  O   UNL     1      -2.770  14.480  21.983  0.00  0.00    +0.000 OA
ATOM     31  O   UNL     1      -3.502  12.193  22.752  0.00  0.00    +0.000 OA
ENDBRANCH  22  29
ENDBRANCH   1  25
TORSDOF 2
ENDMDL
MODEL 4
REMARK VINA RESULT:      -7.5      4.095      9.326
REMARK  Name = 
REMARK  3 active torsions:
REMARK  status: ('A' for Active; 'I' for Inactive)
REMARK    1  A    between atoms: C_1  and  S_2
REMARK    2  A    between atoms: S_2  and  N_5
REMARK    3  A    between atoms: C_8  and  C_9
REMARK                            x       y       z     vdW  Elec       q    Type
REMARK                         _______ _______ _______ _____ _____    ______ ____
ROOT
ATOM      1  C   UNL     1      -0.114  10.099  20.169  0.00  0.00    +0.000 C 
ATOM      2  O   UNL     1      -0.329  10.060  21.383  0.00  0.00    +0.000 OA
ATOM      3  N   UNL     1       1.042   9.558  19.640  0.00  0.00    +0.000 N 
ATOM      4  C   UNL     1       1.924   8.749  20.495  0.00  0.00    +0.000 C 
ATOM      5  C   UNL     1       2.140   7.365  19.862  0.00  0.00    +0.000 C 
ATOM      6  N   UNL     1       2.586   7.488  18.472  0.00  0.00    +0.000 N 
ATOM      7  C   UNL     1       3.654   6.779  17.966  0.00  0.00    +0.000 A 
ATOM      8  N   UNL     1       4.655   7.461  17.456  0.00  0.00    +0.000 NA
ATOM      9  C   UNL     1       5.756   6.785  16.977  0.00  0.00    +0.000 A 
ATOM     10  C   UNL     1       5.868   5.449  16.978  0.00  0.00    +0.000 A 
ATOM     11  N   UNL     1       4.820   4.696  17.467  0.00  0.00    +0.000 N 
ATOM     12  N   UNL     1       4.708   3.342  17.532  0.00  0.00    +0.000 NA
ATOM     13  C   UNL     1       3.476   3.139  18.002  0.00  0.00    +0.000 A 
ATOM     14  C   UNL     1       2.783   4.341  18.258  0.00  0.00    +0.000 A 
ATOM     15  C   UNL     1       3.691   5.329  17.951  0.00  0.00    +0.000 A 
ATOM     16  C   UNL     1       1.386   4.383  18.756  0.00  0.00    +0.000 C 
ATOM     17  C   UNL     1       0.690   3.023  18.606  0.00  0.00    +0.000 C 
ATOM     18  C   UNL     1       1.607   1.873  19.054  0.00  0.00    +0.000 C 
ATOM     19  C   UNL     1       2.876   1.787  18.184  0.00  0.00    +0.000 C 
ATOM     20  C   UNL     1       1.799   8.362  17.604  0.00  0.00    +0.000 C 
ATOM     21  C   UNL     1       1.556   9.721  18.271  0.00  0.00    +0.000 C 
ENDROOT
BRANCH   1  25
ATOM     22  N   UNL     1      -1.163  13.521  19.496  0.00  0.00    +0.000 NA
ATOM     23  C   UNL     1      -0.150  12.861  18.635  0.00  0.00    +0.000 C 
ATOM     24  C   UNL     1      -0.651  11.524  18.107  0.00  0.00    +0.000 C 
ATOM     25  C   UNL     1      -1.193  10.600  19.200  0.00  0.00    +0.000 C 
ATOM     26  C   UNL     1      -2.279  11.348  19.979  0.00  0.00    +0.000 C 
ATOM     27  C   UNL     1      -1.759  12.667  20.553  0.00  0.00    +0.000 C 
BRANCH  22  29
ATOM     28  C   UNL     1      -2.246  15.708  20.737  0.00  0.00    +0.000 C 
ATOM     29  S   UNL     1      -0.734  15.099  19.998  0.00  0.00    +0.000 S 
ATOM     30  O   UNL     1      -0.472  15.887  18.813  0.00  0.00    +0.000 OA
ATOM     31  O   UNL     1       0.256  14.981  21.051  0.00  0.00    +0.000 OA
ENDBRANCH  22  29
ENDBRANCH   1  25
TORSDOF 2
ENDMDL
MODEL 5
REMARK VINA RESULT:      -7.3      4.399      9.641
REMARK  Name = 
REMARK  3 active torsions:
REMARK  status: ('A' for Active; 'I' for Inactive)
REMARK    1  A    between atoms: C_1  and  S_2
REMARK    2  A    between atoms: S_2  and  N_5
REMARK    3  A    between atoms: C_8  and  C_9
REMARK                            x       y       z     vdW  Elec       q    Type
REMARK                         _______ _______ _______ _____ _____    ______ ____
ROOT
ATOM      1  C   UNL     1       1.074  11.116  19.255  0.00  0.00    +0.000 C 
ATOM      2  O   UNL     1       0.980  11.850  18.269  0.00  0.00    +0.000 OA
ATOM      3  N   UNL     1       1.042   9.742  19.116  0.00  0.00    +0.000 N 
ATOM      4  C   UNL     1       1.104   9.145  17.774  0.00  0.00    +0.000 C 
ATOM      5  C   UNL     1       2.278   8.155  17.695  0.00  0.00    +0.000 C 
ATOM      6  N   UNL     1       2.218   7.184  18.791  0.00  0.00    +0.000 N 
ATOM      7  C   UNL     1       2.368   5.828  18.594  0.00  0.00    +0.000 A 
ATOM      8  N   UNL     1       1.385   5.042  18.976  0.00  0.00    +0.000 NA
ATOM      9  C   UNL     1       1.485   3.686  18.758  0.00  0.00    +0.000 A 
ATOM     10  C   UNL     1       2.548   3.098  18.190  0.00  0.00    +0.000 A 
ATOM     11  N   UNL     1       3.617   3.885  17.812  0.00  0.00    +0.000 N 
ATOM     12  N   UNL     1       4.797   3.500  17.255  0.00  0.00    +0.000 NA
ATOM     13  C   UNL     1       5.503   4.629  17.174  0.00  0.00    +0.000 A 
ATOM     14  C   UNL     1       4.798   5.751  17.658  0.00  0.00    +0.000 A 
ATOM     15  C   UNL     1       3.567   5.251  18.018  0.00  0.00    +0.000 A 
ATOM     16  C   UNL     1       5.378   7.116  17.704  0.00  0.00    +0.000 C 
ATOM     17  C   UNL     1       6.901   7.092  17.519  0.00  0.00    +0.000 C 
ATOM     18  C   UNL     1       7.310   6.146  16.378  0.00  0.00    +0.000 C 
ATOM     19  C   UNL     1       6.906   4.689  16.676  0.00  0.00    +0.000 C 
ATOM     20  C   UNL     1       2.056   7.723  20.140  0.00  0.00    +0.000 C 
ATOM     21  C   UNL     1       0.911   8.742  20.187  0.00  0.00    +0.000 C 
ENDROOT
BRANCH   1  25
ATOM     22  N   UNL     1       0.091  14.333  20.652  0.00  0.00    +0.000 NA
ATOM     23  C   UNL     1      -0.713  13.116  20.926  0.00  0.00    +0.000 C 
ATOM     24  C   UNL     1       0.147  11.990  21.480  0.00  0.00    +0.000 C 
ATOM     25  C   UNL     1       1.393  11.701  20.638  0.00  0.00    +0.000 C 
ATOM     26  C   UNL     1       2.188  13.000  20.478  0.00  0.00    +0.000 C 
ATOM     27  C   UNL     1       1.335  14.116  19.872  0.00  0.00    +0.000 C 
BRANCH  22  29
ATOM     28  C   UNL     1      -0.160  17.006  21.186  0.00  0.00    +0.000 C 
ATOM     29  S   UNL     1      -0.833  15.691  20.175  0.00  0.00    +0.000 S 
ATOM     30  O   UNL     1      -2.201  15.467  20.593  0.00  0.00    +0.000 OA
ATOM     31  O   UNL     1      -0.513  15.988  18.793  0.00  0.00    +0.000 OA
ENDBRANCH  22  29
ENDBRANCH   1  25
TORSDOF 2
ENDMDL
MODEL 6
REMARK VINA RESULT:      -7.1      7.517     10.922
REMARK  Name = 
REMARK  3 active torsions:
REMARK  status: ('A' for Active; 'I' for Inactive)
REMARK    1  A    between atoms: C_1  and  S_2
REMARK    2  A    between atoms: S_2  and  N_5
REMARK    3  A    between atoms: C_8  and  C_9
REMARK                            x       y       z     vdW  Elec       q    Type
REMARK                         _______ _______ _______ _____ _____    ______ ____
ROOT
ATOM      1  C   UNL     1       3.032  15.272  20.423  0.00  0.00    +0.000 C 
ATOM      2  O   UNL     1       2.919  14.672  21.494  0.00  0.00    +0.000 OA
ATOM      3  N   UNL     1       4.198  15.946  20.114  0.00  0.00    +0.000 N 
ATOM      4  C   UNL     1       5.383  15.778  20.966  0.00  0.00    +0.000 C 
ATOM      5  C   UNL     1       6.576  15.305  20.117  0.00  0.00    +0.000 C 
ATOM      6  N   UNL     1       6.776  16.184  18.962  0.00  0.00    +0.000 N 
ATOM      7  C   UNL     1       8.012  16.684  18.612  0.00  0.00    +0.000 A 
ATOM      8  N   UNL     1       8.149  17.991  18.555  0.00  0.00    +0.000 NA
ATOM      9  C   UNL     1       9.381  18.525  18.247  0.00  0.00    +0.000 A 
ATOM     10  C   UNL     1      10.467  17.787  17.975  0.00  0.00    +0.000 A 
ATOM     11  N   UNL     1      10.353  16.411  17.984  0.00  0.00    +0.000 N 
ATOM     12  N   UNL     1      11.306  15.481  17.708  0.00  0.00    +0.000 NA
ATOM     13  C   UNL     1      10.655  14.318  17.774  0.00  0.00    +0.000 A 
ATOM     14  C   UNL     1       9.291  14.473  18.102  0.00  0.00    +0.000 A 
ATOM     15  C   UNL     1       9.135  15.828  18.280  0.00  0.00    +0.000 A 
ATOM     16  C   UNL     1       8.346  13.332  18.205  0.00  0.00    +0.000 C 
ATOM     17  C   UNL     1       8.923  12.059  17.572  0.00  0.00    +0.000 C 
ATOM     18  C   UNL     1      10.392  11.850  17.976  0.00  0.00    +0.000 C 
ATOM     19  C   UNL     1      11.287  13.002  17.479  0.00  0.00    +0.000 C 
ATOM     20  C   UNL     1       5.603  16.463  18.136  0.00  0.00    +0.000 C 
ATOM     21  C   UNL     1       4.413  16.889  19.004  0.00  0.00    +0.000 C 
ENDROOT
BRANCH   1  25
ATOM     22  N   UNL     1       0.967  12.395  19.573  0.00  0.00    +0.000 NA
ATOM     23  C   UNL     1       0.463  13.434  20.506  0.00  0.00    +0.000 C 
ATOM     24  C   UNL     1       0.563  14.826  19.898  0.00  0.00    +0.000 C 
ATOM     25  C   UNL     1       1.950  15.152  19.341  0.00  0.00    +0.000 C 
ATOM     26  C   UNL     1       2.343  14.063  18.338  0.00  0.00    +0.000 C 
ATOM     27  C   UNL     1       2.293  12.669  18.965  0.00  0.00    +0.000 C 
BRANCH  22  29
ATOM     28  C   UNL     1      -1.024  10.555  19.953  0.00  0.00    +0.000 C 
ATOM     29  S   UNL     1       0.742  10.791  20.123  0.00  0.00    +0.000 S 
ATOM     30  O   UNL     1       1.060  10.756  21.535  0.00  0.00    +0.000 OA
ATOM     31  O   UNL     1       1.399   9.900  19.187  0.00  0.00    +0.000 OA
ENDBRANCH  22  29
ENDBRANCH   1  25
TORSDOF 2
ENDMDL
MODEL 7
REMARK VINA RESULT:      -7.1      7.736     11.272
REMARK  Name = 
REMARK  3 active torsions:
REMARK  status: ('A' for Active; 'I' for Inactive)
REMARK    1  A    between atoms: C_1  and  S_2
REMARK    2  A    between atoms: S_2  and  N_5
REMARK    3  A    between atoms: C_8  and  C_9
REMARK                            x       y       z     vdW  Elec       q    Type
REMARK                         _______ _______ _______ _____ _____    ______ ____
ROOT
ATOM      1  C   UNL     1       3.575  15.466  20.312  0.00  0.00    +0.000 C 
ATOM      2  O   UNL     1       3.286  14.876  21.356  0.00  0.00    +0.000 OA
ATOM      3  N   UNL     1       4.840  15.991  20.126  0.00  0.00    +0.000 N 
ATOM      4  C   UNL     1       5.908  15.668  21.083  0.00  0.00    +0.000 C 
ATOM      5  C   UNL     1       7.108  15.057  20.340  0.00  0.00    +0.000 C 
ATOM      6  N   UNL     1       7.525  15.912  19.226  0.00  0.00    +0.000 N 
ATOM      7  C   UNL     1       8.841  16.256  19.002  0.00  0.00    +0.000 A 
ATOM      8  N   UNL     1       9.145  17.535  18.985  0.00  0.00    +0.000 NA
ATOM      9  C   UNL     1      10.457  17.914  18.804  0.00  0.00    +0.000 A 
ATOM     10  C   UNL     1      11.463  17.047  18.620  0.00  0.00    +0.000 A 
ATOM     11  N   UNL     1      11.179  15.697  18.591  0.00  0.00    +0.000 N 
ATOM     12  N   UNL     1      12.031  14.656  18.388  0.00  0.00    +0.000 NA
ATOM     13  C   UNL     1      11.237  13.584  18.369  0.00  0.00    +0.000 A 
ATOM     14  C   UNL     1       9.878  13.906  18.571  0.00  0.00    +0.000 A 
ATOM     15  C   UNL     1       9.876  15.269  18.760  0.00  0.00    +0.000 A 
ATOM     16  C   UNL     1       8.794  12.892  18.563  0.00  0.00    +0.000 C 
ATOM     17  C   UNL     1       9.266  11.561  17.961  0.00  0.00    +0.000 C 
ATOM     18  C   UNL     1      10.652  11.166  18.497  0.00  0.00    +0.000 C 
ATOM     19  C   UNL     1      11.727  12.201  18.109  0.00  0.00    +0.000 C 
ATOM     20  C   UNL     1       6.480  16.343  18.300  0.00  0.00    +0.000 C 
ATOM     21  C   UNL     1       5.274  16.908  19.061  0.00  0.00    +0.000 C 
ENDROOT
BRANCH   1  25
ATOM     22  N   UNL     1       1.094  12.977  19.355  0.00  0.00    +0.000 NA
ATOM     23  C   UNL     1       0.709  14.138  20.197  0.00  0.00    +0.000 C 
ATOM     24  C   UNL     1       1.125  15.455  19.557  0.00  0.00    +0.000 C 
ATOM     25  C   UNL     1       2.595  15.491  19.131  0.00  0.00    +0.000 C 
ATOM     26  C   UNL     1       2.867  14.299  18.210  0.00  0.00    +0.000 C 
ATOM     27  C   UNL     1       2.498  12.972  18.875  0.00  0.00    +0.000 C 
BRANCH  22  29
ATOM     28  C   UNL     1       1.254  10.303  18.794  0.00  0.00    +0.000 C 
ATOM     29  S   UNL     1       0.521  11.472  19.932  0.00  0.00    +0.000 S 
ATOM     30  O   UNL     1      -0.913  11.439  19.740  0.00  0.00    +0.000 OA
ATOM     31  O   UNL     1       1.105  11.242  21.239  0.00  0.00    +0.000 OA
ENDBRANCH  22  29
ENDBRANCH   1  25
TORSDOF 2
ENDMDL
MODEL 8
REMARK VINA RESULT:      -7.0      7.425     10.799
REMARK  Name = 
REMARK  3 active torsions:
REMARK  status: ('A' for Active; 'I' for Inactive)
REMARK    1  A    between atoms: C_1  and  S_2
REMARK    2  A    between atoms: S_2  and  N_5
REMARK    3  A    between atoms: C_8  and  C_9
REMARK                            x       y       z     vdW  Elec       q    Type
REMARK                         _______ _______ _______ _____ _____    ______ ____
ROOT
ATOM      1  C   UNL     1       3.069  14.593  20.290  0.00  0.00    +0.000 C 
ATOM      2  O   UNL     1       2.837  13.793  21.198  0.00  0.00    +0.000 OA
ATOM      3  N   UNL     1       4.238  15.330  20.280  0.00  0.00    +0.000 N 
ATOM      4  C   UNL     1       5.305  15.013  21.241  0.00  0.00    +0.000 C 
ATOM      5  C   UNL     1       6.617  14.732  20.490  0.00  0.00    +0.000 C 
ATOM      6  N   UNL     1       6.935  15.822  19.564  0.00  0.00    +0.000 N 
ATOM      7  C   UNL     1       8.186  16.398  19.492  0.00  0.00    +0.000 A 
ATOM      8  N   UNL     1       8.278  17.691  19.707  0.00  0.00    +0.000 NA
ATOM      9  C   UNL     1       9.517  18.292  19.682  0.00  0.00    +0.000 A 
ATOM     10  C   UNL     1      10.658  17.635  19.426  0.00  0.00    +0.000 A 
ATOM     11  N   UNL     1      10.599  16.283  19.154  0.00  0.00    +0.000 N 
ATOM     12  N   UNL     1      11.616  15.437  18.839  0.00  0.00    +0.000 NA
ATOM     13  C   UNL     1      11.008  14.276  18.589  0.00  0.00    +0.000 A 
ATOM     14  C   UNL     1       9.608  14.346  18.748  0.00  0.00    +0.000 A 
ATOM     15  C   UNL     1       9.376  15.638  19.160  0.00  0.00    +0.000 A 
ATOM     16  C   UNL     1       8.704  13.195  18.498  0.00  0.00    +0.000 C 
ATOM     17  C   UNL     1       9.411  12.078  17.718  0.00  0.00    +0.000 C 
ATOM     18  C   UNL     1      10.820  11.813  18.273  0.00  0.00    +0.000 C 
ATOM     19  C   UNL     1      11.727  13.051  18.137  0.00  0.00    +0.000 C 
ATOM     20  C   UNL     1       5.872  16.243  18.654  0.00  0.00    +0.000 C 
ATOM     21  C   UNL     1       4.561  16.474  19.414  0.00  0.00    +0.000 C 
ENDROOT
BRANCH   1  25
ATOM     22  N   UNL     1       0.884  12.027  18.908  0.00  0.00    +0.000 NA
ATOM     23  C   UNL     1       0.352  13.039  19.856  0.00  0.00    +0.000 C 
ATOM     24  C   UNL     1       0.669  14.455  19.398  0.00  0.00    +0.000 C 
ATOM     25  C   UNL     1       2.147  14.673  19.065  0.00  0.00    +0.000 C 
ATOM     26  C   UNL     1       2.574  13.631  18.028  0.00  0.00    +0.000 C 
ATOM     27  C   UNL     1       2.303  12.205  18.512  0.00  0.00    +0.000 C 
BRANCH  22  29
ATOM     28  C   UNL     1       0.709  10.317  21.038  0.00  0.00    +0.000 C 
ATOM     29  S   UNL     1       0.431  10.419  19.273  0.00  0.00    +0.000 S 
ATOM     30  O   UNL     1       1.374   9.533  18.624  0.00  0.00    +0.000 OA
ATOM     31  O   UNL     1      -0.995  10.291  19.042  0.00  0.00    +0.000 OA
ENDBRANCH  22  29
ENDBRANCH   1  25
TORSDOF 2
ENDMDL
MODEL 9
REMARK VINA RESULT:      -6.9      7.856     11.420
REMARK  Name = 
REMARK  3 active torsions:
REMARK  status: ('A' for Active; 'I' for Inactive)
REMARK    1  A    between atoms: C_1  and  S_2
REMARK    2  A    between atoms: S_2  and  N_5
REMARK    3  A    between atoms: C_8  and  C_9
REMARK                            x       y       z     vdW  Elec       q    Type
REMARK                         _______ _______ _______ _____ _____    ______ ____
ROOT
ATOM      1  C   UNL     1       3.692  15.434  21.565  0.00  0.00    +0.000 C 
ATOM      2  O   UNL     1       3.567  14.683  22.534  0.00  0.00    +0.000 OA
ATOM      3  N   UNL     1       4.920  15.991  21.259  0.00  0.00    +0.000 N 
ATOM      4  C   UNL     1       6.124  15.527  21.963  0.00  0.00    +0.000 C 
ATOM      5  C   UNL     1       7.174  15.051  20.945  0.00  0.00    +0.000 C 
ATOM      6  N   UNL     1       7.420  16.076  19.928  0.00  0.00    +0.000 N 
ATOM      7  C   UNL     1       8.688  16.462  19.548  0.00  0.00    +0.000 A 
ATOM      8  N   UNL     1       9.009  17.729  19.685  0.00  0.00    +0.000 NA
ATOM      9  C   UNL     1      10.281  18.141  19.353  0.00  0.00    +0.000 A 
ATOM     10  C   UNL     1      11.227  17.322  18.871  0.00  0.00    +0.000 A 
ATOM     11  N   UNL     1      10.916  15.991  18.675  0.00  0.00    +0.000 N 
ATOM     12  N   UNL     1      11.703  15.003  18.171  0.00  0.00    +0.000 NA
ATOM     13  C   UNL     1      10.896  13.942  18.113  0.00  0.00    +0.000 A 
ATOM     14  C   UNL     1       9.595  14.218  18.584  0.00  0.00    +0.000 A 
ATOM     15  C   UNL     1       9.650  15.533  18.986  0.00  0.00    +0.000 A 
ATOM     16  C   UNL     1       8.504  13.211  18.594  0.00  0.00    +0.000 C 
ATOM     17  C   UNL     1       8.846  11.996  17.719  0.00  0.00    +0.000 C 
ATOM     18  C   UNL     1      10.293  11.531  17.950  0.00  0.00    +0.000 C 
ATOM     19  C   UNL     1      11.310  12.622  17.559  0.00  0.00    +0.000 C 
ATOM     20  C   UNL     1       6.245  16.642  19.267  0.00  0.00    +0.000 C 
ATOM     21  C   UNL     1       5.192  17.069  20.296  0.00  0.00    +0.000 C 
ENDROOT
BRANCH   1  25
ATOM     22  N   UNL     1       0.795  13.306  20.975  0.00  0.00    +0.000 NA
ATOM     23  C   UNL     1       0.709  14.452  21.915  0.00  0.00    +0.000 C 
ATOM     24  C   UNL     1       1.166  15.748  21.261  0.00  0.00    +0.000 C 
ATOM     25  C   UNL     1       2.533  15.640  20.580  0.00  0.00    +0.000 C 
ATOM     26  C   UNL     1       2.492  14.481  19.581  0.00  0.00    +0.000 C 
ATOM     27  C   UNL     1       2.083  13.168  20.251  0.00  0.00    +0.000 C 
BRANCH  22  29
ATOM     28  C   UNL     1      -1.125  11.442  20.401  0.00  0.00    +0.000 C 
ATOM     29  S   UNL     1       0.151  11.846  21.589  0.00  0.00    +0.000 S 
ATOM     30  O   UNL     1      -0.496  12.141  22.850  0.00  0.00    +0.000 OA
ATOM     31  O   UNL     1       1.179  10.828  21.497  0.00  0.00    +0.000 OA
ENDBRANCH  22  29
ENDBRANCH   1  25
TORSDOF 2
ENDMDL
