MODEL 1
REMARK VINA RESULT:      -8.8      0.000      0.000
REMARK  Name = 
REMARK  9 active torsions:
REMARK  status: ('A' for Active; 'I' for Inactive)
REMARK    1  A    between atoms: C_1  and  C_2
REMARK    2  A    between atoms: C_2  and  C_3
REMARK    3  A    between atoms: C_2  and  C_17
REMARK    4  A    between atoms: C_3  and  N_4
REMARK    5  A    between atoms: C_9  and  C_10
REMARK    6  A    between atoms: C_10  and  C_11
REMARK    7  A    between atoms: C_21  and  C_22
REMARK    8  A    between atoms: C_22  and  O_23
REMARK    9  A    between atoms: C_22  and  C_24
REMARK                            x       y       z     vdW  Elec       q    Type
REMARK                         _______ _______ _______ _____ _____    ______ ____
ROOT
ATOM      1  C   UNL     1       1.611   8.155  19.872  0.00  0.00    +0.000 A 
ATOM      2  C   UNL     1       1.374   7.926  21.231  0.00  0.00    +0.000 A 
ATOM      3  C   UNL     1       0.730   8.886  22.009  0.00  0.00    +0.000 A 
ATOM      4  C   UNL     1       0.296  10.091  21.433  0.00  0.00    +0.000 A 
ATOM      5  C   UNL     1       0.498  10.346  20.069  0.00  0.00    +0.000 A 
ATOM      6  C   UNL     1       1.188   9.375  19.321  0.00  0.00    +0.000 A 
ENDROOT
BRANCH   1   8
ATOM      7  C   UNL     1       2.951   7.738  17.765  0.00  0.00    +0.000 C 
ATOM      8  C   UNL     1       2.225   7.103  18.960  0.00  0.00    +0.000 C 
BRANCH   8   9
ATOM      9  C   UNL     1       3.188   6.136  19.715  0.00  0.00    +0.000 C 
BRANCH   9  10
ATOM     10  N   UNL     1       2.738   4.735  19.825  0.00  0.00    +0.000 NA
ATOM     11  C   UNL     1       1.295   4.576  19.644  0.00  0.00    +0.000 C 
ATOM     12  C   UNL     1       0.835   3.152  19.957  0.00  0.00    +0.000 C 
ATOM     13  C   UNL     1       1.593   2.148  19.106  0.00  0.00    +0.000 C 
ATOM     14  C   UNL     1       3.093   2.338  19.307  0.00  0.00    +0.000 C 
ATOM     15  C   UNL     1       3.568   3.785  19.038  0.00  0.00    +0.000 C 
BRANCH  15  16
ATOM     16  C   UNL     1       3.726   4.124  17.520  0.00  0.00    +0.000 C 
BRANCH  16  17
ATOM     17  C   UNL     1       5.165   4.012  16.932  0.00  0.00    +0.000 C 
ATOM     18  C   UNL     1       5.311   4.770  15.591  0.00  0.00    +0.000 C 
ATOM     19  C   UNL     1       5.458   6.288  15.729  0.00  0.00    +0.000 C 
ATOM     20  C   UNL     1       6.535   6.685  16.733  0.00  0.00    +0.000 C 
ATOM     21  C   UNL     1       6.340   5.979  18.070  0.00  0.00    +0.000 C 
ATOM     22  C   UNL     1       6.284   4.464  17.889  0.00  0.00    +0.000 C 
ENDBRANCH  16  17
ENDBRANCH  15  16
ENDBRANCH   9  10
ENDBRANCH   8   9
ENDBRANCH   1   8
BRANCH   5  23
ATOM     23  C   UNL     1      -0.097  11.547  19.344  0.00  0.00    +0.000 C 
BRANCH  23  24
ATOM     24  C   UNL     1      -1.616  11.620  19.233  0.00  0.00    +0.000 A 
ATOM     25  C   UNL     1      -2.362  12.452  20.103  0.00  0.00    +0.000 A 
ATOM     26 CL   UNL     1      -1.645  13.371  21.385  0.00  0.00    +0.000 Cl
ATOM     27  C   UNL     1      -3.748  12.618  19.961  0.00  0.00    +0.000 A 
ATOM     28  C   UNL     1      -4.434  11.976  18.941  0.00  0.00    +0.000 A 
ATOM     29  C   UNL     1      -3.736  11.135  18.084  0.00  0.00    +0.000 A 
ATOM     30  C   UNL     1      -2.352  10.940  18.238  0.00  0.00    +0.000 A 
ATOM     31 CL   UNL     1      -1.635   9.828  17.120  0.00  0.00    +0.000 Cl
ENDBRANCH  23  24
BRANCH  23  32
ATOM     32  O   UNL     1       0.551  11.738  18.081  0.00  0.00    +0.000 OA
ATOM     33  H   UNL     1       1.461  12.024  18.267  0.00  0.00    +0.000 HD
ENDBRANCH  23  32
ENDBRANCH   5  23
TORSDOF 8
ENDMDL
MODEL 2
REMARK VINA RESULT:      -8.6      0.896      3.294
REMARK  Name = 
REMARK  9 active torsions:
REMARK  status: ('A' for Active; 'I' for Inactive)
REMARK    1  A    between atoms: C_1  and  C_2
REMARK    2  A    between atoms: C_2  and  C_3
REMARK    3  A    between atoms: C_2  and  C_17
REMARK    4  A    between atoms: C_3  and  N_4
REMARK    5  A    between atoms: C_9  and  C_10
REMARK    6  A    between atoms: C_10  and  C_11
REMARK    7  A    between atoms: C_21  and  C_22
REMARK    8  A    between atoms: C_22  and  O_23
REMARK    9  A    between atoms: C_22  and  C_24
REMARK                            x       y       z     vdW  Elec       q    Type
REMARK                         _______ _______ _______ _____ _____    ______ ____
ROOT
ATOM      1  C   UNL     1       1.779   8.110  19.443  0.00  0.00    +0.000 A 
ATOM      2  C   UNL     1       1.509   7.654  20.737  0.00  0.00    +0.000 A 
ATOM      3  C   UNL     1       0.839   8.468  21.648  0.00  0.00    +0.000 A 
ATOM      4  C   UNL     1       0.411   9.752  21.273  0.00  0.00    +0.000 A 
ATOM      5  C   UNL     1       0.645  10.234  19.977  0.00  0.00    +0.000 A 
ATOM      6  C   UNL     1       1.361   9.405  19.095  0.00  0.00    +0.000 A 
ENDROOT
BRANCH   1   8
ATOM      7  C   UNL     1       2.782   8.026  17.120  0.00  0.00    +0.000 C 
ATOM      8  C   UNL     1       2.424   7.230  18.382  0.00  0.00    +0.000 C 
BRANCH   8   9
ATOM      9  C   UNL     1       3.681   6.472  18.909  0.00  0.00    +0.000 C 
BRANCH   9  10
ATOM     10  N   UNL     1       4.552   5.875  17.880  0.00  0.00    +0.000 NA
ATOM     11  C   UNL     1       5.938   6.339  17.956  0.00  0.00    +0.000 C 
ATOM     12  C   UNL     1       6.766   5.858  16.765  0.00  0.00    +0.000 C 
ATOM     13  C   UNL     1       6.717   4.344  16.657  0.00  0.00    +0.000 C 
ATOM     14  C   UNL     1       5.264   3.885  16.585  0.00  0.00    +0.000 C 
ATOM     15  C   UNL     1       4.401   4.400  17.761  0.00  0.00    +0.000 C 
BRANCH  15  16
ATOM     16  C   UNL     1       4.593   3.593  19.086  0.00  0.00    +0.000 C 
BRANCH  16  17
ATOM     17  C   UNL     1       3.484   2.553  19.429  0.00  0.00    +0.000 C 
ATOM     18  C   UNL     1       2.976   2.698  20.884  0.00  0.00    +0.000 C 
ATOM     19  C   UNL     1       1.997   3.854  21.106  0.00  0.00    +0.000 C 
ATOM     20  C   UNL     1       0.855   3.857  20.095  0.00  0.00    +0.000 C 
ATOM     21  C   UNL     1       1.374   3.780  18.664  0.00  0.00    +0.000 C 
ATOM     22  C   UNL     1       2.278   2.564  18.473  0.00  0.00    +0.000 C 
ENDBRANCH  16  17
ENDBRANCH  15  16
ENDBRANCH   9  10
ENDBRANCH   8   9
ENDBRANCH   1   8
BRANCH   5  23
ATOM     23  C   UNL     1       0.061  11.539  19.451  0.00  0.00    +0.000 C 
BRANCH  23  24
ATOM     24  C   UNL     1      -1.459  11.644  19.362  0.00  0.00    +0.000 A 
ATOM     25  C   UNL     1      -2.176  12.466  20.263  0.00  0.00    +0.000 A 
ATOM     26 CL   UNL     1      -1.426  13.337  21.559  0.00  0.00    +0.000 Cl
ATOM     27  C   UNL     1      -3.561  12.662  20.144  0.00  0.00    +0.000 A 
ATOM     28  C   UNL     1      -4.272  12.060  19.117  0.00  0.00    +0.000 A 
ATOM     29  C   UNL     1      -3.602  11.229  18.229  0.00  0.00    +0.000 A 
ATOM     30  C   UNL     1      -2.220  11.004  18.360  0.00  0.00    +0.000 A 
ATOM     31 CL   UNL     1      -1.540   9.908  17.204  0.00  0.00    +0.000 Cl
ENDBRANCH  23  24
BRANCH  23  32
ATOM     32  O   UNL     1       0.705  11.916  18.228  0.00  0.00    +0.000 OA
ATOM     33  H   UNL     1       0.617  11.166  17.616  0.00  0.00    +0.000 HD
ENDBRANCH  23  32
ENDBRANCH   5  23
TORSDOF 8
ENDMDL
MODEL 3
REMARK VINA RESULT:      -8.6      0.189      1.633
REMARK  Name = 
REMARK  9 active torsions:
REMARK  status: ('A' for Active; 'I' for Inactive)
REMARK    1  A    between atoms: C_1  and  C_2
REMARK    2  A    between atoms: C_2  and  C_3
REMARK    3  A    between atoms: C_2  and  C_17
REMARK    4  A    between atoms: C_3  and  N_4
REMARK    5  A    between atoms: C_9  and  C_10
REMARK    6  A    between atoms: C_10  and  C_11
REMARK    7  A    between atoms: C_21  and  C_22
REMARK    8  A    between atoms: C_22  and  O_23
REMARK    9  A    between atoms: C_22  and  C_24
REMARK                            x       y       z     vdW  Elec       q    Type
REMARK                         _______ _______ _______ _____ _____    ______ ____
ROOT
ATOM      1  C   UNL     1       1.528   8.222  19.873  0.00  0.00    +0.000 A 
ATOM      2  C   UNL     1       1.210   7.970  21.211  0.00  0.00    +0.000 A 
ATOM      3  C   UNL     1       0.555   8.932  21.976  0.00  0.00    +0.000 A 
ATOM      4  C   UNL     1       0.190  10.163  21.408  0.00  0.00    +0.000 A 
ATOM      5  C   UNL     1       0.473  10.443  20.063  0.00  0.00    +0.000 A 
ATOM      6  C   UNL     1       1.173   9.468  19.330  0.00  0.00    +0.000 A 
ENDROOT
BRANCH   1   8
ATOM      7  C   UNL     1       2.812   7.803  17.732  0.00  0.00    +0.000 C 
ATOM      8  C   UNL     1       2.158   7.172  18.969  0.00  0.00    +0.000 C 
BRANCH   8   9
ATOM      9  C   UNL     1       3.190   6.273  19.716  0.00  0.00    +0.000 C 
BRANCH   9  10
ATOM     10  N   UNL     1       2.802   4.862  19.901  0.00  0.00    +0.000 NA
ATOM     11  C   UNL     1       1.360   4.640  19.784  0.00  0.00    +0.000 C 
ATOM     12  C   UNL     1       0.970   3.214  20.171  0.00  0.00    +0.000 C 
ATOM     13  C   UNL     1       1.734   2.205  19.332  0.00  0.00    +0.000 C 
ATOM     14  C   UNL     1       3.232   2.460  19.465  0.00  0.00    +0.000 C 
ATOM     15  C   UNL     1       3.638   3.912  19.120  0.00  0.00    +0.000 C 
BRANCH  15  16
ATOM     16  C   UNL     1       3.724   4.194  17.584  0.00  0.00    +0.000 C 
BRANCH  16  17
ATOM     17  C   UNL     1       5.143   4.116  16.945  0.00  0.00    +0.000 C 
ATOM     18  C   UNL     1       5.262   4.990  15.674  0.00  0.00    +0.000 C 
ATOM     19  C   UNL     1       5.438   6.487  15.943  0.00  0.00    +0.000 C 
ATOM     20  C   UNL     1       6.550   6.777  16.946  0.00  0.00    +0.000 C 
ATOM     21  C   UNL     1       6.383   5.956  18.218  0.00  0.00    +0.000 C 
ATOM     22  C   UNL     1       6.297   4.464  17.904  0.00  0.00    +0.000 C 
ENDBRANCH  16  17
ENDBRANCH  15  16
ENDBRANCH   9  10
ENDBRANCH   8   9
ENDBRANCH   1   8
BRANCH   5  23
ATOM     23  C   UNL     1      -0.044  11.678  19.337  0.00  0.00    +0.000 C 
BRANCH  23  24
ATOM     24  C   UNL     1      -1.555  11.832  19.197  0.00  0.00    +0.000 A 
ATOM     25  C   UNL     1      -2.274  11.046  18.265  0.00  0.00    +0.000 A 
ATOM     26 CL   UNL     1      -1.515   9.933  17.175  0.00  0.00    +0.000 Cl
ATOM     27  C   UNL     1      -3.674  11.091  18.183  0.00  0.00    +0.000 A 
ATOM     28  C   UNL     1      -4.404  11.906  19.035  0.00  0.00    +0.000 A 
ATOM     29  C   UNL     1      -3.728  12.707  19.946  0.00  0.00    +0.000 A 
ATOM     30  C   UNL     1      -2.324  12.689  20.014  0.00  0.00    +0.000 A 
ATOM     31 CL   UNL     1      -1.629  13.776  21.170  0.00  0.00    +0.000 Cl
ENDBRANCH  23  24
BRANCH  23  32
ATOM     32  O   UNL     1       0.638  11.844  18.088  0.00  0.00    +0.000 OA
ATOM     33  H   UNL     1       1.428  12.382  18.263  0.00  0.00    +0.000 HD
ENDBRANCH  23  32
ENDBRANCH   5  23
TORSDOF 8
ENDMDL
MODEL 4
REMARK VINA RESULT:      -8.4      0.715      1.251
REMARK  Name = 
REMARK  9 active torsions:
REMARK  status: ('A' for Active; 'I' for Inactive)
REMARK    1  A    between atoms: C_1  and  C_2
REMARK    2  A    between atoms: C_2  and  C_3
REMARK    3  A    between atoms: C_2  and  C_17
REMARK    4  A    between atoms: C_3  and  N_4
REMARK    5  A    between atoms: C_9  and  C_10
REMARK    6  A    between atoms: C_10  and  C_11
REMARK    7  A    between atoms: C_21  and  C_22
REMARK    8  A    between atoms: C_22  and  O_23
REMARK    9  A    between atoms: C_22  and  C_24
REMARK                            x       y       z     vdW  Elec       q    Type
REMARK                         _______ _______ _______ _____ _____    ______ ____
ROOT
ATOM      1  C   UNL     1       1.379   8.456  19.913  0.00  0.00    +0.000 A 
ATOM      2  C   UNL     1       1.121   8.175  21.258  0.00  0.00    +0.000 A 
ATOM      3  C   UNL     1       0.409   9.078  22.045  0.00  0.00    +0.000 A 
ATOM      4  C   UNL     1      -0.071  10.276  21.493  0.00  0.00    +0.000 A 
ATOM      5  C   UNL     1       0.151  10.582  20.142  0.00  0.00    +0.000 A 
ATOM      6  C   UNL     1       0.908   9.669  19.386  0.00  0.00    +0.000 A 
ENDROOT
BRANCH   1   8
ATOM      7  C   UNL     1       2.615   8.146  17.725  0.00  0.00    +0.000 C 
ATOM      8  C   UNL     1       2.069   7.464  18.987  0.00  0.00    +0.000 C 
BRANCH   8   9
ATOM      9  C   UNL     1       3.206   6.667  19.696  0.00  0.00    +0.000 C 
BRANCH   9  10
ATOM     10  N   UNL     1       2.965   5.223  19.880  0.00  0.00    +0.000 NA
ATOM     11  C   UNL     1       1.576   4.834  19.630  0.00  0.00    +0.000 C 
ATOM     12  C   UNL     1       1.314   3.379  20.016  0.00  0.00    +0.000 C 
ATOM     13  C   UNL     1       2.267   2.452  19.282  0.00  0.00    +0.000 C 
ATOM     14  C   UNL     1       3.705   2.881  19.552  0.00  0.00    +0.000 C 
ATOM     15  C   UNL     1       3.976   4.365  19.209  0.00  0.00    +0.000 C 
BRANCH  15  16
ATOM     16  C   UNL     1       4.181   4.630  17.681  0.00  0.00    +0.000 C 
BRANCH  16  17
ATOM     17  C   UNL     1       5.209   5.739  17.305  0.00  0.00    +0.000 C 
ATOM     18  C   UNL     1       6.663   5.330  17.642  0.00  0.00    +0.000 C 
ATOM     19  C   UNL     1       7.301   4.362  16.642  0.00  0.00    +0.000 C 
ATOM     20  C   UNL     1       7.157   4.832  15.197  0.00  0.00    +0.000 C 
ATOM     21  C   UNL     1       5.710   5.170  14.862  0.00  0.00    +0.000 C 
ATOM     22  C   UNL     1       5.145   6.200  15.837  0.00  0.00    +0.000 C 
ENDBRANCH  16  17
ENDBRANCH  15  16
ENDBRANCH   9  10
ENDBRANCH   8   9
ENDBRANCH   1   8
BRANCH   5  23
ATOM     23  C   UNL     1      -0.486  11.772  19.437  0.00  0.00    +0.000 C 
BRANCH  23  24
ATOM     24  C   UNL     1      -1.998  11.742  19.232  0.00  0.00    +0.000 A 
ATOM     25  C   UNL     1      -2.850  12.521  20.051  0.00  0.00    +0.000 A 
ATOM     26 CL   UNL     1      -2.278  13.485  21.371  0.00  0.00    +0.000 Cl
ATOM     27  C   UNL     1      -4.233  12.593  19.823  0.00  0.00    +0.000 A 
ATOM     28  C   UNL     1      -4.809  11.906  18.765  0.00  0.00    +0.000 A 
ATOM     29  C   UNL     1      -4.005  11.114  17.956  0.00  0.00    +0.000 A 
ATOM     30  C   UNL     1      -2.623  11.014  18.196  0.00  0.00    +0.000 A 
ATOM     31 CL   UNL     1      -1.765   9.954  17.129  0.00  0.00    +0.000 Cl
ENDBRANCH  23  24
BRANCH  23  32
ATOM     32  O   UNL     1       0.221  12.072  18.228  0.00  0.00    +0.000 OA
ATOM     33  H   UNL     1      -0.195  11.555  17.518  0.00  0.00    +0.000 HD
ENDBRANCH  23  32
ENDBRANCH   5  23
TORSDOF 8
ENDMDL
MODEL 5
REMARK VINA RESULT:      -8.3      0.920      3.683
REMARK  Name = 
REMARK  9 active torsions:
REMARK  status: ('A' for Active; 'I' for Inactive)
REMARK    1  A    between atoms: C_1  and  C_2
REMARK    2  A    between atoms: C_2  and  C_3
REMARK    3  A    between atoms: C_2  and  C_17
REMARK    4  A    between atoms: C_3  and  N_4
REMARK    5  A    between atoms: C_9  and  C_10
REMARK    6  A    between atoms: C_10  and  C_11
REMARK    7  A    between atoms: C_21  and  C_22
REMARK    8  A    between atoms: C_22  and  O_23
REMARK    9  A    between atoms: C_22  and  C_24
REMARK                            x       y       z     vdW  Elec       q    Type
REMARK                         _______ _______ _______ _____ _____    ______ ____
ROOT
ATOM      1  C   UNL     1       1.776   8.106  19.520  0.00  0.00    +0.000 A 
ATOM      2  C   UNL     1       1.427   7.674  20.803  0.00  0.00    +0.000 A 
ATOM      3  C   UNL     1       0.783   8.536  21.688  0.00  0.00    +0.000 A 
ATOM      4  C   UNL     1       0.462   9.846  21.297  0.00  0.00    +0.000 A 
ATOM      5  C   UNL     1       0.778  10.307  20.010  0.00  0.00    +0.000 A 
ATOM      6  C   UNL     1       1.465   9.426  19.155  0.00  0.00    +0.000 A 
ENDROOT
BRANCH   1   8
ATOM      7  C   UNL     1       2.721   7.916  17.179  0.00  0.00    +0.000 C 
ATOM      8  C   UNL     1       2.395   7.178  18.484  0.00  0.00    +0.000 C 
BRANCH   8   9
ATOM      9  C   UNL     1       3.667   6.445  19.013  0.00  0.00    +0.000 C 
BRANCH   9  10
ATOM     10  N   UNL     1       4.547   5.857  17.986  0.00  0.00    +0.000 NA
ATOM     11  C   UNL     1       5.931   6.322  18.076  0.00  0.00    +0.000 C 
ATOM     12  C   UNL     1       6.769   5.852  16.888  0.00  0.00    +0.000 C 
ATOM     13  C   UNL     1       6.722   4.339  16.767  0.00  0.00    +0.000 C 
ATOM     14  C   UNL     1       5.271   3.878  16.681  0.00  0.00    +0.000 C 
ATOM     15  C   UNL     1       4.398   4.383  17.854  0.00  0.00    +0.000 C 
BRANCH  15  16
ATOM     16  C   UNL     1       4.582   3.566  19.174  0.00  0.00    +0.000 C 
BRANCH  16  17
ATOM     17  C   UNL     1       3.469   2.526  19.504  0.00  0.00    +0.000 C 
ATOM     18  C   UNL     1       2.938   2.674  20.950  0.00  0.00    +0.000 C 
ATOM     19  C   UNL     1       1.955   3.830  21.154  0.00  0.00    +0.000 C 
ATOM     20  C   UNL     1       0.828   3.829  20.125  0.00  0.00    +0.000 C 
ATOM     21  C   UNL     1       1.369   3.748  18.704  0.00  0.00    +0.000 C 
ATOM     22  C   UNL     1       2.277   2.533  18.529  0.00  0.00    +0.000 C 
ENDBRANCH  16  17
ENDBRANCH  15  16
ENDBRANCH   9  10
ENDBRANCH   8   9
ENDBRANCH   1   8
BRANCH   5  23
ATOM     23  C   UNL     1       0.308  11.648  19.461  0.00  0.00    +0.000 C 
BRANCH  23  24
ATOM     24  C   UNL     1      -1.196  11.898  19.408  0.00  0.00    +0.000 A 
ATOM     25  C   UNL     1      -2.012  11.182  18.501  0.00  0.00    +0.000 A 
ATOM     26 CL   UNL     1      -1.387  10.049  17.349  0.00  0.00    +0.000 Cl
ATOM     27  C   UNL     1      -3.410  11.316  18.498  0.00  0.00    +0.000 A 
ATOM     28  C   UNL     1      -4.039  12.155  19.405  0.00  0.00    +0.000 A 
ATOM     29  C   UNL     1      -3.265  12.890  20.293  0.00  0.00    +0.000 A 
ATOM     30  C   UNL     1      -1.863  12.783  20.283  0.00  0.00    +0.000 A 
ATOM     31 CL   UNL     1      -1.039  13.796  21.420  0.00  0.00    +0.000 Cl
ENDBRANCH  23  24
BRANCH  23  32
ATOM     32  O   UNL     1       0.950  11.927  18.211  0.00  0.00    +0.000 OA
ATOM     33  H   UNL     1       1.847  12.243  18.415  0.00  0.00    +0.000 HD
ENDBRANCH  23  32
ENDBRANCH   5  23
TORSDOF 8
ENDMDL
MODEL 6
REMARK VINA RESULT:      -8.2      0.927      1.078
REMARK  Name = 
REMARK  9 active torsions:
REMARK  status: ('A' for Active; 'I' for Inactive)
REMARK    1  A    between atoms: C_1  and  C_2
REMARK    2  A    between atoms: C_2  and  C_3
REMARK    3  A    between atoms: C_2  and  C_17
REMARK    4  A    between atoms: C_3  and  N_4
REMARK    5  A    between atoms: C_9  and  C_10
REMARK    6  A    between atoms: C_10  and  C_11
REMARK    7  A    between atoms: C_21  and  C_22
REMARK    8  A    between atoms: C_22  and  O_23
REMARK    9  A    between atoms: C_22  and  C_24
REMARK                            x       y       z     vdW  Elec       q    Type
REMARK                         _______ _______ _______ _____ _____    ______ ____
ROOT
ATOM      1  C   UNL     1       1.392   8.451  19.782  0.00  0.00    +0.000 A 
ATOM      2  C   UNL     1       1.158   8.166  21.130  0.00  0.00    +0.000 A 
ATOM      3  C   UNL     1       0.439   9.056  21.926  0.00  0.00    +0.000 A 
ATOM      4  C   UNL     1      -0.071  10.245  21.380  0.00  0.00    +0.000 A 
ATOM      5  C   UNL     1       0.127  10.554  20.026  0.00  0.00    +0.000 A 
ATOM      6  C   UNL     1       0.891   9.655  19.260  0.00  0.00    +0.000 A 
ENDROOT
BRANCH   1   8
ATOM      7  C   UNL     1       2.897   8.195  17.762  0.00  0.00    +0.000 C 
ATOM      8  C   UNL     1       2.088   7.472  18.847  0.00  0.00    +0.000 C 
BRANCH   8   9
ATOM      9  C   UNL     1       3.000   6.459  19.605  0.00  0.00    +0.000 C 
BRANCH   9  10
ATOM     10  N   UNL     1       2.762   5.033  19.313  0.00  0.00    +0.000 NA
ATOM     11  C   UNL     1       1.635   4.810  18.406  0.00  0.00    +0.000 C 
ATOM     12  C   UNL     1       1.291   3.326  18.279  0.00  0.00    +0.000 C 
ATOM     13  C   UNL     1       2.505   2.534  17.825  0.00  0.00    +0.000 C 
ATOM     14  C   UNL     1       3.666   2.788  18.780  0.00  0.00    +0.000 C 
ATOM     15  C   UNL     1       3.998   4.288  18.955  0.00  0.00    +0.000 C 
BRANCH  15  16
ATOM     16  C   UNL     1       4.832   4.890  17.777  0.00  0.00    +0.000 C 
BRANCH  16  17
ATOM     17  C   UNL     1       5.881   3.944  17.119  0.00  0.00    +0.000 C 
ATOM     18  C   UNL     1       5.422   3.438  15.730  0.00  0.00    +0.000 C 
ATOM     19  C   UNL     1       5.587   4.453  14.595  0.00  0.00    +0.000 C 
ATOM     20  C   UNL     1       6.985   5.063  14.552  0.00  0.00    +0.000 C 
ATOM     21  C   UNL     1       7.396   5.614  15.911  0.00  0.00    +0.000 C 
ATOM     22  C   UNL     1       7.294   4.542  16.994  0.00  0.00    +0.000 C 
ENDBRANCH  16  17
ENDBRANCH  15  16
ENDBRANCH   9  10
ENDBRANCH   8   9
ENDBRANCH   1   8
BRANCH   5  23
ATOM     23  C   UNL     1      -0.542  11.731  19.329  0.00  0.00    +0.000 C 
BRANCH  23  24
ATOM     24  C   UNL     1      -2.054  11.668  19.136  0.00  0.00    +0.000 A 
ATOM     25  C   UNL     1      -2.914  12.456  19.938  0.00  0.00    +0.000 A 
ATOM     26 CL   UNL     1      -2.350  13.470  21.225  0.00  0.00    +0.000 Cl
ATOM     27  C   UNL     1      -4.300  12.497  19.719  0.00  0.00    +0.000 A 
ATOM     28  C   UNL     1      -4.871  11.768  18.687  0.00  0.00    +0.000 A 
ATOM     29  C   UNL     1      -4.058  10.967  17.896  0.00  0.00    +0.000 A 
ATOM     30  C   UNL     1      -2.674  10.898  18.128  0.00  0.00    +0.000 A 
ATOM     31 CL   UNL     1      -1.804   9.821  17.086  0.00  0.00    +0.000 Cl
ENDBRANCH  23  24
BRANCH  23  32
ATOM     32  O   UNL     1       0.148  12.049  18.115  0.00  0.00    +0.000 OA
ATOM     33  H   UNL     1       0.836  11.373  17.992  0.00  0.00    +0.000 HD
ENDBRANCH  23  32
ENDBRANCH   5  23
TORSDOF 8
ENDMDL
MODEL 7
REMARK VINA RESULT:      -8.1      0.830      2.025
REMARK  Name = 
REMARK  9 active torsions:
REMARK  status: ('A' for Active; 'I' for Inactive)
REMARK    1  A    between atoms: C_1  and  C_2
REMARK    2  A    between atoms: C_2  and  C_3
REMARK    3  A    between atoms: C_2  and  C_17
REMARK    4  A    between atoms: C_3  and  N_4
REMARK    5  A    between atoms: C_9  and  C_10
REMARK    6  A    between atoms: C_10  and  C_11
REMARK    7  A    between atoms: C_21  and  C_22
REMARK    8  A    between atoms: C_22  and  O_23
REMARK    9  A    between atoms: C_22  and  C_24
REMARK                            x       y       z     vdW  Elec       q    Type
REMARK                         _______ _______ _______ _____ _____    ______ ____
ROOT
ATOM      1  C   UNL     1       1.395   8.455  19.746  0.00  0.00    +0.000 A 
ATOM      2  C   UNL     1       1.064   8.100  21.057  0.00  0.00    +0.000 A 
ATOM      3  C   UNL     1       0.345   8.976  21.867  0.00  0.00    +0.000 A 
ATOM      4  C   UNL     1      -0.069  10.223  21.372  0.00  0.00    +0.000 A 
ATOM      5  C   UNL     1       0.226  10.604  20.055  0.00  0.00    +0.000 A 
ATOM      6  C   UNL     1       0.989   9.714  19.276  0.00  0.00    +0.000 A 
ENDROOT
BRANCH   1   8
ATOM      7  C   UNL     1       2.901   8.249  17.721  0.00  0.00    +0.000 C 
ATOM      8  C   UNL     1       2.096   7.499  18.791  0.00  0.00    +0.000 C 
BRANCH   8   9
ATOM      9  C   UNL     1       3.013   6.475  19.527  0.00  0.00    +0.000 C 
BRANCH   9  10
ATOM     10  N   UNL     1       2.657   5.053  19.357  0.00  0.00    +0.000 NA
ATOM     11  C   UNL     1       1.842   4.799  18.168  0.00  0.00    +0.000 C 
ATOM     12  C   UNL     1       1.329   3.360  18.126  0.00  0.00    +0.000 C 
ATOM     13  C   UNL     1       2.485   2.378  18.199  0.00  0.00    +0.000 C 
ATOM     14  C   UNL     1       3.322   2.667  19.441  0.00  0.00    +0.000 C 
ATOM     15  C   UNL     1       3.813   4.131  19.522  0.00  0.00    +0.000 C 
BRANCH  15  16
ATOM     16  C   UNL     1       5.051   4.432  18.615  0.00  0.00    +0.000 C 
BRANCH  16  17
ATOM     17  C   UNL     1       4.757   5.140  17.258  0.00  0.00    +0.000 C 
ATOM     18  C   UNL     1       5.739   6.304  16.981  0.00  0.00    +0.000 C 
ATOM     19  C   UNL     1       7.120   5.869  16.484  0.00  0.00    +0.000 C 
ATOM     20  C   UNL     1       7.042   4.891  15.315  0.00  0.00    +0.000 C 
ATOM     21  C   UNL     1       6.122   3.718  15.629  0.00  0.00    +0.000 C 
ATOM     22  C   UNL     1       4.733   4.202  16.038  0.00  0.00    +0.000 C 
ENDBRANCH  16  17
ENDBRANCH  15  16
ENDBRANCH   9  10
ENDBRANCH   8   9
ENDBRANCH   1   8
BRANCH   5  23
ATOM     23  C   UNL     1      -0.339  11.857  19.399  0.00  0.00    +0.000 C 
BRANCH  23  24
ATOM     24  C   UNL     1      -1.854  11.953  19.250  0.00  0.00    +0.000 A 
ATOM     25  C   UNL     1      -2.529  11.191  18.266  0.00  0.00    +0.000 A 
ATOM     26 CL   UNL     1      -1.712  10.174  17.125  0.00  0.00    +0.000 Cl
ATOM     27  C   UNL     1      -3.929  11.179  18.171  0.00  0.00    +0.000 A 
ATOM     28  C   UNL     1      -4.702  11.913  19.059  0.00  0.00    +0.000 A 
ATOM     29  C   UNL     1      -4.070  12.689  20.021  0.00  0.00    +0.000 A 
ATOM     30  C   UNL     1      -2.667  12.728  20.104  0.00  0.00    +0.000 A 
ATOM     31 CL   UNL     1      -2.031  13.777  21.327  0.00  0.00    +0.000 Cl
ENDBRANCH  23  24
BRANCH  23  32
ATOM     32  O   UNL     1       0.346  12.129  18.170  0.00  0.00    +0.000 OA
ATOM     33  H   UNL     1       1.103  12.699  18.385  0.00  0.00    +0.000 HD
ENDBRANCH  23  32
ENDBRANCH   5  23
TORSDOF 8
ENDMDL
MODEL 8
REMARK VINA RESULT:      -8.1      0.665      1.980
REMARK  Name = 
REMARK  9 active torsions:
REMARK  status: ('A' for Active; 'I' for Inactive)
REMARK    1  A    between atoms: C_1  and  C_2
REMARK    2  A    between atoms: C_2  and  C_3
REMARK    3  A    between atoms: C_2  and  C_17
REMARK    4  A    between atoms: C_3  and  N_4
REMARK    5  A    between atoms: C_9  and  C_10
REMARK    6  A    between atoms: C_10  and  C_11
REMARK    7  A    between atoms: C_21  and  C_22
REMARK    8  A    between atoms: C_22  and  O_23
REMARK    9  A    between atoms: C_22  and  C_24
REMARK                            x       y       z     vdW  Elec       q    Type
REMARK                         _______ _______ _______ _____ _____    ______ ____
ROOT
ATOM      1  C   UNL     1       1.395   8.397  19.872  0.00  0.00    +0.000 A 
ATOM      2  C   UNL     1       1.078   8.106  21.202  0.00  0.00    +0.000 A 
ATOM      3  C   UNL     1       0.381   9.026  21.982  0.00  0.00    +0.000 A 
ATOM      4  C   UNL     1      -0.026  10.254  21.436  0.00  0.00    +0.000 A 
ATOM      5  C   UNL     1       0.255  10.573  20.099  0.00  0.00    +0.000 A 
ATOM      6  C   UNL     1       0.996   9.640  19.352  0.00  0.00    +0.000 A 
ENDROOT
BRANCH   1   8
ATOM      7  C   UNL     1       2.609   8.056  17.677  0.00  0.00    +0.000 C 
ATOM      8  C   UNL     1       2.070   7.391  18.951  0.00  0.00    +0.000 C 
BRANCH   8   9
ATOM      9  C   UNL     1       3.210   6.595  19.659  0.00  0.00    +0.000 C 
BRANCH   9  10
ATOM     10  N   UNL     1       2.933   5.171  19.924  0.00  0.00    +0.000 NA
ATOM     11  C   UNL     1       1.588   4.759  19.518  0.00  0.00    +0.000 C 
ATOM     12  C   UNL     1       1.264   3.338  19.980  0.00  0.00    +0.000 C 
ATOM     13  C   UNL     1       2.301   2.358  19.461  0.00  0.00    +0.000 C 
ATOM     14  C   UNL     1       3.692   2.812  19.890  0.00  0.00    +0.000 C 
ATOM     15  C   UNL     1       4.020   4.264  19.469  0.00  0.00    +0.000 C 
BRANCH  15  16
ATOM     16  C   UNL     1       4.434   4.406  17.968  0.00  0.00    +0.000 C 
BRANCH  16  17
ATOM     17  C   UNL     1       5.713   5.248  17.680  0.00  0.00    +0.000 C 
ATOM     18  C   UNL     1       6.882   4.379  17.158  0.00  0.00    +0.000 C 
ATOM     19  C   UNL     1       6.777   3.988  15.682  0.00  0.00    +0.000 C 
ATOM     20  C   UNL     1       6.502   5.184  14.776  0.00  0.00    +0.000 C 
ATOM     21  C   UNL     1       5.308   5.994  15.267  0.00  0.00    +0.000 C 
ATOM     22  C   UNL     1       5.499   6.431  16.718  0.00  0.00    +0.000 C 
ENDBRANCH  16  17
ENDBRANCH  15  16
ENDBRANCH   9  10
ENDBRANCH   8   9
ENDBRANCH   1   8
BRANCH   5  23
ATOM     23  C   UNL     1      -0.304  11.802  19.395  0.00  0.00    +0.000 C 
BRANCH  23  24
ATOM     24  C   UNL     1      -1.818  11.891  19.230  0.00  0.00    +0.000 A 
ATOM     25  C   UNL     1      -2.485  11.093  18.270  0.00  0.00    +0.000 A 
ATOM     26 CL   UNL     1      -1.659  10.035  17.174  0.00  0.00    +0.000 Cl
ATOM     27  C   UNL     1      -3.884  11.078  18.163  0.00  0.00    +0.000 A 
ATOM     28  C   UNL     1      -4.664  11.843  19.017  0.00  0.00    +0.000 A 
ATOM     29  C   UNL     1      -4.040  12.655  19.955  0.00  0.00    +0.000 A 
ATOM     30  C   UNL     1      -2.638  12.698  20.049  0.00  0.00    +0.000 A 
ATOM     31 CL   UNL     1      -2.013  13.791  21.237  0.00  0.00    +0.000 Cl
ENDBRANCH  23  24
BRANCH  23  32
ATOM     32  O   UNL     1       0.392  12.031  18.164  0.00  0.00    +0.000 OA
ATOM     33  H   UNL     1       1.282  11.655  18.265  0.00  0.00    +0.000 HD
ENDBRANCH  23  32
ENDBRANCH   5  23
TORSDOF 8
ENDMDL
MODEL 9
REMARK VINA RESULT:      -8.1      0.810      1.890
REMARK  Name = 
REMARK  9 active torsions:
REMARK  status: ('A' for Active; 'I' for Inactive)
REMARK    1  A    between atoms: C_1  and  C_2
REMARK    2  A    between atoms: C_2  and  C_3
REMARK    3  A    between atoms: C_2  and  C_17
REMARK    4  A    between atoms: C_3  and  N_4
REMARK    5  A    between atoms: C_9  and  C_10
REMARK    6  A    between atoms: C_10  and  C_11
REMARK    7  A    between atoms: C_21  and  C_22
REMARK    8  A    between atoms: C_22  and  O_23
REMARK    9  A    between atoms: C_22  and  C_24
REMARK                            x       y       z     vdW  Elec       q    Type
REMARK                         _______ _______ _______ _____ _____    ______ ____
ROOT
ATOM      1  C   UNL     1       1.545   8.207  19.741  0.00  0.00    +0.000 A 
ATOM      2  C   UNL     1       1.193   7.892  21.057  0.00  0.00    +0.000 A 
ATOM      3  C   UNL     1       0.491   8.807  21.840  0.00  0.00    +0.000 A 
ATOM      4  C   UNL     1       0.115  10.052  21.311  0.00  0.00    +0.000 A 
ATOM      5  C   UNL     1       0.432  10.394  19.988  0.00  0.00    +0.000 A 
ATOM      6  C   UNL     1       1.177   9.466  19.238  0.00  0.00    +0.000 A 
ENDROOT
BRANCH   1   8
ATOM      7  C   UNL     1       3.056   7.913  17.731  0.00  0.00    +0.000 C 
ATOM      8  C   UNL     1       2.227   7.210  18.815  0.00  0.00    +0.000 C 
BRANCH   8   9
ATOM      9  C   UNL     1       3.115   6.183  19.583  0.00  0.00    +0.000 C 
BRANCH   9  10
ATOM     10  N   UNL     1       2.822   4.760  19.328  0.00  0.00    +0.000 NA
ATOM     11  C   UNL     1       1.569   4.549  18.601  0.00  0.00    +0.000 C 
ATOM     12  C   UNL     1       1.197   3.069  18.524  0.00  0.00    +0.000 C 
ATOM     13  C   UNL     1       2.321   2.267  17.893  0.00  0.00    +0.000 C 
ATOM     14  C   UNL     1       3.615   2.508  18.663  0.00  0.00    +0.000 C 
ATOM     15  C   UNL     1       3.984   4.005  18.788  0.00  0.00    +0.000 C 
BRANCH  15  16
ATOM     16  C   UNL     1       4.637   4.603  17.500  0.00  0.00    +0.000 C 
BRANCH  16  17
ATOM     17  C   UNL     1       5.859   3.828  16.922  0.00  0.00    +0.000 C 
ATOM     18  C   UNL     1       5.626   3.371  15.462  0.00  0.00    +0.000 C 
ATOM     19  C   UNL     1       5.797   4.473  14.413  0.00  0.00    +0.000 C 
ATOM     20  C   UNL     1       7.107   5.238  14.573  0.00  0.00    +0.000 C 
ATOM     21  C   UNL     1       7.291   5.737  16.001  0.00  0.00    +0.000 C 
ATOM     22  C   UNL     1       7.196   4.588  17.002  0.00  0.00    +0.000 C 
ENDBRANCH  16  17
ENDBRANCH  15  16
ENDBRANCH   9  10
ENDBRANCH   8   9
ENDBRANCH   1   8
BRANCH   5  23
ATOM     23  C   UNL     1      -0.092  11.646  19.297  0.00  0.00    +0.000 C 
BRANCH  23  24
ATOM     24  C   UNL     1      -1.604  11.805  19.180  0.00  0.00    +0.000 A 
ATOM     25  C   UNL     1      -2.337  11.034  18.245  0.00  0.00    +0.000 A 
ATOM     26 CL   UNL     1      -1.595   9.934  17.131  0.00  0.00    +0.000 Cl
ATOM     27  C   UNL     1      -3.738  11.083  18.182  0.00  0.00    +0.000 A 
ATOM     28  C   UNL     1      -4.455  11.887  19.055  0.00  0.00    +0.000 A 
ATOM     29  C   UNL     1      -3.765  12.673  19.968  0.00  0.00    +0.000 A 
ATOM     30  C   UNL     1      -2.361  12.652  20.018  0.00  0.00    +0.000 A 
ATOM     31 CL   UNL     1      -1.648  13.721  21.180  0.00  0.00    +0.000 Cl
ENDBRANCH  23  24
BRANCH  23  32
ATOM     32  O   UNL     1       0.575  11.840  18.044  0.00  0.00    +0.000 OA
ATOM     33  H   UNL     1       1.050  11.017  17.843  0.00  0.00    +0.000 HD
ENDBRANCH  23  32
ENDBRANCH   5  23
TORSDOF 8
ENDMDL
