MODEL 1
REMARK VINA RESULT:      -6.9      0.000      0.000
REMARK  Name = 
REMARK  4 active torsions:
REMARK  status: ('A' for Active; 'I' for Inactive)
REMARK    1  A    between atoms: C_1  and  C_2
REMARK    2  A    between atoms: C_2  and  C_3
REMARK    3  A    between atoms: N_5  and  C_6
REMARK    4  A    between atoms: C_8  and  C_9
REMARK                            x       y       z     vdW  Elec       q    Type
REMARK                         _______ _______ _______ _____ _____    ______ ____
ROOT
ATOM      1  C   UNL     1       4.905   5.193  17.920  0.00  0.00    +0.000 C 
ATOM      2  C   UNL     1       5.263   3.917  17.135  0.00  0.00    +0.000 C 
ATOM      3  C   UNL     1       4.711   4.567  15.842  0.00  0.00    +0.000 C 
ATOM      4  C   UNL     1       4.711   5.930  16.581  0.00  0.00    +0.000 C 
ENDROOT
BRANCH   3   5
ATOM      5  C   UNL     1       5.567   4.411  14.505  0.00  0.00    +0.000 A 
ATOM      6  C   UNL     1       5.107   3.631  13.423  0.00  0.00    +0.000 A 
ATOM      7  C   UNL     1       5.857   3.464  12.254  0.00  0.00    +0.000 A 
ATOM      8  C   UNL     1       7.093   4.080  12.143  0.00  0.00    +0.000 A 
ATOM      9  F   UNL     1       7.819   3.916  11.029  0.00  0.00    +0.000 F 
ATOM     10  C   UNL     1       7.589   4.859  13.176  0.00  0.00    +0.000 A 
ATOM     11  C   UNL     1       6.832   5.020  14.340  0.00  0.00    +0.000 A 
ENDBRANCH   3   5
BRANCH   1  14
ATOM     12  C   UNL     1       3.540   4.080  19.697  0.00  0.00    +0.000 C 
ATOM     13  O   UNL     1       4.405   3.210  19.833  0.00  0.00    +0.000 OA
ATOM     14  N   UNL     1       3.686   5.087  18.751  0.00  0.00    +0.000 N 
ATOM     15  H   UNL     1       2.944   5.770  18.661  0.00  0.00    +0.000 HD
BRANCH  12  17
ATOM     16  C   UNL     1       1.706   5.577  20.728  0.00  0.00    +0.000 C 
ATOM     17  C   UNL     1       2.234   4.152  20.542  0.00  0.00    +0.000 C 
ATOM     18  C   UNL     1       1.105   3.177  20.124  0.00  0.00    +0.000 C 
ATOM     19  O   UNL     1       0.918   2.766  21.507  0.00  0.00    +0.000 OA
ATOM     20  C   UNL     1       2.220   3.311  21.836  0.00  0.00    +0.000 C 
ENDBRANCH  12  17
ENDBRANCH   1  14
TORSDOF 3
ENDMDL
MODEL 2
REMARK VINA RESULT:      -6.9      0.060      1.104
REMARK  Name = 
REMARK  4 active torsions:
REMARK  status: ('A' for Active; 'I' for Inactive)
REMARK    1  A    between atoms: C_1  and  C_2
REMARK    2  A    between atoms: C_2  and  C_3
REMARK    3  A    between atoms: N_5  and  C_6
REMARK    4  A    between atoms: C_8  and  C_9
REMARK                            x       y       z     vdW  Elec       q    Type
REMARK                         _______ _______ _______ _____ _____    ______ ____
ROOT
ATOM      1  C   UNL     1       4.935   5.243  17.938  0.00  0.00    +0.000 C 
ATOM      2  C   UNL     1       5.316   3.955  17.184  0.00  0.00    +0.000 C 
ATOM      3  C   UNL     1       4.749   4.562  15.877  0.00  0.00    +0.000 C 
ATOM      4  C   UNL     1       4.724   5.942  16.581  0.00  0.00    +0.000 C 
ENDROOT
BRANCH   3   5
ATOM      5  C   UNL     1       5.606   4.388  14.543  0.00  0.00    +0.000 A 
ATOM      6  C   UNL     1       6.857   5.021  14.384  0.00  0.00    +0.000 A 
ATOM      7  C   UNL     1       7.610   4.899  13.211  0.00  0.00    +0.000 A 
ATOM      8  C   UNL     1       7.121   4.134  12.164  0.00  0.00    +0.000 A 
ATOM      9  F   UNL     1       7.834   4.020  11.036  0.00  0.00    +0.000 F 
ATOM     10  C   UNL     1       5.900   3.489  12.271  0.00  0.00    +0.000 A 
ATOM     11  C   UNL     1       5.155   3.618  13.447  0.00  0.00    +0.000 A 
ENDBRANCH   3   5
BRANCH   1  14
ATOM     12  C   UNL     1       3.539   4.076  19.656  0.00  0.00    +0.000 C 
ATOM     13  O   UNL     1       4.367   3.165  19.727  0.00  0.00    +0.000 OA
ATOM     14  N   UNL     1       3.719   5.135  18.774  0.00  0.00    +0.000 N 
ATOM     15  H   UNL     1       3.005   5.852  18.736  0.00  0.00    +0.000 HD
BRANCH  12  17
ATOM     16  C   UNL     1       1.710   5.572  20.699  0.00  0.00    +0.000 C 
ATOM     17  C   UNL     1       2.244   4.148  20.518  0.00  0.00    +0.000 C 
ATOM     18  C   UNL     1       1.115   3.164  20.123  0.00  0.00    +0.000 C 
ATOM     19  O   UNL     1       0.948   2.762  21.512  0.00  0.00    +0.000 OA
ATOM     20  C   UNL     1       2.252   3.317  21.818  0.00  0.00    +0.000 C 
ENDBRANCH  12  17
ENDBRANCH   1  14
TORSDOF 3
ENDMDL
MODEL 3
REMARK VINA RESULT:      -6.7      5.263      8.289
REMARK  Name = 
REMARK  4 active torsions:
REMARK  status: ('A' for Active; 'I' for Inactive)
REMARK    1  A    between atoms: C_1  and  C_2
REMARK    2  A    between atoms: C_2  and  C_3
REMARK    3  A    between atoms: N_5  and  C_6
REMARK    4  A    between atoms: C_8  and  C_9
REMARK                            x       y       z     vdW  Elec       q    Type
REMARK                         _______ _______ _______ _____ _____    ______ ____
ROOT
ATOM      1  C   UNL     1       2.905   6.729  18.197  0.00  0.00    +0.000 C 
ATOM      2  C   UNL     1       2.149   7.163  19.466  0.00  0.00    +0.000 C 
ATOM      3  C   UNL     1       2.190   8.633  18.979  0.00  0.00    +0.000 C 
ATOM      4  C   UNL     1       2.609   8.110  17.582  0.00  0.00    +0.000 C 
ENDROOT
BRANCH   3   5
ATOM      5  C   UNL     1       0.858   9.500  19.115  0.00  0.00    +0.000 A 
ATOM      6  C   UNL     1       0.038   9.768  17.999  0.00  0.00    +0.000 A 
ATOM      7  C   UNL     1      -1.120  10.547  18.096  0.00  0.00    +0.000 A 
ATOM      8  C   UNL     1      -1.484  11.078  19.323  0.00  0.00    +0.000 A 
ATOM      9  F   UNL     1      -2.587  11.831  19.420  0.00  0.00    +0.000 F 
ATOM     10  C   UNL     1      -0.714  10.842  20.450  0.00  0.00    +0.000 A 
ATOM     11  C   UNL     1       0.441  10.062  20.343  0.00  0.00    +0.000 A 
ENDBRANCH   3   5
BRANCH   1  14
ATOM     12  C   UNL     1       5.209   6.288  17.326  0.00  0.00    +0.000 C 
ATOM     13  O   UNL     1       4.794   6.343  16.166  0.00  0.00    +0.000 OA
ATOM     14  N   UNL     1       4.341   6.437  18.401  0.00  0.00    +0.000 N 
ATOM     15  H   UNL     1       4.721   6.367  19.337  0.00  0.00    +0.000 HD
BRANCH  12  17
ATOM     16  C   UNL     1       7.595   7.272  17.432  0.00  0.00    +0.000 C 
ATOM     17  C   UNL     1       6.701   6.060  17.710  0.00  0.00    +0.000 C 
ATOM     18  C   UNL     1       6.953   5.481  19.125  0.00  0.00    +0.000 C 
ATOM     19  O   UNL     1       7.869   4.490  18.581  0.00  0.00    +0.000 OA
ATOM     20  C   UNL     1       7.316   4.718  17.261  0.00  0.00    +0.000 C 
ENDBRANCH  12  17
ENDBRANCH   1  14
TORSDOF 3
ENDMDL
MODEL 4
REMARK VINA RESULT:      -6.6      5.287      8.338
REMARK  Name = 
REMARK  4 active torsions:
REMARK  status: ('A' for Active; 'I' for Inactive)
REMARK    1  A    between atoms: C_1  and  C_2
REMARK    2  A    between atoms: C_2  and  C_3
REMARK    3  A    between atoms: N_5  and  C_6
REMARK    4  A    between atoms: C_8  and  C_9
REMARK                            x       y       z     vdW  Elec       q    Type
REMARK                         _______ _______ _______ _____ _____    ______ ____
ROOT
ATOM      1  C   UNL     1       2.889   6.728  18.189  0.00  0.00    +0.000 C 
ATOM      2  C   UNL     1       2.136   7.194  19.449  0.00  0.00    +0.000 C 
ATOM      3  C   UNL     1       2.187   8.653  18.931  0.00  0.00    +0.000 C 
ATOM      4  C   UNL     1       2.602   8.098  17.545  0.00  0.00    +0.000 C 
ENDROOT
BRANCH   3   5
ATOM      5  C   UNL     1       0.862   9.532  19.048  0.00  0.00    +0.000 A 
ATOM      6  C   UNL     1       0.519  10.191  20.248  0.00  0.00    +0.000 A 
ATOM      7  C   UNL     1      -0.653  10.945  20.374  0.00  0.00    +0.000 A 
ATOM      8  C   UNL     1      -1.512  11.057  19.292  0.00  0.00    +0.000 A 
ATOM      9  F   UNL     1      -2.638  11.772  19.411  0.00  0.00    +0.000 F 
ATOM     10  C   UNL     1      -1.219  10.433  18.091  0.00  0.00    +0.000 A 
ATOM     11  C   UNL     1      -0.046   9.681  17.975  0.00  0.00    +0.000 A 
ENDBRANCH   3   5
BRANCH   1  14
ATOM     12  C   UNL     1       5.222   6.420  17.341  0.00  0.00    +0.000 C 
ATOM     13  O   UNL     1       4.839   6.608  16.184  0.00  0.00    +0.000 OA
ATOM     14  N   UNL     1       4.322   6.430  18.399  0.00  0.00    +0.000 N 
ATOM     15  H   UNL     1       4.678   6.254  19.331  0.00  0.00    +0.000 HD
BRANCH  12  17
ATOM     16  C   UNL     1       7.607   7.390  17.555  0.00  0.00    +0.000 C 
ATOM     17  C   UNL     1       6.706   6.165  17.739  0.00  0.00    +0.000 C 
ATOM     18  C   UNL     1       6.930   5.498  19.118  0.00  0.00    +0.000 C 
ATOM     19  O   UNL     1       7.855   4.541  18.531  0.00  0.00    +0.000 OA
ATOM     20  C   UNL     1       7.329   4.853  17.217  0.00  0.00    +0.000 C 
ENDBRANCH  12  17
ENDBRANCH   1  14
TORSDOF 3
ENDMDL
MODEL 5
REMARK VINA RESULT:      -6.6      0.797      1.291
REMARK  Name = 
REMARK  4 active torsions:
REMARK  status: ('A' for Active; 'I' for Inactive)
REMARK    1  A    between atoms: C_1  and  C_2
REMARK    2  A    between atoms: C_2  and  C_3
REMARK    3  A    between atoms: N_5  and  C_6
REMARK    4  A    between atoms: C_8  and  C_9
REMARK                            x       y       z     vdW  Elec       q    Type
REMARK                         _______ _______ _______ _____ _____    ______ ____
ROOT
ATOM      1  C   UNL     1       5.074   4.127  18.063  0.00  0.00    +0.000 C 
ATOM      2  C   UNL     1       5.004   3.140  16.884  0.00  0.00    +0.000 C 
ATOM      3  C   UNL     1       4.814   4.328  15.909  0.00  0.00    +0.000 C 
ATOM      4  C   UNL     1       5.252   5.277  17.054  0.00  0.00    +0.000 C 
ENDROOT
BRANCH   3   5
ATOM      5  C   UNL     1       5.649   4.318  14.550  0.00  0.00    +0.000 A 
ATOM      6  C   UNL     1       5.208   3.596  13.421  0.00  0.00    +0.000 A 
ATOM      7  C   UNL     1       5.940   3.556  12.230  0.00  0.00    +0.000 A 
ATOM      8  C   UNL     1       7.140   4.245  12.144  0.00  0.00    +0.000 A 
ATOM      9  F   UNL     1       7.849   4.204  11.008  0.00  0.00    +0.000 F 
ATOM     10  C   UNL     1       7.615   4.972  13.223  0.00  0.00    +0.000 A 
ATOM     11  C   UNL     1       6.876   5.005  14.409  0.00  0.00    +0.000 A 
ENDBRANCH   3   5
BRANCH   1  14
ATOM     12  C   UNL     1       3.543   3.237  19.831  0.00  0.00    +0.000 C 
ATOM     13  O   UNL     1       4.271   2.254  19.983  0.00  0.00    +0.000 OA
ATOM     14  N   UNL     1       3.843   4.205  18.880  0.00  0.00    +0.000 N 
ATOM     15  H   UNL     1       3.208   4.987  18.776  0.00  0.00    +0.000 HD
BRANCH  12  17
ATOM     16  C   UNL     1       2.160   2.663  21.935  0.00  0.00    +0.000 C 
ATOM     17  C   UNL     1       2.251   3.504  20.659  0.00  0.00    +0.000 C 
ATOM     18  C   UNL     1       1.921   4.992  20.934  0.00  0.00    +0.000 C 
ATOM     19  O   UNL     1       0.542   4.786  20.520  0.00  0.00    +0.000 OA
ATOM     20  C   UNL     1       0.934   3.559  19.856  0.00  0.00    +0.000 C 
ENDBRANCH  12  17
ENDBRANCH   1  14
TORSDOF 3
ENDMDL
MODEL 6
REMARK VINA RESULT:      -6.5      1.100      1.341
REMARK  Name = 
REMARK  4 active torsions:
REMARK  status: ('A' for Active; 'I' for Inactive)
REMARK    1  A    between atoms: C_1  and  C_2
REMARK    2  A    between atoms: C_2  and  C_3
REMARK    3  A    between atoms: N_5  and  C_6
REMARK    4  A    between atoms: C_8  and  C_9
REMARK                            x       y       z     vdW  Elec       q    Type
REMARK                         _______ _______ _______ _____ _____    ______ ____
ROOT
ATOM      1  C   UNL     1       5.025   5.125  18.114  0.00  0.00    +0.000 C 
ATOM      2  C   UNL     1       6.111   4.249  17.464  0.00  0.00    +0.000 C 
ATOM      3  C   UNL     1       5.221   4.092  16.206  0.00  0.00    +0.000 C 
ATOM      4  C   UNL     1       4.343   5.253  16.739  0.00  0.00    +0.000 C 
ENDROOT
BRANCH   3   5
ATOM      5  C   UNL     1       5.917   4.240  14.778  0.00  0.00    +0.000 A 
ATOM      6  C   UNL     1       5.407   3.581  13.640  0.00  0.00    +0.000 A 
ATOM      7  C   UNL     1       6.020   3.680  12.386  0.00  0.00    +0.000 A 
ATOM      8  C   UNL     1       7.164   4.449  12.245  0.00  0.00    +0.000 A 
ATOM      9  F   UNL     1       7.759   4.541  11.048  0.00  0.00    +0.000 F 
ATOM     10  C   UNL     1       7.703   5.119  13.331  0.00  0.00    +0.000 A 
ATOM     11  C   UNL     1       7.083   5.013  14.580  0.00  0.00    +0.000 A 
ENDBRANCH   3   5
BRANCH   1  14
ATOM     12  C   UNL     1       2.837   4.313  19.017  0.00  0.00    +0.000 C 
ATOM     13  O   UNL     1       2.243   4.813  18.059  0.00  0.00    +0.000 OA
ATOM     14  N   UNL     1       4.215   4.442  19.146  0.00  0.00    +0.000 N 
ATOM     15  H   UNL     1       4.660   4.030  19.958  0.00  0.00    +0.000 HD
BRANCH  12  17
ATOM     16  C   UNL     1       0.801   2.892  19.728  0.00  0.00    +0.000 C 
ATOM     17  C   UNL     1       2.141   3.501  20.149  0.00  0.00    +0.000 C 
ATOM     18  C   UNL     1       3.030   2.466  20.882  0.00  0.00    +0.000 C 
ATOM     19  O   UNL     1       2.575   2.955  22.174  0.00  0.00    +0.000 OA
ATOM     20  C   UNL     1       2.110   4.172  21.539  0.00  0.00    +0.000 C 
ENDBRANCH  12  17
ENDBRANCH   1  14
TORSDOF 3
ENDMDL
MODEL 7
REMARK VINA RESULT:      -6.5      4.285      8.047
REMARK  Name = 
REMARK  4 active torsions:
REMARK  status: ('A' for Active; 'I' for Inactive)
REMARK    1  A    between atoms: C_1  and  C_2
REMARK    2  A    between atoms: C_2  and  C_3
REMARK    3  A    between atoms: N_5  and  C_6
REMARK    4  A    between atoms: C_8  and  C_9
REMARK                            x       y       z     vdW  Elec       q    Type
REMARK                         _______ _______ _______ _____ _____    ______ ____
ROOT
ATOM      1  C   UNL     1       5.116   4.242  16.470  0.00  0.00    +0.000 C 
ATOM      2  C   UNL     1       3.774   4.801  16.978  0.00  0.00    +0.000 C 
ATOM      3  C   UNL     1       3.351   3.375  17.409  0.00  0.00    +0.000 C 
ATOM      4  C   UNL     1       4.825   2.932  17.228  0.00  0.00    +0.000 C 
ENDROOT
BRANCH   3   5
ATOM      5  C   UNL     1       2.660   3.202  18.836  0.00  0.00    +0.000 A 
ATOM      6  C   UNL     1       3.412   2.870  19.982  0.00  0.00    +0.000 A 
ATOM      7  C   UNL     1       2.818   2.690  21.236  0.00  0.00    +0.000 A 
ATOM      8  C   UNL     1       1.447   2.842  21.369  0.00  0.00    +0.000 A 
ATOM      9  F   UNL     1       0.873   2.663  22.566  0.00  0.00    +0.000 F 
ATOM     10  C   UNL     1       0.664   3.172  20.275  0.00  0.00    +0.000 A 
ATOM     11  C   UNL     1       1.267   3.349  19.026  0.00  0.00    +0.000 A 
ENDBRANCH   3   5
BRANCH   1  14
ATOM     12  C   UNL     1       6.423   4.245  14.336  0.00  0.00    +0.000 C 
ATOM     13  O   UNL     1       7.447   4.551  14.950  0.00  0.00    +0.000 OA
ATOM     14  N   UNL     1       5.211   4.100  15.000  0.00  0.00    +0.000 N 
ATOM     15  H   UNL     1       4.391   3.864  14.455  0.00  0.00    +0.000 HD
BRANCH  12  17
ATOM     16  C   UNL     1       7.333   4.868  12.000  0.00  0.00    +0.000 C 
ATOM     17  C   UNL     1       6.368   3.989  12.801  0.00  0.00    +0.000 C 
ATOM     18  C   UNL     1       6.453   2.506  12.360  0.00  0.00    +0.000 C 
ATOM     19  O   UNL     1       5.315   2.681  11.470  0.00  0.00    +0.000 OA
ATOM     20  C   UNL     1       4.957   3.892  12.182  0.00  0.00    +0.000 C 
ENDBRANCH  12  17
ENDBRANCH   1  14
TORSDOF 3
ENDMDL
MODEL 8
REMARK VINA RESULT:      -6.5      1.167      1.908
REMARK  Name = 
REMARK  4 active torsions:
REMARK  status: ('A' for Active; 'I' for Inactive)
REMARK    1  A    between atoms: C_1  and  C_2
REMARK    2  A    between atoms: C_2  and  C_3
REMARK    3  A    between atoms: N_5  and  C_6
REMARK    4  A    between atoms: C_8  and  C_9
REMARK                            x       y       z     vdW  Elec       q    Type
REMARK                         _______ _______ _______ _____ _____    ______ ____
ROOT
ATOM      1  C   UNL     1       5.176   4.740  17.763  0.00  0.00    +0.000 C 
ATOM      2  C   UNL     1       6.478   4.248  17.102  0.00  0.00    +0.000 C 
ATOM      3  C   UNL     1       5.669   3.795  15.862  0.00  0.00    +0.000 C 
ATOM      4  C   UNL     1       4.472   4.621  16.398  0.00  0.00    +0.000 C 
ENDROOT
BRANCH   3   5
ATOM      5  C   UNL     1       6.261   4.135  14.421  0.00  0.00    +0.000 A 
ATOM      6  C   UNL     1       7.256   5.121  14.248  0.00  0.00    +0.000 A 
ATOM      7  C   UNL     1       7.769   5.449  12.989  0.00  0.00    +0.000 A 
ATOM      8  C   UNL     1       7.292   4.790  11.866  0.00  0.00    +0.000 A 
ATOM      9  F   UNL     1       7.774   5.105  10.657  0.00  0.00    +0.000 F 
ATOM     10  C   UNL     1       6.318   3.812  11.982  0.00  0.00    +0.000 A 
ATOM     11  C   UNL     1       5.812   3.491  13.246  0.00  0.00    +0.000 A 
ENDBRANCH   3   5
BRANCH   1  14
ATOM     12  C   UNL     1       3.456   4.144  19.479  0.00  0.00    +0.000 C 
ATOM     13  O   UNL     1       2.843   5.188  19.244  0.00  0.00    +0.000 OA
ATOM     14  N   UNL     1       4.641   3.850  18.816  0.00  0.00    +0.000 N 
ATOM     15  H   UNL     1       5.121   2.990  19.052  0.00  0.00    +0.000 HD
BRANCH  12  17
ATOM     16  C   UNL     1       4.094   2.086  20.903  0.00  0.00    +0.000 C 
ATOM     17  C   UNL     1       2.990   3.069  20.504  0.00  0.00    +0.000 C 
ATOM     18  C   UNL     1       2.230   3.603  21.744  0.00  0.00    +0.000 C 
ATOM     19  O   UNL     1       1.191   2.599  21.568  0.00  0.00    +0.000 OA
ATOM     20  C   UNL     1       1.635   2.392  20.204  0.00  0.00    +0.000 C 
ENDBRANCH  12  17
ENDBRANCH   1  14
TORSDOF 3
ENDMDL
MODEL 9
REMARK VINA RESULT:      -6.5      0.836      1.723
REMARK  Name = 
REMARK  4 active torsions:
REMARK  status: ('A' for Active; 'I' for Inactive)
REMARK    1  A    between atoms: C_1  and  C_2
REMARK    2  A    between atoms: C_2  and  C_3
REMARK    3  A    between atoms: N_5  and  C_6
REMARK    4  A    between atoms: C_8  and  C_9
REMARK                            x       y       z     vdW  Elec       q    Type
REMARK                         _______ _______ _______ _____ _____    ______ ____
ROOT
ATOM      1  C   UNL     1       5.057   4.029  18.058  0.00  0.00    +0.000 C 
ATOM      2  C   UNL     1       4.957   3.071  16.857  0.00  0.00    +0.000 C 
ATOM      3  C   UNL     1       4.812   4.287  15.909  0.00  0.00    +0.000 C 
ATOM      4  C   UNL     1       5.279   5.194  17.075  0.00  0.00    +0.000 C 
ENDROOT
BRANCH   3   5
ATOM      5  C   UNL     1       5.650   4.277  14.552  0.00  0.00    +0.000 A 
ATOM      6  C   UNL     1       6.853   5.004  14.425  0.00  0.00    +0.000 A 
ATOM      7  C   UNL     1       7.587   5.026  13.234  0.00  0.00    +0.000 A 
ATOM      8  C   UNL     1       7.129   4.313  12.137  0.00  0.00    +0.000 A 
ATOM      9  F   UNL     1       7.824   4.337  10.992  0.00  0.00    +0.000 F 
ATOM     10  C   UNL     1       5.956   3.580  12.211  0.00  0.00    +0.000 A 
ATOM     11  C   UNL     1       5.229   3.565  13.406  0.00  0.00    +0.000 A 
ENDBRANCH   3   5
BRANCH   1  14
ATOM     12  C   UNL     1       3.533   3.200  19.862  0.00  0.00    +0.000 C 
ATOM     13  O   UNL     1       4.268   2.227  20.051  0.00  0.00    +0.000 OA
ATOM     14  N   UNL     1       3.826   4.131  18.873  0.00  0.00    +0.000 N 
ATOM     15  H   UNL     1       3.187   4.905  18.740  0.00  0.00    +0.000 HD
BRANCH  12  17
ATOM     16  C   UNL     1       2.083   2.594  21.911  0.00  0.00    +0.000 C 
ATOM     17  C   UNL     1       2.241   3.491  20.680  0.00  0.00    +0.000 C 
ATOM     18  C   UNL     1       1.982   4.979  21.025  0.00  0.00    +0.000 C 
ATOM     19  O   UNL     1       0.602   4.866  20.578  0.00  0.00    +0.000 OA
ATOM     20  C   UNL     1       0.944   3.654  19.860  0.00  0.00    +0.000 C 
ENDBRANCH  12  17
ENDBRANCH   1  14
TORSDOF 3
ENDMDL
