MODEL 1
REMARK VINA RESULT:      -7.9      0.000      0.000
REMARK  Name = 
REMARK  7 active torsions:
REMARK  status: ('A' for Active; 'I' for Inactive)
REMARK    1  A    between atoms: C_1  and  N_2
REMARK    2  A    between atoms: C_5  and  N_6
REMARK    3  A    between atoms: C_7  and  C_9
REMARK    4  A    between atoms: C_11  and  C_12
REMARK    5  A    between atoms: C_17  and  N_18
REMARK    6  A    between atoms: N_18  and  C_19
REMARK    7  A    between atoms: C_25  and  C_26
REMARK                            x       y       z     vdW  Elec       q    Type
REMARK                         _______ _______ _______ _____ _____    ______ ____
ROOT
ATOM      1  N   UNL     1       3.917   7.197  17.992  0.00  0.00    +0.000 N 
ATOM      2  C   UNL     1       2.548   6.971  18.147  0.00  0.00    +0.000 C 
ATOM      3  O   UNL     1       1.904   6.110  17.557  0.00  0.00    +0.000 OA
ATOM      4  H   UNL     1       4.317   7.980  18.503  0.00  0.00    +0.000 HD
ENDROOT
BRANCH   1   9
ATOM      5  C   UNL     1       7.128   4.262  15.641  0.00  0.00    +0.000 C 
ATOM      6  N   UNL     1       6.121   5.237  16.003  0.00  0.00    +0.000 N 
ATOM      7  N   UNL     1       5.850   6.193  15.103  0.00  0.00    +0.000 NA
ATOM      8  C   UNL     1       4.992   6.980  15.737  0.00  0.00    +0.000 A 
ATOM      9  C   UNL     1       4.692   6.530  17.046  0.00  0.00    +0.000 A 
ATOM     10  C   UNL     1       5.395   5.336  17.184  0.00  0.00    +0.000 A 
BRANCH  10  11
ATOM     11  C   UNL     1       5.568   4.360  18.244  0.00  0.00    +0.000 C 
ATOM     12  O   UNL     1       6.639   4.263  18.849  0.00  0.00    +0.000 OA
ATOM     13  N   UNL     1       4.550   3.500  18.586  0.00  0.00    +0.000 N 
ATOM     14  C   UNL     1       4.685   2.328  19.449  0.00  0.00    +0.000 C 
ATOM     15  C   UNL     1       3.572   1.673  18.626  0.00  0.00    +0.000 C 
ATOM     16  F   UNL     1       3.958   0.682  17.785  0.00  0.00    +0.000 F 
ATOM     17  C   UNL     1       3.320   3.046  17.975  0.00  0.00    +0.000 C 
ENDBRANCH  10  11
ENDBRANCH   1   9
BRANCH   2  18
ATOM     18  C   UNL     1       1.839   7.909  19.066  0.00  0.00    +0.000 A 
ATOM     19  N   UNL     1       1.290   9.014  18.465  0.00  0.00    +0.000 NA
ATOM     20  C   UNL     1       0.543   9.815  19.268  0.00  0.00    +0.000 A 
ATOM     21  C   UNL     1       0.369   9.481  20.611  0.00  0.00    +0.000 A 
ATOM     22  N   UNL     1       0.942   8.410  21.209  0.00  0.00    +0.000 NA
ATOM     23  C   UNL     1       1.690   7.594  20.432  0.00  0.00    +0.000 A 
BRANCH  20  24
ATOM     24  C   UNL     1      -0.117  11.032  18.679  0.00  0.00    +0.000 C 
ATOM     25  C   UNL     1      -1.455  10.920  17.982  0.00  0.00    +0.000 C 
ATOM     26  C   UNL     1      -1.363  11.597  19.317  0.00  0.00    +0.000 C 
ENDBRANCH  20  24
BRANCH  23  27
ATOM     27  N   UNL     1       2.316   6.489  21.037  0.00  0.00    +0.000 N 
ATOM     28  H   UNL     1       3.284   6.672  21.306  0.00  0.00    +0.000 HD
BRANCH  27  29
ATOM     29  C   UNL     1       1.908   5.153  21.055  0.00  0.00    +0.000 A 
ATOM     30  C   UNL     1       2.523   4.192  21.843  0.00  0.00    +0.000 A 
ATOM     31  N   UNL     1       2.185   2.882  21.864  0.00  0.00    +0.000 NA
ATOM     32  C   UNL     1       1.178   2.528  21.056  0.00  0.00    +0.000 A 
ATOM     33  N   UNL     1       0.505   3.346  20.238  0.00  0.00    +0.000 NA
ATOM     34  C   UNL     1       0.904   4.638  20.252  0.00  0.00    +0.000 A 
ENDBRANCH  27  29
ENDBRANCH  23  27
ENDBRANCH   2  18
TORSDOF 6
ENDMDL
MODEL 2
REMARK VINA RESULT:      -7.5      2.886      5.615
REMARK  Name = 
REMARK  7 active torsions:
REMARK  status: ('A' for Active; 'I' for Inactive)
REMARK    1  A    between atoms: C_1  and  N_2
REMARK    2  A    between atoms: C_5  and  N_6
REMARK    3  A    between atoms: C_7  and  C_9
REMARK    4  A    between atoms: C_11  and  C_12
REMARK    5  A    between atoms: C_17  and  N_18
REMARK    6  A    between atoms: N_18  and  C_19
REMARK    7  A    between atoms: C_25  and  C_26
REMARK                            x       y       z     vdW  Elec       q    Type
REMARK                         _______ _______ _______ _____ _____    ______ ____
ROOT
ATOM      1  N   UNL     1       1.516   8.187  18.158  0.00  0.00    +0.000 N 
ATOM      2  C   UNL     1       1.558   9.568  17.960  0.00  0.00    +0.000 C 
ATOM      3  O   UNL     1       2.554  10.204  17.630  0.00  0.00    +0.000 OA
ATOM      4  H   UNL     1       0.636   7.793  18.482  0.00  0.00    +0.000 HD
ENDROOT
BRANCH   1   9
ATOM      5  C   UNL     1       5.080   4.881  19.066  0.00  0.00    +0.000 C 
ATOM      6  N   UNL     1       4.236   5.922  18.518  0.00  0.00    +0.000 N 
ATOM      7  N   UNL     1       4.800   6.759  17.635  0.00  0.00    +0.000 NA
ATOM      8  C   UNL     1       3.843   7.646  17.396  0.00  0.00    +0.000 A 
ATOM      9  C   UNL     1       2.651   7.381  18.114  0.00  0.00    +0.000 A 
ATOM     10  C   UNL     1       2.903   6.196  18.801  0.00  0.00    +0.000 A 
BRANCH  10  11
ATOM     11  C   UNL     1       2.155   5.364  19.725  0.00  0.00    +0.000 C 
ATOM     12  O   UNL     1       2.148   5.607  20.935  0.00  0.00    +0.000 OA
ATOM     13  N   UNL     1       1.455   4.266  19.280  0.00  0.00    +0.000 N 
ATOM     14  C   UNL     1       0.882   3.225  20.132  0.00  0.00    +0.000 C 
ATOM     15  C   UNL     1       1.134   2.239  18.988  0.00  0.00    +0.000 C 
ATOM     16  F   UNL     1       2.150   1.360  19.172  0.00  0.00    +0.000 F 
ATOM     17  C   UNL     1       1.446   3.449  18.087  0.00  0.00    +0.000 C 
ENDBRANCH  10  11
ENDBRANCH   1   9
BRANCH   2  18
ATOM     18  C   UNL     1       0.287  10.299  18.237  0.00  0.00    +0.000 A 
ATOM     19  N   UNL     1      -0.803   9.872  17.521  0.00  0.00    +0.000 NA
ATOM     20  C   UNL     1      -1.989  10.448  17.847  0.00  0.00    +0.000 A 
ATOM     21  C   UNL     1      -2.040  11.403  18.862  0.00  0.00    +0.000 A 
ATOM     22  N   UNL     1      -0.957  11.849  19.542  0.00  0.00    +0.000 NA
ATOM     23  C   UNL     1       0.237  11.290  19.238  0.00  0.00    +0.000 A 
BRANCH  20  24
ATOM     24  C   UNL     1      -3.236  10.012  17.127  0.00  0.00    +0.000 C 
ATOM     25  C   UNL     1      -3.934  10.946  16.163  0.00  0.00    +0.000 C 
ATOM     26  C   UNL     1      -3.196   9.749  15.641  0.00  0.00    +0.000 C 
ENDBRANCH  20  24
BRANCH  23  27
ATOM     27  N   UNL     1       1.380  11.757  19.913  0.00  0.00    +0.000 N 
ATOM     28  H   UNL     1       1.578  11.243  20.774  0.00  0.00    +0.000 HD
BRANCH  27  29
ATOM     29  C   UNL     1       2.078  12.953  19.730  0.00  0.00    +0.000 A 
ATOM     30  C   UNL     1       2.617  13.676  20.783  0.00  0.00    +0.000 A 
ATOM     31  N   UNL     1       3.267  14.856  20.654  0.00  0.00    +0.000 NA
ATOM     32  C   UNL     1       3.383  15.322  19.405  0.00  0.00    +0.000 A 
ATOM     33  N   UNL     1       2.904  14.737  18.301  0.00  0.00    +0.000 NA
ATOM     34  C   UNL     1       2.249  13.570  18.501  0.00  0.00    +0.000 A 
ENDBRANCH  27  29
ENDBRANCH  23  27
ENDBRANCH   2  18
TORSDOF 6
ENDMDL
MODEL 3
REMARK VINA RESULT:      -7.5      0.829      1.260
REMARK  Name = 
REMARK  7 active torsions:
REMARK  status: ('A' for Active; 'I' for Inactive)
REMARK    1  A    between atoms: C_1  and  N_2
REMARK    2  A    between atoms: C_5  and  N_6
REMARK    3  A    between atoms: C_7  and  C_9
REMARK    4  A    between atoms: C_11  and  C_12
REMARK    5  A    between atoms: C_17  and  N_18
REMARK    6  A    between atoms: N_18  and  C_19
REMARK    7  A    between atoms: C_25  and  C_26
REMARK                            x       y       z     vdW  Elec       q    Type
REMARK                         _______ _______ _______ _____ _____    ______ ____
ROOT
ATOM      1  N   UNL     1       3.237   6.946  18.360  0.00  0.00    +0.000 N 
ATOM      2  C   UNL     1       2.484   8.100  18.135  0.00  0.00    +0.000 C 
ATOM      3  O   UNL     1       2.527   8.784  17.118  0.00  0.00    +0.000 OA
ATOM      4  H   UNL     1       3.143   6.503  19.270  0.00  0.00    +0.000 HD
ENDROOT
BRANCH   1   9
ATOM      5  C   UNL     1       7.145   4.770  16.252  0.00  0.00    +0.000 C 
ATOM      6  N   UNL     1       5.960   5.546  16.548  0.00  0.00    +0.000 N 
ATOM      7  N   UNL     1       5.664   6.547  15.705  0.00  0.00    +0.000 NA
ATOM      8  C   UNL     1       4.618   7.130  16.274  0.00  0.00    +0.000 A 
ATOM      9  C   UNL     1       4.223   6.503  17.482  0.00  0.00    +0.000 A 
ATOM     10  C   UNL     1       5.080   5.413  17.615  0.00  0.00    +0.000 A 
BRANCH  10  11
ATOM     11  C   UNL     1       5.262   4.362  18.600  0.00  0.00    +0.000 C 
ATOM     12  O   UNL     1       6.278   4.317  19.299  0.00  0.00    +0.000 OA
ATOM     13  N   UNL     1       4.319   3.374  18.762  0.00  0.00    +0.000 N 
ATOM     14  C   UNL     1       4.504   2.144  19.530  0.00  0.00    +0.000 C 
ATOM     15  C   UNL     1       3.551   1.460  18.545  0.00  0.00    +0.000 C 
ATOM     16  F   UNL     1       4.121   0.600  17.666  0.00  0.00    +0.000 F 
ATOM     17  C   UNL     1       3.208   2.857  17.993  0.00  0.00    +0.000 C 
ENDBRANCH  10  11
ENDBRANCH   1   9
BRANCH   2  18
ATOM     18  C   UNL     1       1.614   8.534  19.267  0.00  0.00    +0.000 A 
ATOM     19  N   UNL     1       0.878   9.669  19.039  0.00  0.00    +0.000 NA
ATOM     20  C   UNL     1      -0.004  10.010  20.013  0.00  0.00    +0.000 A 
ATOM     21  C   UNL     1      -0.120   9.213  21.152  0.00  0.00    +0.000 A 
ATOM     22  N   UNL     1       0.634   8.114  21.392  0.00  0.00    +0.000 NA
ATOM     23  C   UNL     1       1.519   7.751  20.436  0.00  0.00    +0.000 A 
BRANCH  20  24
ATOM     24  C   UNL     1      -0.869  11.227  19.825  0.00  0.00    +0.000 C 
ATOM     25  C   UNL     1      -0.327  12.609  20.114  0.00  0.00    +0.000 C 
ATOM     26  C   UNL     1      -0.582  12.188  18.697  0.00  0.00    +0.000 C 
ENDBRANCH  20  24
BRANCH  23  27
ATOM     27  N   UNL     1       2.331   6.628  20.674  0.00  0.00    +0.000 N 
ATOM     28  H   UNL     1       3.324   6.807  20.519  0.00  0.00    +0.000 HD
BRANCH  27  29
ATOM     29  C   UNL     1       1.956   5.288  20.806  0.00  0.00    +0.000 A 
ATOM     30  C   UNL     1       0.948   4.713  20.048  0.00  0.00    +0.000 A 
ATOM     31  N   UNL     1       0.528   3.432  20.168  0.00  0.00    +0.000 NA
ATOM     32  C   UNL     1       1.159   2.699  21.093  0.00  0.00    +0.000 A 
ATOM     33  N   UNL     1       2.138   3.125  21.900  0.00  0.00    +0.000 NA
ATOM     34  C   UNL     1       2.498   4.419  21.740  0.00  0.00    +0.000 A 
ENDBRANCH  27  29
ENDBRANCH  23  27
ENDBRANCH   2  18
TORSDOF 6
ENDMDL
MODEL 4
REMARK VINA RESULT:      -7.2      2.838      5.593
REMARK  Name = 
REMARK  7 active torsions:
REMARK  status: ('A' for Active; 'I' for Inactive)
REMARK    1  A    between atoms: C_1  and  N_2
REMARK    2  A    between atoms: C_5  and  N_6
REMARK    3  A    between atoms: C_7  and  C_9
REMARK    4  A    between atoms: C_11  and  C_12
REMARK    5  A    between atoms: C_17  and  N_18
REMARK    6  A    between atoms: N_18  and  C_19
REMARK    7  A    between atoms: C_25  and  C_26
REMARK                            x       y       z     vdW  Elec       q    Type
REMARK                         _______ _______ _______ _____ _____    ______ ____
ROOT
ATOM      1  N   UNL     1       1.929   8.512  17.723  0.00  0.00    +0.000 N 
ATOM      2  C   UNL     1       1.475   9.236  18.826  0.00  0.00    +0.000 C 
ATOM      3  O   UNL     1       1.966   9.192  19.949  0.00  0.00    +0.000 OA
ATOM      4  H   UNL     1       1.397   8.601  16.861  0.00  0.00    +0.000 HD
ENDROOT
BRANCH   1   9
ATOM      5  C   UNL     1       4.909   4.803  19.073  0.00  0.00    +0.000 C 
ATOM      6  N   UNL     1       4.263   5.916  18.409  0.00  0.00    +0.000 N 
ATOM      7  N   UNL     1       5.002   6.610  17.530  0.00  0.00    +0.000 NA
ATOM      8  C   UNL     1       4.202   7.605  17.172  0.00  0.00    +0.000 A 
ATOM      9  C   UNL     1       2.936   7.554  17.808  0.00  0.00    +0.000 A 
ATOM     10  C   UNL     1       2.967   6.390  18.573  0.00  0.00    +0.000 A 
BRANCH  10  11
ATOM     11  C   UNL     1       2.045   5.729  19.478  0.00  0.00    +0.000 C 
ATOM     12  O   UNL     1       1.849   6.167  20.615  0.00  0.00    +0.000 OA
ATOM     13  N   UNL     1       1.385   4.582  19.101  0.00  0.00    +0.000 N 
ATOM     14  C   UNL     1       0.638   3.702  19.998  0.00  0.00    +0.000 C 
ATOM     15  C   UNL     1       1.035   2.539  19.084  0.00  0.00    +0.000 C 
ATOM     16  F   UNL     1       1.971   1.689  19.574  0.00  0.00    +0.000 F 
ATOM     17  C   UNL     1       1.540   3.582  18.068  0.00  0.00    +0.000 C 
ENDBRANCH  10  11
ENDBRANCH   1   9
BRANCH   2  18
ATOM     18  C   UNL     1       0.262  10.073  18.594  0.00  0.00    +0.000 A 
ATOM     19  N   UNL     1      -0.655   9.545  17.720  0.00  0.00    +0.000 NA
ATOM     20  C   UNL     1      -1.816  10.238  17.589  0.00  0.00    +0.000 A 
ATOM     21  C   UNL     1      -2.015  11.403  18.330  0.00  0.00    +0.000 A 
ATOM     22  N   UNL     1      -1.093  11.941  19.164  0.00  0.00    +0.000 NA
ATOM     23  C   UNL     1       0.071  11.270  19.314  0.00  0.00    +0.000 A 
BRANCH  20  24
ATOM     24  C   UNL     1      -2.885   9.710  16.671  0.00  0.00    +0.000 C 
ATOM     25  C   UNL     1      -3.786  10.659  15.913  0.00  0.00    +0.000 C 
ATOM     26  C   UNL     1      -2.742   9.872  15.177  0.00  0.00    +0.000 C 
ENDBRANCH  20  24
BRANCH  23  27
ATOM     27  N   UNL     1       1.054  11.823  20.155  0.00  0.00    +0.000 N 
ATOM     28  H   UNL     1       0.967  11.525  21.128  0.00  0.00    +0.000 HD
BRANCH  27  29
ATOM     29  C   UNL     1       1.912  12.899  19.911  0.00  0.00    +0.000 A 
ATOM     30  C   UNL     1       2.549  13.088  18.695  0.00  0.00    +0.000 A 
ATOM     31  N   UNL     1       3.415  14.093  18.427  0.00  0.00    +0.000 NA
ATOM     32  C   UNL     1       3.643  14.947  19.432  0.00  0.00    +0.000 A 
ATOM     33  N   UNL     1       3.107  14.879  20.657  0.00  0.00    +0.000 NA
ATOM     34  C   UNL     1       2.264  13.841  20.863  0.00  0.00    +0.000 A 
ENDBRANCH  27  29
ENDBRANCH  23  27
ENDBRANCH   2  18
TORSDOF 6
ENDMDL
MODEL 5
REMARK VINA RESULT:      -7.1      2.339      4.416
REMARK  Name = 
REMARK  7 active torsions:
REMARK  status: ('A' for Active; 'I' for Inactive)
REMARK    1  A    between atoms: C_1  and  N_2
REMARK    2  A    between atoms: C_5  and  N_6
REMARK    3  A    between atoms: C_7  and  C_9
REMARK    4  A    between atoms: C_11  and  C_12
REMARK    5  A    between atoms: C_17  and  N_18
REMARK    6  A    between atoms: N_18  and  C_19
REMARK    7  A    between atoms: C_25  and  C_26
REMARK                            x       y       z     vdW  Elec       q    Type
REMARK                         _______ _______ _______ _____ _____    ______ ____
ROOT
ATOM      1  N   UNL     1       1.247   8.085  17.787  0.00  0.00    +0.000 N 
ATOM      2  C   UNL     1       1.150   9.474  17.886  0.00  0.00    +0.000 C 
ATOM      3  O   UNL     1       2.101  10.242  17.991  0.00  0.00    +0.000 OA
ATOM      4  H   UNL     1       0.376   7.562  17.758  0.00  0.00    +0.000 HD
ENDROOT
BRANCH   1   9
ATOM      5  C   UNL     1       4.996   5.231  19.289  0.00  0.00    +0.000 C 
ATOM      6  N   UNL     1       4.119   6.141  18.584  0.00  0.00    +0.000 N 
ATOM      7  N   UNL     1       4.690   6.972  17.699  0.00  0.00    +0.000 NA
ATOM      8  C   UNL     1       3.683   7.738  17.301  0.00  0.00    +0.000 A 
ATOM      9  C   UNL     1       2.452   7.399  17.916  0.00  0.00    +0.000 A 
ATOM     10  C   UNL     1       2.743   6.294  18.712  0.00  0.00    +0.000 A 
BRANCH  10  11
ATOM     11  C   UNL     1       1.985   5.452  19.619  0.00  0.00    +0.000 C 
ATOM     12  O   UNL     1       1.876   5.742  20.813  0.00  0.00    +0.000 OA
ATOM     13  N   UNL     1       1.391   4.292  19.176  0.00  0.00    +0.000 N 
ATOM     14  C   UNL     1       0.825   3.251  20.031  0.00  0.00    +0.000 C 
ATOM     15  C   UNL     1       1.221   2.238  18.953  0.00  0.00    +0.000 C 
ATOM     16  F   UNL     1       2.275   1.438  19.247  0.00  0.00    +0.000 F 
ATOM     17  C   UNL     1       1.520   3.429  18.023  0.00  0.00    +0.000 C 
ENDBRANCH  10  11
ENDBRANCH   1   9
BRANCH   2  18
ATOM     18  C   UNL     1      -0.236  10.023  17.921  0.00  0.00    +0.000 A 
ATOM     19  N   UNL     1      -1.026   9.689  16.850  0.00  0.00    +0.000 NA
ATOM     20  C   UNL     1      -2.324  10.084  16.924  0.00  0.00    +0.000 A 
ATOM     21  C   UNL     1      -2.774  10.775  18.049  0.00  0.00    +0.000 A 
ATOM     22  N   UNL     1      -1.984  11.135  19.088  0.00  0.00    +0.000 NA
ATOM     23  C   UNL     1      -0.688  10.753  19.040  0.00  0.00    +0.000 A 
BRANCH  20  24
ATOM     24  C   UNL     1      -3.262   9.731  15.802  0.00  0.00    +0.000 C 
ATOM     25  C   UNL     1      -3.862  10.812  14.932  0.00  0.00    +0.000 C 
ATOM     26  C   UNL     1      -2.818   9.895  14.369  0.00  0.00    +0.000 C 
ENDBRANCH  20  24
BRANCH  23  27
ATOM     27  N   UNL     1       0.158  11.138  20.096  0.00  0.00    +0.000 N 
ATOM     28  H   UNL     1       0.903  11.774  19.805  0.00  0.00    +0.000 HD
BRANCH  27  29
ATOM     29  C   UNL     1       0.288  10.571  21.366  0.00  0.00    +0.000 A 
ATOM     30  C   UNL     1       1.341   9.738  21.711  0.00  0.00    +0.000 A 
ATOM     31  N   UNL     1       1.485   9.138  22.916  0.00  0.00    +0.000 NA
ATOM     32  C   UNL     1       0.526   9.396  23.813  0.00  0.00    +0.000 A 
ATOM     33  N   UNL     1      -0.548  10.169  23.612  0.00  0.00    +0.000 NA
ATOM     34  C   UNL     1      -0.641  10.724  22.382  0.00  0.00    +0.000 A 
ENDBRANCH  27  29
ENDBRANCH  23  27
ENDBRANCH   2  18
TORSDOF 6
ENDMDL
MODEL 6
REMARK VINA RESULT:      -7.1      3.631      8.168
REMARK  Name = 
REMARK  7 active torsions:
REMARK  status: ('A' for Active; 'I' for Inactive)
REMARK    1  A    between atoms: C_1  and  N_2
REMARK    2  A    between atoms: C_5  and  N_6
REMARK    3  A    between atoms: C_7  and  C_9
REMARK    4  A    between atoms: C_11  and  C_12
REMARK    5  A    between atoms: C_17  and  N_18
REMARK    6  A    between atoms: N_18  and  C_19
REMARK    7  A    between atoms: C_25  and  C_26
REMARK                            x       y       z     vdW  Elec       q    Type
REMARK                         _______ _______ _______ _____ _____    ______ ____
ROOT
ATOM      1  N   UNL     1       1.367   8.649  19.194  0.00  0.00    +0.000 N 
ATOM      2  C   UNL     1       2.240   7.981  18.333  0.00  0.00    +0.000 C 
ATOM      3  O   UNL     1       2.505   8.328  17.187  0.00  0.00    +0.000 OA
ATOM      4  H   UNL     1       1.197   8.223  20.101  0.00  0.00    +0.000 HD
ENDROOT
BRANCH   1   9
ATOM      5  C   UNL     1      -0.995  12.982  18.879  0.00  0.00    +0.000 C 
ATOM      6  N   UNL     1      -0.455  11.657  18.658  0.00  0.00    +0.000 N 
ATOM      7  N   UNL     1      -1.078  10.892  17.750  0.00  0.00    +0.000 NA
ATOM      8  C   UNL     1      -0.445   9.730  17.839  0.00  0.00    +0.000 A 
ATOM      9  C   UNL     1       0.599   9.741  18.796  0.00  0.00    +0.000 A 
ATOM     10  C   UNL     1       0.625  11.046  19.282  0.00  0.00    +0.000 A 
BRANCH  10  11
ATOM     11  C   UNL     1       1.408  11.758  20.275  0.00  0.00    +0.000 C 
ATOM     12  O   UNL     1       1.250  11.545  21.480  0.00  0.00    +0.000 OA
ATOM     13  N   UNL     1       2.329  12.709  19.900  0.00  0.00    +0.000 N 
ATOM     14  C   UNL     1       2.985  13.655  20.801  0.00  0.00    +0.000 C 
ATOM     15  C   UNL     1       3.025  14.643  19.632  0.00  0.00    +0.000 C 
ATOM     16  F   UNL     1       2.163  15.687  19.706  0.00  0.00    +0.000 F 
ATOM     17  C   UNL     1       2.601  13.484  18.710  0.00  0.00    +0.000 C 
ENDBRANCH  10  11
ENDBRANCH   1   9
BRANCH   2  18
ATOM     18  C   UNL     1       2.831   6.718  18.865  0.00  0.00    +0.000 A 
ATOM     19  N   UNL     1       2.135   6.134  19.894  0.00  0.00    +0.000 NA
ATOM     20  C   UNL     1       2.595   4.926  20.309  0.00  0.00    +0.000 A 
ATOM     21  C   UNL     1       3.706   4.356  19.687  0.00  0.00    +0.000 A 
ATOM     22  N   UNL     1       4.412   4.952  18.697  0.00  0.00    +0.000 NA
ATOM     23  C   UNL     1       3.974   6.155  18.263  0.00  0.00    +0.000 A 
BRANCH  20  24
ATOM     24  C   UNL     1       1.869   4.206  21.414  0.00  0.00    +0.000 C 
ATOM     25  C   UNL     1       1.016   2.994  21.112  0.00  0.00    +0.000 C 
ATOM     26  C   UNL     1       2.318   2.828  21.837  0.00  0.00    +0.000 C 
ENDBRANCH  20  24
BRANCH  23  27
ATOM     27  N   UNL     1       4.707   6.805  17.253  0.00  0.00    +0.000 N 
ATOM     28  H   UNL     1       4.414   7.771  17.099  0.00  0.00    +0.000 HD
BRANCH  27  29
ATOM     29  C   UNL     1       5.544   6.248  16.282  0.00  0.00    +0.000 A 
ATOM     30  C   UNL     1       5.061   5.524  15.203  0.00  0.00    +0.000 A 
ATOM     31  N   UNL     1       5.836   4.937  14.261  0.00  0.00    +0.000 NA
ATOM     32  C   UNL     1       7.156   5.094  14.414  0.00  0.00    +0.000 A 
ATOM     33  N   UNL     1       7.758   5.756  15.410  0.00  0.00    +0.000 NA
ATOM     34  C   UNL     1       6.927   6.304  16.327  0.00  0.00    +0.000 A 
ENDBRANCH  27  29
ENDBRANCH  23  27
ENDBRANCH   2  18
TORSDOF 6
ENDMDL
MODEL 7
REMARK VINA RESULT:      -7.0      5.897     10.538
REMARK  Name = 
REMARK  7 active torsions:
REMARK  status: ('A' for Active; 'I' for Inactive)
REMARK    1  A    between atoms: C_1  and  N_2
REMARK    2  A    between atoms: C_5  and  N_6
REMARK    3  A    between atoms: C_7  and  C_9
REMARK    4  A    between atoms: C_11  and  C_12
REMARK    5  A    between atoms: C_17  and  N_18
REMARK    6  A    between atoms: N_18  and  C_19
REMARK    7  A    between atoms: C_25  and  C_26
REMARK                            x       y       z     vdW  Elec       q    Type
REMARK                         _______ _______ _______ _____ _____    ______ ____
ROOT
ATOM      1  N   UNL     1      -2.251  12.276  21.310  0.00  0.00    +0.000 N 
ATOM      2  C   UNL     1      -1.916  12.681  20.017  0.00  0.00    +0.000 C 
ATOM      3  O   UNL     1      -1.252  13.674  19.737  0.00  0.00    +0.000 OA
ATOM      4  H   UNL     1      -2.853  11.462  21.398  0.00  0.00    +0.000 HD
ENDROOT
BRANCH   1   9
ATOM      5  C   UNL     1      -2.453  15.029  25.413  0.00  0.00    +0.000 C 
ATOM      6  N   UNL     1      -2.046  14.263  24.254  0.00  0.00    +0.000 N 
ATOM      7  N   UNL     1      -0.799  14.462  23.802  0.00  0.00    +0.000 NA
ATOM      8  C   UNL     1      -0.749  13.726  22.700  0.00  0.00    +0.000 A 
ATOM      9  C   UNL     1      -1.959  13.036  22.440  0.00  0.00    +0.000 A 
ATOM     10  C   UNL     1      -2.786  13.347  23.516  0.00  0.00    +0.000 A 
BRANCH  10  11
ATOM     11  C   UNL     1      -4.147  13.016  23.897  0.00  0.00    +0.000 C 
ATOM     12  O   UNL     1      -4.390  12.019  24.582  0.00  0.00    +0.000 OA
ATOM     13  N   UNL     1      -5.206  13.791  23.482  0.00  0.00    +0.000 N 
ATOM     14  C   UNL     1      -6.617  13.424  23.588  0.00  0.00    +0.000 C 
ATOM     15  C   UNL     1      -6.859  14.237  22.313  0.00  0.00    +0.000 C 
ATOM     16  F   UNL     1      -7.103  13.521  21.188  0.00  0.00    +0.000 F 
ATOM     17  C   UNL     1      -5.428  14.790  22.461  0.00  0.00    +0.000 C 
ENDBRANCH  10  11
ENDBRANCH   1   9
BRANCH   2  18
ATOM     18  C   UNL     1      -2.477  11.848  18.914  0.00  0.00    +0.000 A 
ATOM     19  N   UNL     1      -3.840  11.908  18.769  0.00  0.00    +0.000 NA
ATOM     20  C   UNL     1      -4.353  11.248  17.699  0.00  0.00    +0.000 A 
ATOM     21  C   UNL     1      -3.498  10.575  16.825  0.00  0.00    +0.000 A 
ATOM     22  N   UNL     1      -2.157  10.487  16.991  0.00  0.00    +0.000 NA
ATOM     23  C   UNL     1      -1.621  11.137  18.049  0.00  0.00    +0.000 A 
BRANCH  20  24
ATOM     24  C   UNL     1      -5.837  11.290  17.454  0.00  0.00    +0.000 C 
ATOM     25  C   UNL     1      -6.808  10.900  18.547  0.00  0.00    +0.000 C 
ATOM     26  C   UNL     1      -6.684  12.337  18.136  0.00  0.00    +0.000 C 
ENDBRANCH  20  24
BRANCH  23  27
ATOM     27  N   UNL     1      -0.233  11.037  18.255  0.00  0.00    +0.000 N 
ATOM     28  H   UNL     1       0.303  11.739  17.742  0.00  0.00    +0.000 HD
BRANCH  27  29
ATOM     29  C   UNL     1       0.498   9.982  18.808  0.00  0.00    +0.000 A 
ATOM     30  C   UNL     1       0.387   9.610  20.139  0.00  0.00    +0.000 A 
ATOM     31  N   UNL     1       1.101   8.619  20.723  0.00  0.00    +0.000 NA
ATOM     32  C   UNL     1       1.961   7.975  19.927  0.00  0.00    +0.000 A 
ATOM     33  N   UNL     1       2.178   8.235  18.632  0.00  0.00    +0.000 NA
ATOM     34  C   UNL     1       1.445   9.247  18.114  0.00  0.00    +0.000 A 
ENDBRANCH  27  29
ENDBRANCH  23  27
ENDBRANCH   2  18
TORSDOF 6
ENDMDL
MODEL 8
REMARK VINA RESULT:      -6.9      3.135      5.867
REMARK  Name = 
REMARK  7 active torsions:
REMARK  status: ('A' for Active; 'I' for Inactive)
REMARK    1  A    between atoms: C_1  and  N_2
REMARK    2  A    between atoms: C_5  and  N_6
REMARK    3  A    between atoms: C_7  and  C_9
REMARK    4  A    between atoms: C_11  and  C_12
REMARK    5  A    between atoms: C_17  and  N_18
REMARK    6  A    between atoms: N_18  and  C_19
REMARK    7  A    between atoms: C_25  and  C_26
REMARK                            x       y       z     vdW  Elec       q    Type
REMARK                         _______ _______ _______ _____ _____    ______ ____
ROOT
ATOM      1  N   UNL     1       2.550   7.720  18.702  0.00  0.00    +0.000 N 
ATOM      2  C   UNL     1       2.083   8.935  18.199  0.00  0.00    +0.000 C 
ATOM      3  O   UNL     1       2.225   9.323  17.044  0.00  0.00    +0.000 OA
ATOM      4  H   UNL     1       2.410   7.546  19.694  0.00  0.00    +0.000 HD
ENDROOT
BRANCH   1   9
ATOM      5  C   UNL     1       4.727   3.765  16.684  0.00  0.00    +0.000 C 
ATOM      6  N   UNL     1       4.318   5.098  17.071  0.00  0.00    +0.000 N 
ATOM      7  N   UNL     1       5.182   6.094  16.824  0.00  0.00    +0.000 NA
ATOM      8  C   UNL     1       4.597   7.152  17.369  0.00  0.00    +0.000 A 
ATOM      9  C   UNL     1       3.346   6.850  17.961  0.00  0.00    +0.000 A 
ATOM     10  C   UNL     1       3.142   5.498  17.695  0.00  0.00    +0.000 A 
BRANCH  10  11
ATOM     11  C   UNL     1       2.105   4.533  18.010  0.00  0.00    +0.000 C 
ATOM     12  O   UNL     1       1.026   4.543  17.411  0.00  0.00    +0.000 OA
ATOM     13  N   UNL     1       2.287   3.597  19.002  0.00  0.00    +0.000 N 
ATOM     14  C   UNL     1       1.240   2.752  19.572  0.00  0.00    +0.000 C 
ATOM     15  C   UNL     1       2.014   2.791  20.893  0.00  0.00    +0.000 C 
ATOM     16  F   UNL     1       1.472   3.548  21.878  0.00  0.00    +0.000 F 
ATOM     17  C   UNL     1       3.186   3.428  20.122  0.00  0.00    +0.000 C 
ENDBRANCH  10  11
ENDBRANCH   1   9
BRANCH   2  18
ATOM     18  C   UNL     1       1.414   9.829  19.189  0.00  0.00    +0.000 A 
ATOM     19  N   UNL     1       0.710   9.187  20.177  0.00  0.00    +0.000 NA
ATOM     20  C   UNL     1       0.194   9.981  21.150  0.00  0.00    +0.000 A 
ATOM     21  C   UNL     1       0.406  11.359  21.104  0.00  0.00    +0.000 A 
ATOM     22  N   UNL     1       1.070  11.994  20.109  0.00  0.00    +0.000 NA
ATOM     23  C   UNL     1       1.595  11.226  19.128  0.00  0.00    +0.000 A 
BRANCH  20  24
ATOM     24  C   UNL     1      -0.567   9.349  22.284  0.00  0.00    +0.000 C 
ATOM     25  C   UNL     1       0.012   9.330  23.682  0.00  0.00    +0.000 C 
ATOM     26  C   UNL     1      -1.157  10.216  23.370  0.00  0.00    +0.000 C 
ENDBRANCH  20  24
BRANCH  23  27
ATOM     27  N   UNL     1       2.266  11.866  18.070  0.00  0.00    +0.000 N 
ATOM     28  H   UNL     1       2.526  11.231  17.314  0.00  0.00    +0.000 HD
BRANCH  27  29
ATOM     29  C   UNL     1       2.855  13.133  18.045  0.00  0.00    +0.000 A 
ATOM     30  C   UNL     1       2.113  14.304  18.025  0.00  0.00    +0.000 A 
ATOM     31  N   UNL     1       2.640  15.549  17.963  0.00  0.00    +0.000 NA
ATOM     32  C   UNL     1       3.976  15.613  17.925  0.00  0.00    +0.000 A 
ATOM     33  N   UNL     1       4.813  14.568  17.929  0.00  0.00    +0.000 NA
ATOM     34  C   UNL     1       4.221  13.352  17.974  0.00  0.00    +0.000 A 
ENDBRANCH  27  29
ENDBRANCH  23  27
ENDBRANCH   2  18
TORSDOF 6
ENDMDL
MODEL 9
REMARK VINA RESULT:      -6.8      2.839      5.501
REMARK  Name = 
REMARK  7 active torsions:
REMARK  status: ('A' for Active; 'I' for Inactive)
REMARK    1  A    between atoms: C_1  and  N_2
REMARK    2  A    between atoms: C_5  and  N_6
REMARK    3  A    between atoms: C_7  and  C_9
REMARK    4  A    between atoms: C_11  and  C_12
REMARK    5  A    between atoms: C_17  and  N_18
REMARK    6  A    between atoms: N_18  and  C_19
REMARK    7  A    between atoms: C_25  and  C_26
REMARK                            x       y       z     vdW  Elec       q    Type
REMARK                         _______ _______ _______ _____ _____    ______ ____
ROOT
ATOM      1  N   UNL     1       1.473   8.465  17.760  0.00  0.00    +0.000 N 
ATOM      2  C   UNL     1       1.204   9.507  18.648  0.00  0.00    +0.000 C 
ATOM      3  O   UNL     1       1.953   9.883  19.544  0.00  0.00    +0.000 OA
ATOM      4  H   UNL     1       0.741   8.222  17.098  0.00  0.00    +0.000 HD
ENDROOT
BRANCH   1   9
ATOM      5  C   UNL     1       4.912   5.224  19.218  0.00  0.00    +0.000 C 
ATOM      6  N   UNL     1       4.124   6.217  18.519  0.00  0.00    +0.000 N 
ATOM      7  N   UNL     1       4.761   6.961  17.602  0.00  0.00    +0.000 NA
ATOM      8  C   UNL     1       3.838   7.831  17.216  0.00  0.00    +0.000 A 
ATOM      9  C   UNL     1       2.595   7.647  17.870  0.00  0.00    +0.000 A 
ATOM     10  C   UNL     1       2.780   6.530  18.681  0.00  0.00    +0.000 A 
BRANCH  10  11
ATOM     11  C   UNL     1       1.957   5.796  19.625  0.00  0.00    +0.000 C 
ATOM     12  O   UNL     1       1.770   6.221  20.768  0.00  0.00    +0.000 OA
ATOM     13  N   UNL     1       1.384   4.594  19.279  0.00  0.00    +0.000 N 
ATOM     14  C   UNL     1       0.755   3.657  20.207  0.00  0.00    +0.000 C 
ATOM     15  C   UNL     1       1.215   2.528  19.280  0.00  0.00    +0.000 C 
ATOM     16  F   UNL     1       2.241   1.766  19.733  0.00  0.00    +0.000 F 
ATOM     17  C   UNL     1       1.584   3.605  18.242  0.00  0.00    +0.000 C 
ENDBRANCH  10  11
ENDBRANCH   1   9
BRANCH   2  18
ATOM     18  C   UNL     1      -0.134  10.151  18.502  0.00  0.00    +0.000 A 
ATOM     19  N   UNL     1      -0.888   9.703  17.446  0.00  0.00    +0.000 NA
ATOM     20  C   UNL     1      -2.151  10.194  17.369  0.00  0.00    +0.000 A 
ATOM     21  C   UNL     1      -2.607  11.089  18.336  0.00  0.00    +0.000 A 
ATOM     22  N   UNL     1      -1.850  11.558  19.356  0.00  0.00    +0.000 NA
ATOM     23  C   UNL     1      -0.588  11.083  19.457  0.00  0.00    +0.000 A 
BRANCH  20  24
ATOM     24  C   UNL     1      -3.051   9.729  16.256  0.00  0.00    +0.000 C 
ATOM     25  C   UNL     1      -3.897  10.719  15.486  0.00  0.00    +0.000 C 
ATOM     26  C   UNL     1      -2.717  10.072  14.824  0.00  0.00    +0.000 C 
ENDBRANCH  20  24
BRANCH  23  27
ATOM     27  N   UNL     1       0.227  11.576  20.494  0.00  0.00    +0.000 N 
ATOM     28  H   UNL     1       1.100  11.057  20.602  0.00  0.00    +0.000 HD
BRANCH  27  29
ATOM     29  C   UNL     1      -0.109  12.449  21.532  0.00  0.00    +0.000 A 
ATOM     30  C   UNL     1      -0.997  12.108  22.540  0.00  0.00    +0.000 A 
ATOM     31  N   UNL     1      -1.379  12.934  23.543  0.00  0.00    +0.000 NA
ATOM     32  C   UNL     1      -0.834  14.156  23.527  0.00  0.00    +0.000 A 
ATOM     33  N   UNL     1       0.025  14.621  22.613  0.00  0.00    +0.000 NA
ATOM     34  C   UNL     1       0.351  13.752  21.629  0.00  0.00    +0.000 A 
ENDBRANCH  27  29
ENDBRANCH  23  27
ENDBRANCH   2  18
TORSDOF 6
ENDMDL
