MODEL 1
REMARK VINA RESULT:      -8.2      0.000      0.000
REMARK  Name = 
REMARK  13 active torsions:
REMARK  status: ('A' for Active; 'I' for Inactive)
REMARK    1  A    between atoms: C_1  and  C_2
REMARK    2  A    between atoms: C_2  and  C_3
REMARK    3  A    between atoms: C_2  and  C_4
REMARK    4  A    between atoms: C_4  and  N_5
REMARK    5  A    between atoms: C_6  and  C_7
REMARK    6  A    between atoms: C_8  and  C_9
REMARK    7  A    between atoms: C_10  and  C_11
REMARK    8  A    between atoms: C_11  and  C_13
REMARK    9  A    between atoms: C_14  and  C_15
REMARK   10  A    between atoms: N_23  and  C_24
REMARK   11  A    between atoms: C_24  and  C_25
REMARK   12  A    between atoms: C_25  and  C_26
REMARK   13  A    between atoms: C_25  and  C_27
REMARK                            x       y       z     vdW  Elec       q    Type
REMARK                         _______ _______ _______ _____ _____    ______ ____
ROOT
ATOM      1  C   UNL     1       1.061   8.178  21.284  0.00  0.00    +0.000 C 
ATOM      2  C   UNL     1       1.030   9.441  21.743  0.00  0.00    +0.000 C 
ENDROOT
BRANCH   1   4
ATOM      3  C   UNL     1       2.303   6.490  19.964  0.00  0.00    +0.000 C 
ATOM      4  C   UNL     1       1.845   7.743  20.140  0.00  0.00    +0.000 C 
BRANCH   3   6
ATOM      5  N   UNL     1       3.263   4.832  18.430  0.00  0.00    +0.000 N 
ATOM      6  C   UNL     1       3.070   6.152  18.810  0.00  0.00    +0.000 A 
ATOM      7  N   UNL     1       3.685   6.961  17.965  0.00  0.00    +0.000 NA
ATOM      8  C   UNL     1       4.333   6.158  17.060  0.00  0.00    +0.000 A 
ATOM      9  C   UNL     1       5.150   6.513  15.971  0.00  0.00    +0.000 A 
ATOM     10  C   UNL     1       5.703   5.499  15.179  0.00  0.00    +0.000 A 
ATOM     11  C   UNL     1       5.445   4.157  15.458  0.00  0.00    +0.000 A 
ATOM     12  C   UNL     1       4.635   3.786  16.536  0.00  0.00    +0.000 A 
ATOM     13  C   UNL     1       4.093   4.815  17.324  0.00  0.00    +0.000 A 
BRANCH   5  14
ATOM     14  C   UNL     1       2.673   3.639  19.020  0.00  0.00    +0.000 C 
BRANCH  14  16
ATOM     15  C   UNL     1       2.256   2.725  21.365  0.00  0.00    +0.000 C 
ATOM     16  C   UNL     1       3.301   3.215  20.360  0.00  0.00    +0.000 C 
ATOM     17  C   UNL     1       4.346   2.122  20.126  0.00  0.00    +0.000 C 
ENDBRANCH  14  16
ENDBRANCH   5  14
ENDBRANCH   3   6
ENDBRANCH   1   4
BRANCH   2  18
ATOM     18  C   UNL     1       0.164   9.815  22.897  0.00  0.00    +0.000 C 
ATOM     19  O   UNL     1       0.473   9.585  24.062  0.00  0.00    +0.000 OA
BRANCH  18  20
ATOM     20  C   UNL     1      -1.107  10.515  22.539  0.00  0.00    +0.000 C 
ATOM     21  C   UNL     1      -1.463  11.642  23.182  0.00  0.00    +0.000 C 
BRANCH  21  22
ATOM     22  C   UNL     1      -2.663  12.326  22.829  0.00  0.00    +0.000 A 
ATOM     23  N   UNL     1      -3.876  12.165  23.331  0.00  0.00    +0.000 NA
ATOM     24  C   UNL     1      -4.699  13.022  22.647  0.00  0.00    +0.000 A 
ATOM     25  C   UNL     1      -6.079  13.249  22.793  0.00  0.00    +0.000 A 
ATOM     26  C   UNL     1      -6.711  14.171  21.949  0.00  0.00    +0.000 A 
ATOM     27  C   UNL     1      -5.984  14.856  20.975  0.00  0.00    +0.000 A 
ATOM     28  C   UNL     1      -4.607  14.657  20.828  0.00  0.00    +0.000 A 
ATOM     29  C   UNL     1      -3.990  13.733  21.686  0.00  0.00    +0.000 A 
ATOM     30  N   UNL     1      -2.685  13.302  21.840  0.00  0.00    +0.000 N 
BRANCH  30  31
ATOM     31  C   UNL     1      -1.550  13.891  21.141  0.00  0.00    +0.000 C 
BRANCH  31  32
ATOM     32  C   UNL     1      -1.424  13.497  19.659  0.00  0.00    +0.000 C 
ATOM     33  C   UNL     1       0.014  13.576  19.142  0.00  0.00    +0.000 C 
ATOM     34  C   UNL     1      -1.947  12.070  19.459  0.00  0.00    +0.000 C 
ENDBRANCH  31  32
ENDBRANCH  30  31
ENDBRANCH  21  22
ENDBRANCH  18  20
ENDBRANCH   2  18
TORSDOF 9
ENDMDL
MODEL 2
REMARK VINA RESULT:      -8.1      6.689     11.133
REMARK  Name = 
REMARK  13 active torsions:
REMARK  status: ('A' for Active; 'I' for Inactive)
REMARK    1  A    between atoms: C_1  and  C_2
REMARK    2  A    between atoms: C_2  and  C_3
REMARK    3  A    between atoms: C_2  and  C_4
REMARK    4  A    between atoms: C_4  and  N_5
REMARK    5  A    between atoms: C_6  and  C_7
REMARK    6  A    between atoms: C_8  and  C_9
REMARK    7  A    between atoms: C_10  and  C_11
REMARK    8  A    between atoms: C_11  and  C_13
REMARK    9  A    between atoms: C_14  and  C_15
REMARK   10  A    between atoms: N_23  and  C_24
REMARK   11  A    between atoms: C_24  and  C_25
REMARK   12  A    between atoms: C_25  and  C_26
REMARK   13  A    between atoms: C_25  and  C_27
REMARK                            x       y       z     vdW  Elec       q    Type
REMARK                         _______ _______ _______ _____ _____    ______ ____
ROOT
ATOM      1  C   UNL     1       8.671   9.078  18.561  0.00  0.00    +0.000 C 
ATOM      2  C   UNL     1       7.600   8.698  17.845  0.00  0.00    +0.000 C 
ENDROOT
BRANCH   1   4
ATOM      3  C   UNL     1       9.320  10.740  20.279  0.00  0.00    +0.000 C 
ATOM      4  C   UNL     1       8.897  10.431  19.039  0.00  0.00    +0.000 C 
BRANCH   3   6
ATOM      5  N   UNL     1       9.943  13.056  19.757  0.00  0.00    +0.000 N 
ATOM      6  C   UNL     1       9.511  12.100  20.664  0.00  0.00    +0.000 A 
ATOM      7  N   UNL     1       9.330  12.652  21.852  0.00  0.00    +0.000 NA
ATOM      8  C   UNL     1       9.703  13.967  21.730  0.00  0.00    +0.000 A 
ATOM      9  C   UNL     1       9.727  14.985  22.701  0.00  0.00    +0.000 A 
ATOM     10  C   UNL     1      10.150  16.267  22.329  0.00  0.00    +0.000 A 
ATOM     11  C   UNL     1      10.537  16.537  21.016  0.00  0.00    +0.000 A 
ATOM     12  C   UNL     1      10.519  15.536  20.039  0.00  0.00    +0.000 A 
ATOM     13  C   UNL     1      10.098  14.255  20.430  0.00  0.00    +0.000 A 
BRANCH   5  14
ATOM     14  C   UNL     1      10.156  12.895  18.326  0.00  0.00    +0.000 C 
BRANCH  14  16
ATOM     15  C   UNL     1      12.322  11.555  18.194  0.00  0.00    +0.000 C 
ATOM     16  C   UNL     1      11.635  12.890  17.899  0.00  0.00    +0.000 C 
ATOM     17  C   UNL     1      11.752  13.214  16.409  0.00  0.00    +0.000 C 
ENDBRANCH  14  16
ENDBRANCH   5  14
ENDBRANCH   3   6
ENDBRANCH   1   4
BRANCH   2  18
ATOM     18  C   UNL     1       7.464   7.297  17.354  0.00  0.00    +0.000 C 
ATOM     19  O   UNL     1       8.053   6.880  16.362  0.00  0.00    +0.000 OA
BRANCH  18  20
ATOM     20  C   UNL     1       6.571   6.420  18.171  0.00  0.00    +0.000 C 
ATOM     21  C   UNL     1       5.310   6.175  17.770  0.00  0.00    +0.000 C 
BRANCH  21  22
ATOM     22  C   UNL     1       4.461   5.323  18.534  0.00  0.00    +0.000 A 
ATOM     23  N   UNL     1       4.800   4.299  19.297  0.00  0.00    +0.000 NA
ATOM     24  C   UNL     1       3.633   3.777  19.792  0.00  0.00    +0.000 A 
ATOM     25  C   UNL     1       3.433   2.687  20.659  0.00  0.00    +0.000 A 
ATOM     26  C   UNL     1       2.127   2.325  21.009  0.00  0.00    +0.000 A 
ATOM     27  C   UNL     1       1.034   3.034  20.506  0.00  0.00    +0.000 A 
ATOM     28  C   UNL     1       1.215   4.133  19.659  0.00  0.00    +0.000 A 
ATOM     29  C   UNL     1       2.532   4.484  19.323  0.00  0.00    +0.000 A 
ATOM     30  N   UNL     1       3.080   5.490  18.549  0.00  0.00    +0.000 N 
BRANCH  30  31
ATOM     31  C   UNL     1       2.306   6.580  17.971  0.00  0.00    +0.000 C 
BRANCH  31  32
ATOM     32  C   UNL     1       2.479   7.941  18.669  0.00  0.00    +0.000 C 
ATOM     33  C   UNL     1       1.931   9.107  17.845  0.00  0.00    +0.000 C 
ATOM     34  C   UNL     1       1.772   7.916  20.028  0.00  0.00    +0.000 C 
ENDBRANCH  31  32
ENDBRANCH  30  31
ENDBRANCH  21  22
ENDBRANCH  18  20
ENDBRANCH   2  18
TORSDOF 9
ENDMDL
MODEL 3
REMARK VINA RESULT:      -8.0      2.030      3.014
REMARK  Name = 
REMARK  13 active torsions:
REMARK  status: ('A' for Active; 'I' for Inactive)
REMARK    1  A    between atoms: C_1  and  C_2
REMARK    2  A    between atoms: C_2  and  C_3
REMARK    3  A    between atoms: C_2  and  C_4
REMARK    4  A    between atoms: C_4  and  N_5
REMARK    5  A    between atoms: C_6  and  C_7
REMARK    6  A    between atoms: C_8  and  C_9
REMARK    7  A    between atoms: C_10  and  C_11
REMARK    8  A    between atoms: C_11  and  C_13
REMARK    9  A    between atoms: C_14  and  C_15
REMARK   10  A    between atoms: N_23  and  C_24
REMARK   11  A    between atoms: C_24  and  C_25
REMARK   12  A    between atoms: C_25  and  C_26
REMARK   13  A    between atoms: C_25  and  C_27
REMARK                            x       y       z     vdW  Elec       q    Type
REMARK                         _______ _______ _______ _____ _____    ______ ____
ROOT
ATOM      1  C   UNL     1       1.017   9.429  19.469  0.00  0.00    +0.000 C 
ATOM      2  C   UNL     1       1.142  10.752  19.669  0.00  0.00    +0.000 C 
ENDROOT
BRANCH   1   4
ATOM      3  C   UNL     1       2.371   7.412  18.988  0.00  0.00    +0.000 C 
ATOM      4  C   UNL     1       1.923   8.637  18.655  0.00  0.00    +0.000 C 
BRANCH   3   6
ATOM      5  N   UNL     1       3.063   5.370  17.816  0.00  0.00    +0.000 N 
ATOM      6  C   UNL     1       3.263   6.706  18.128  0.00  0.00    +0.000 A 
ATOM      7  N   UNL     1       4.350   7.154  17.523  0.00  0.00    +0.000 NA
ATOM      8  C   UNL     1       4.894   6.084  16.859  0.00  0.00    +0.000 A 
ATOM      9  C   UNL     1       6.065   6.012  16.081  0.00  0.00    +0.000 A 
ATOM     10  C   UNL     1       6.415   4.790  15.493  0.00  0.00    +0.000 A 
ATOM     11  C   UNL     1       5.616   3.661  15.667  0.00  0.00    +0.000 A 
ATOM     12  C   UNL     1       4.448   3.714  16.437  0.00  0.00    +0.000 A 
ATOM     13  C   UNL     1       4.115   4.945  17.024  0.00  0.00    +0.000 A 
BRANCH   5  14
ATOM     14  C   UNL     1       1.933   4.528  18.183  0.00  0.00    +0.000 C 
BRANCH  14  16
ATOM     15  C   UNL     1       1.446   4.351  20.681  0.00  0.00    +0.000 C 
ATOM     16  C   UNL     1       2.139   3.715  19.474  0.00  0.00    +0.000 C 
ATOM     17  C   UNL     1       1.628   2.286  19.280  0.00  0.00    +0.000 C 
ENDBRANCH  14  16
ENDBRANCH   5  14
ENDBRANCH   3   6
ENDBRANCH   1   4
BRANCH   2  18
ATOM     18  C   UNL     1       0.144  11.501  20.484  0.00  0.00    +0.000 C 
ATOM     19  O   UNL     1       0.425  12.036  21.553  0.00  0.00    +0.000 OA
BRANCH  18  20
ATOM     20  C   UNL     1      -1.229  11.577  19.898  0.00  0.00    +0.000 C 
ATOM     21  C   UNL     1      -2.152  12.394  20.438  0.00  0.00    +0.000 C 
BRANCH  21  22
ATOM     22  C   UNL     1      -3.455  12.486  19.870  0.00  0.00    +0.000 A 
ATOM     23  N   UNL     1      -3.907  11.931  18.758  0.00  0.00    +0.000 NA
ATOM     24  C   UNL     1      -5.207  12.341  18.616  0.00  0.00    +0.000 A 
ATOM     25  C   UNL     1      -6.141  12.032  17.611  0.00  0.00    +0.000 A 
ATOM     26  C   UNL     1      -7.420  12.599  17.672  0.00  0.00    +0.000 A 
ATOM     27  C   UNL     1      -7.767  13.460  18.714  0.00  0.00    +0.000 A 
ATOM     28  C   UNL     1      -6.857  13.763  19.733  0.00  0.00    +0.000 A 
ATOM     29  C   UNL     1      -5.582  13.181  19.659  0.00  0.00    +0.000 A 
ATOM     30  N   UNL     1      -4.462  13.235  20.469  0.00  0.00    +0.000 N 
BRANCH  30  31
ATOM     31  C   UNL     1      -4.438  13.882  21.774  0.00  0.00    +0.000 C 
BRANCH  31  32
ATOM     32  C   UNL     1      -4.935  13.010  22.940  0.00  0.00    +0.000 C 
ATOM     33  C   UNL     1      -3.805  12.547  23.862  0.00  0.00    +0.000 C 
ATOM     34  C   UNL     1      -5.963  13.791  23.766  0.00  0.00    +0.000 C 
ENDBRANCH  31  32
ENDBRANCH  30  31
ENDBRANCH  21  22
ENDBRANCH  18  20
ENDBRANCH   2  18
TORSDOF 9
ENDMDL
MODEL 4
REMARK VINA RESULT:      -7.8      2.382     11.521
REMARK  Name = 
REMARK  13 active torsions:
REMARK  status: ('A' for Active; 'I' for Inactive)
REMARK    1  A    between atoms: C_1  and  C_2
REMARK    2  A    between atoms: C_2  and  C_3
REMARK    3  A    between atoms: C_2  and  C_4
REMARK    4  A    between atoms: C_4  and  N_5
REMARK    5  A    between atoms: C_6  and  C_7
REMARK    6  A    between atoms: C_8  and  C_9
REMARK    7  A    between atoms: C_10  and  C_11
REMARK    8  A    between atoms: C_11  and  C_13
REMARK    9  A    between atoms: C_14  and  C_15
REMARK   10  A    between atoms: N_23  and  C_24
REMARK   11  A    between atoms: C_24  and  C_25
REMARK   12  A    between atoms: C_25  and  C_26
REMARK   13  A    between atoms: C_25  and  C_27
REMARK                            x       y       z     vdW  Elec       q    Type
REMARK                         _______ _______ _______ _____ _____    ______ ____
ROOT
ATOM      1  C   UNL     1      -0.448  10.532  19.038  0.00  0.00    +0.000 C 
ATOM      2  C   UNL     1       0.833  10.937  19.054  0.00  0.00    +0.000 C 
ENDROOT
BRANCH   1   4
ATOM      3  C   UNL     1      -1.974  12.337  19.777  0.00  0.00    +0.000 C 
ATOM      4  C   UNL     1      -1.490  11.086  19.885  0.00  0.00    +0.000 C 
BRANCH   3   6
ATOM      5  N   UNL     1      -4.305  12.963  20.223  0.00  0.00    +0.000 N 
ATOM      6  C   UNL     1      -2.998  12.799  20.655  0.00  0.00    +0.000 A 
ATOM      7  N   UNL     1      -2.900  13.129  21.932  0.00  0.00    +0.000 NA
ATOM      8  C   UNL     1      -4.142  13.567  22.318  0.00  0.00    +0.000 A 
ATOM      9  C   UNL     1      -4.573  14.055  23.565  0.00  0.00    +0.000 A 
ATOM     10  C   UNL     1      -5.910  14.443  23.716  0.00  0.00    +0.000 A 
ATOM     11  C   UNL     1      -6.806  14.342  22.651  0.00  0.00    +0.000 A 
ATOM     12  C   UNL     1      -6.394  13.859  21.405  0.00  0.00    +0.000 A 
ATOM     13  C   UNL     1      -5.049  13.481  21.268  0.00  0.00    +0.000 A 
BRANCH   5  14
ATOM     14  C   UNL     1      -4.865  12.613  18.925  0.00  0.00    +0.000 C 
BRANCH  14  16
ATOM     15  C   UNL     1      -6.767  10.958  18.542  0.00  0.00    +0.000 C 
ATOM     16  C   UNL     1      -5.266  11.134  18.783  0.00  0.00    +0.000 C 
ATOM     17  C   UNL     1      -4.480  10.484  17.643  0.00  0.00    +0.000 C 
ENDBRANCH  14  16
ENDBRANCH   5  14
ENDBRANCH   3   6
ENDBRANCH   1   4
BRANCH   2  18
ATOM     18  C   UNL     1       1.853  10.286  18.182  0.00  0.00    +0.000 C 
ATOM     19  O   UNL     1       2.698  10.922  17.560  0.00  0.00    +0.000 OA
BRANCH  18  20
ATOM     20  C   UNL     1       1.791   8.794  18.135  0.00  0.00    +0.000 C 
ATOM     21  C   UNL     1       2.906   8.076  17.906  0.00  0.00    +0.000 C 
BRANCH  21  22
ATOM     22  C   UNL     1       2.856   6.653  17.881  0.00  0.00    +0.000 A 
ATOM     23  N   UNL     1       1.862   5.860  18.243  0.00  0.00    +0.000 NA
ATOM     24  C   UNL     1       2.303   4.574  18.070  0.00  0.00    +0.000 A 
ATOM     25  C   UNL     1       1.637   3.357  18.299  0.00  0.00    +0.000 A 
ATOM     26  C   UNL     1       2.315   2.154  18.067  0.00  0.00    +0.000 A 
ATOM     27  C   UNL     1       3.635   2.158  17.615  0.00  0.00    +0.000 A 
ATOM     28  C   UNL     1       4.307   3.359  17.363  0.00  0.00    +0.000 A 
ATOM     29  C   UNL     1       3.610   4.555  17.596  0.00  0.00    +0.000 A 
ATOM     30  N   UNL     1       3.936   5.891  17.447  0.00  0.00    +0.000 N 
BRANCH  30  31
ATOM     31  C   UNL     1       5.167   6.360  16.826  0.00  0.00    +0.000 C 
BRANCH  31  32
ATOM     32  C   UNL     1       6.402   6.353  17.745  0.00  0.00    +0.000 C 
ATOM     33  C   UNL     1       7.287   5.121  17.545  0.00  0.00    +0.000 C 
ATOM     34  C   UNL     1       7.237   7.613  17.495  0.00  0.00    +0.000 C 
ENDBRANCH  31  32
ENDBRANCH  30  31
ENDBRANCH  21  22
ENDBRANCH  18  20
ENDBRANCH   2  18
TORSDOF 9
ENDMDL
MODEL 5
REMARK VINA RESULT:      -7.8      3.139      4.523
REMARK  Name = 
REMARK  13 active torsions:
REMARK  status: ('A' for Active; 'I' for Inactive)
REMARK    1  A    between atoms: C_1  and  C_2
REMARK    2  A    between atoms: C_2  and  C_3
REMARK    3  A    between atoms: C_2  and  C_4
REMARK    4  A    between atoms: C_4  and  N_5
REMARK    5  A    between atoms: C_6  and  C_7
REMARK    6  A    between atoms: C_8  and  C_9
REMARK    7  A    between atoms: C_10  and  C_11
REMARK    8  A    between atoms: C_11  and  C_13
REMARK    9  A    between atoms: C_14  and  C_15
REMARK   10  A    between atoms: N_23  and  C_24
REMARK   11  A    between atoms: C_24  and  C_25
REMARK   12  A    between atoms: C_25  and  C_26
REMARK   13  A    between atoms: C_25  and  C_27
REMARK                            x       y       z     vdW  Elec       q    Type
REMARK                         _______ _______ _______ _____ _____    ______ ____
ROOT
ATOM      1  C   UNL     1       0.854   9.666  18.847  0.00  0.00    +0.000 C 
ATOM      2  C   UNL     1       0.936   9.973  20.152  0.00  0.00    +0.000 C 
ENDROOT
BRANCH   1   4
ATOM      3  C   UNL     1       2.336   7.691  18.649  0.00  0.00    +0.000 C 
ATOM      4  C   UNL     1       1.804   8.820  18.145  0.00  0.00    +0.000 C 
BRANCH   3   6
ATOM      5  N   UNL     1       3.179   5.541  17.819  0.00  0.00    +0.000 N 
ATOM      6  C   UNL     1       3.267   6.923  17.889  0.00  0.00    +0.000 A 
ATOM      7  N   UNL     1       4.295   7.347  17.174  0.00  0.00    +0.000 NA
ATOM      8  C   UNL     1       4.916   6.227  16.683  0.00  0.00    +0.000 A 
ATOM      9  C   UNL     1       6.069   6.119  15.885  0.00  0.00    +0.000 A 
ATOM     10  C   UNL     1       6.512   4.847  15.502  0.00  0.00    +0.000 A 
ATOM     11  C   UNL     1       5.820   3.703  15.897  0.00  0.00    +0.000 A 
ATOM     12  C   UNL     1       4.672   3.792  16.690  0.00  0.00    +0.000 A 
ATOM     13  C   UNL     1       4.245   5.074  17.071  0.00  0.00    +0.000 A 
BRANCH   5  14
ATOM     14  C   UNL     1       2.136   4.685  18.368  0.00  0.00    +0.000 C 
BRANCH  14  16
ATOM     15  C   UNL     1       1.001   3.940  20.527  0.00  0.00    +0.000 C 
ATOM     16  C   UNL     1       2.317   4.338  19.857  0.00  0.00    +0.000 C 
ATOM     17  C   UNL     1       3.338   3.209  20.011  0.00  0.00    +0.000 C 
ENDBRANCH  14  16
ENDBRANCH   5  14
ENDBRANCH   3   6
ENDBRANCH   1   4
BRANCH   2  18
ATOM     18  C   UNL     1      -0.057  10.885  20.789  0.00  0.00    +0.000 C 
ATOM     19  O   UNL     1      -0.697  10.575  21.789  0.00  0.00    +0.000 OA
BRANCH  18  20
ATOM     20  C   UNL     1      -0.204  12.220  20.135  0.00  0.00    +0.000 C 
ATOM     21  C   UNL     1       0.811  13.103  20.162  0.00  0.00    +0.000 C 
BRANCH  21  22
ATOM     22  C   UNL     1       0.683  14.370  19.522  0.00  0.00    +0.000 A 
ATOM     23  N   UNL     1      -0.419  15.056  19.274  0.00  0.00    +0.000 NA
ATOM     24  C   UNL     1      -0.033  16.192  18.611  0.00  0.00    +0.000 A 
ATOM     25  C   UNL     1      -0.811  17.259  18.128  0.00  0.00    +0.000 A 
ATOM     26  C   UNL     1      -0.181  18.312  17.453  0.00  0.00    +0.000 A 
ATOM     27  C   UNL     1       1.201  18.306  17.261  0.00  0.00    +0.000 A 
ATOM     28  C   UNL     1       1.994  17.263  17.752  0.00  0.00    +0.000 A 
ATOM     29  C   UNL     1       1.345  16.219  18.430  0.00  0.00    +0.000 A 
ATOM     30  N   UNL     1       1.791  15.065  19.049  0.00  0.00    +0.000 N 
BRANCH  30  31
ATOM     31  C   UNL     1       3.198  14.744  19.246  0.00  0.00    +0.000 C 
BRANCH  31  32
ATOM     32  C   UNL     1       3.837  15.369  20.499  0.00  0.00    +0.000 C 
ATOM     33  C   UNL     1       4.356  14.323  21.488  0.00  0.00    +0.000 C 
ATOM     34  C   UNL     1       4.996  16.282  20.086  0.00  0.00    +0.000 C 
ENDBRANCH  31  32
ENDBRANCH  30  31
ENDBRANCH  21  22
ENDBRANCH  18  20
ENDBRANCH   2  18
TORSDOF 9
ENDMDL
MODEL 6
REMARK VINA RESULT:      -7.8      3.053      4.131
REMARK  Name = 
REMARK  13 active torsions:
REMARK  status: ('A' for Active; 'I' for Inactive)
REMARK    1  A    between atoms: C_1  and  C_2
REMARK    2  A    between atoms: C_2  and  C_3
REMARK    3  A    between atoms: C_2  and  C_4
REMARK    4  A    between atoms: C_4  and  N_5
REMARK    5  A    between atoms: C_6  and  C_7
REMARK    6  A    between atoms: C_8  and  C_9
REMARK    7  A    between atoms: C_10  and  C_11
REMARK    8  A    between atoms: C_11  and  C_13
REMARK    9  A    between atoms: C_14  and  C_15
REMARK   10  A    between atoms: N_23  and  C_24
REMARK   11  A    between atoms: C_24  and  C_25
REMARK   12  A    between atoms: C_25  and  C_26
REMARK   13  A    between atoms: C_25  and  C_27
REMARK                            x       y       z     vdW  Elec       q    Type
REMARK                         _______ _______ _______ _____ _____    ______ ____
ROOT
ATOM      1  C   UNL     1       0.871   9.853  18.812  0.00  0.00    +0.000 C 
ATOM      2  C   UNL     1       0.780   9.942  20.150  0.00  0.00    +0.000 C 
ENDROOT
BRANCH   1   4
ATOM      3  C   UNL     1       2.450   7.948  18.704  0.00  0.00    +0.000 C 
ATOM      4  C   UNL     1       1.754   8.936  18.112  0.00  0.00    +0.000 C 
BRANCH   3   6
ATOM      5  N   UNL     1       3.606   5.811  18.360  0.00  0.00    +0.000 N 
ATOM      6  C   UNL     1       3.298   7.095  17.938  0.00  0.00    +0.000 A 
ATOM      7  N   UNL     1       3.895   7.348  16.786  0.00  0.00    +0.000 NA
ATOM      8  C   UNL     1       4.646   6.240  16.485  0.00  0.00    +0.000 A 
ATOM      9  C   UNL     1       5.490   6.000  15.386  0.00  0.00    +0.000 A 
ATOM     10  C   UNL     1       6.156   4.771  15.297  0.00  0.00    +0.000 A 
ATOM     11  C   UNL     1       5.983   3.795  16.277  0.00  0.00    +0.000 A 
ATOM     12  C   UNL     1       5.147   4.016  17.377  0.00  0.00    +0.000 A 
ATOM     13  C   UNL     1       4.492   5.256  17.454  0.00  0.00    +0.000 A 
BRANCH   5  14
ATOM     14  C   UNL     1       3.074   5.100  19.515  0.00  0.00    +0.000 C 
BRANCH  14  16
ATOM     15  C   UNL     1       0.868   4.010  20.185  0.00  0.00    +0.000 C 
ATOM     16  C   UNL     1       2.016   4.035  19.174  0.00  0.00    +0.000 C 
ATOM     17  C   UNL     1       1.462   4.279  17.769  0.00  0.00    +0.000 C 
ENDBRANCH  14  16
ENDBRANCH   5  14
ENDBRANCH   3   6
ENDBRANCH   1   4
BRANCH   2  18
ATOM     18  C   UNL     1      -0.121  10.942  20.792  0.00  0.00    +0.000 C 
ATOM     19  O   UNL     1      -0.711  10.724  21.845  0.00  0.00    +0.000 OA
BRANCH  18  20
ATOM     20  C   UNL     1      -0.240  12.246  20.072  0.00  0.00    +0.000 C 
ATOM     21  C   UNL     1       0.022  13.400  20.713  0.00  0.00    +0.000 C 
BRANCH  21  22
ATOM     22  C   UNL     1      -0.069  14.645  20.025  0.00  0.00    +0.000 A 
ATOM     23  N   UNL     1      -1.137  15.402  19.838  0.00  0.00    +0.000 NA
ATOM     24  C   UNL     1      -0.729  16.476  19.091  0.00  0.00    +0.000 A 
ATOM     25  C   UNL     1      -1.468  17.578  18.624  0.00  0.00    +0.000 A 
ATOM     26  C   UNL     1      -0.825  18.551  17.849  0.00  0.00    +0.000 A 
ATOM     27  C   UNL     1       0.531  18.432  17.542  0.00  0.00    +0.000 A 
ATOM     28  C   UNL     1       1.287  17.353  18.014  0.00  0.00    +0.000 A 
ATOM     29  C   UNL     1       0.626  16.391  18.794  0.00  0.00    +0.000 A 
ATOM     30  N   UNL     1       1.040  15.233  19.428  0.00  0.00    +0.000 N 
BRANCH  30  31
ATOM     31  C   UNL     1       2.432  14.814  19.521  0.00  0.00    +0.000 C 
BRANCH  31  32
ATOM     32  C   UNL     1       3.053  14.325  18.201  0.00  0.00    +0.000 C 
ATOM     33  C   UNL     1       4.546  14.642  18.091  0.00  0.00    +0.000 C 
ATOM     34  C   UNL     1       2.854  12.812  18.067  0.00  0.00    +0.000 C 
ENDBRANCH  31  32
ENDBRANCH  30  31
ENDBRANCH  21  22
ENDBRANCH  18  20
ENDBRANCH   2  18
TORSDOF 9
ENDMDL
MODEL 7
REMARK VINA RESULT:      -7.8      1.511      2.161
REMARK  Name = 
REMARK  13 active torsions:
REMARK  status: ('A' for Active; 'I' for Inactive)
REMARK    1  A    between atoms: C_1  and  C_2
REMARK    2  A    between atoms: C_2  and  C_3
REMARK    3  A    between atoms: C_2  and  C_4
REMARK    4  A    between atoms: C_4  and  N_5
REMARK    5  A    between atoms: C_6  and  C_7
REMARK    6  A    between atoms: C_8  and  C_9
REMARK    7  A    between atoms: C_10  and  C_11
REMARK    8  A    between atoms: C_11  and  C_13
REMARK    9  A    between atoms: C_14  and  C_15
REMARK   10  A    between atoms: N_23  and  C_24
REMARK   11  A    between atoms: C_24  and  C_25
REMARK   12  A    between atoms: C_25  and  C_26
REMARK   13  A    between atoms: C_25  and  C_27
REMARK                            x       y       z     vdW  Elec       q    Type
REMARK                         _______ _______ _______ _____ _____    ______ ____
ROOT
ATOM      1  C   UNL     1       0.964   8.619  21.267  0.00  0.00    +0.000 C 
ATOM      2  C   UNL     1       0.645   9.913  21.436  0.00  0.00    +0.000 C 
ENDROOT
BRANCH   1   4
ATOM      3  C   UNL     1       2.333   6.894  20.133  0.00  0.00    +0.000 C 
ATOM      4  C   UNL     1       1.756   8.110  20.160  0.00  0.00    +0.000 C 
BRANCH   3   6
ATOM      5  N   UNL     1       3.542   5.170  18.872  0.00  0.00    +0.000 N 
ATOM      6  C   UNL     1       3.097   6.477  19.004  0.00  0.00    +0.000 A 
ATOM      7  N   UNL     1       3.490   7.195  17.965  0.00  0.00    +0.000 NA
ATOM      8  C   UNL     1       4.247   6.362  17.180  0.00  0.00    +0.000 A 
ATOM      9  C   UNL     1       4.919   6.633  15.975  0.00  0.00    +0.000 A 
ATOM     10  C   UNL     1       5.633   5.603  15.350  0.00  0.00    +0.000 A 
ATOM     11  C   UNL     1       5.673   4.325  15.907  0.00  0.00    +0.000 A 
ATOM     12  C   UNL     1       5.010   4.038  17.104  0.00  0.00    +0.000 A 
ATOM     13  C   UNL     1       4.304   5.084  17.721  0.00  0.00    +0.000 A 
BRANCH   5  14
ATOM     14  C   UNL     1       3.241   4.035  19.734  0.00  0.00    +0.000 C 
BRANCH  14  16
ATOM     15  C   UNL     1       0.837   3.646  20.491  0.00  0.00    +0.000 C 
ATOM     16  C   UNL     1       1.898   3.346  19.431  0.00  0.00    +0.000 C 
ATOM     17  C   UNL     1       1.389   3.774  18.053  0.00  0.00    +0.000 C 
ENDBRANCH  14  16
ENDBRANCH   5  14
ENDBRANCH   3   6
ENDBRANCH   1   4
BRANCH   2  18
ATOM     18  C   UNL     1      -0.210  10.349  22.577  0.00  0.00    +0.000 C 
ATOM     19  O   UNL     1      -0.006   9.994  23.734  0.00  0.00    +0.000 OA
BRANCH  18  20
ATOM     20  C   UNL     1      -1.328  11.273  22.217  0.00  0.00    +0.000 C 
ATOM     21  C   UNL     1      -2.230  11.638  23.147  0.00  0.00    +0.000 C 
BRANCH  21  22
ATOM     22  C   UNL     1      -3.286  12.536  22.815  0.00  0.00    +0.000 A 
ATOM     23  N   UNL     1      -4.232  12.388  21.904  0.00  0.00    +0.000 NA
ATOM     24  C   UNL     1      -4.989  13.531  21.935  0.00  0.00    +0.000 A 
ATOM     25  C   UNL     1      -6.119  13.881  21.176  0.00  0.00    +0.000 A 
ATOM     26  C   UNL     1      -6.714  15.133  21.376  0.00  0.00    +0.000 A 
ATOM     27  C   UNL     1      -6.194  16.024  22.316  0.00  0.00    +0.000 A 
ATOM     28  C   UNL     1      -5.082  15.685  23.094  0.00  0.00    +0.000 A 
ATOM     29  C   UNL     1      -4.503  14.424  22.884  0.00  0.00    +0.000 A 
ATOM     30  N   UNL     1      -3.436  13.758  23.461  0.00  0.00    +0.000 N 
BRANCH  30  31
ATOM     31  C   UNL     1      -2.708  14.250  24.622  0.00  0.00    +0.000 C 
BRANCH  31  32
ATOM     32  C   UNL     1      -1.307  14.812  24.320  0.00  0.00    +0.000 C 
ATOM     33  C   UNL     1      -1.223  15.502  22.957  0.00  0.00    +0.000 C 
ATOM     34  C   UNL     1      -0.906  15.811  25.410  0.00  0.00    +0.000 C 
ENDBRANCH  31  32
ENDBRANCH  30  31
ENDBRANCH  21  22
ENDBRANCH  18  20
ENDBRANCH   2  18
TORSDOF 9
ENDMDL
MODEL 8
REMARK VINA RESULT:      -7.7      1.986      2.517
REMARK  Name = 
REMARK  13 active torsions:
REMARK  status: ('A' for Active; 'I' for Inactive)
REMARK    1  A    between atoms: C_1  and  C_2
REMARK    2  A    between atoms: C_2  and  C_3
REMARK    3  A    between atoms: C_2  and  C_4
REMARK    4  A    between atoms: C_4  and  N_5
REMARK    5  A    between atoms: C_6  and  C_7
REMARK    6  A    between atoms: C_8  and  C_9
REMARK    7  A    between atoms: C_10  and  C_11
REMARK    8  A    between atoms: C_11  and  C_13
REMARK    9  A    between atoms: C_14  and  C_15
REMARK   10  A    between atoms: N_23  and  C_24
REMARK   11  A    between atoms: C_24  and  C_25
REMARK   12  A    between atoms: C_25  and  C_26
REMARK   13  A    between atoms: C_25  and  C_27
REMARK                            x       y       z     vdW  Elec       q    Type
REMARK                         _______ _______ _______ _____ _____    ______ ____
ROOT
ATOM      1  C   UNL     1       1.026   9.044  20.263  0.00  0.00    +0.000 C 
ATOM      2  C   UNL     1       0.997   8.735  21.570  0.00  0.00    +0.000 C 
ENDROOT
BRANCH   1   4
ATOM      3  C   UNL     1       2.415   7.158  19.458  0.00  0.00    +0.000 C 
ATOM      4  C   UNL     1       1.861   8.372  19.282  0.00  0.00    +0.000 C 
BRANCH   3   6
ATOM      5  N   UNL     1       3.552   5.227  18.458  0.00  0.00    +0.000 N 
ATOM      6  C   UNL     1       3.226   6.575  18.441  0.00  0.00    +0.000 A 
ATOM      7  N   UNL     1       3.771   7.158  17.387  0.00  0.00    +0.000 NA
ATOM      8  C   UNL     1       4.506   6.194  16.745  0.00  0.00    +0.000 A 
ATOM      9  C   UNL     1       5.298   6.293  15.587  0.00  0.00    +0.000 A 
ATOM     10  C   UNL     1       5.958   5.151  15.116  0.00  0.00    +0.000 A 
ATOM     11  C   UNL     1       5.829   3.930  15.777  0.00  0.00    +0.000 A 
ATOM     12  C   UNL     1       5.045   3.813  16.930  0.00  0.00    +0.000 A 
ATOM     13  C   UNL     1       4.395   4.969  17.392  0.00  0.00    +0.000 A 
BRANCH   5  14
ATOM     14  C   UNL     1       3.073   4.206  19.379  0.00  0.00    +0.000 C 
BRANCH  14  16
ATOM     15  C   UNL     1       1.712   2.264  18.440  0.00  0.00    +0.000 C 
ATOM     16  C   UNL     1       1.668   3.665  19.054  0.00  0.00    +0.000 C 
ATOM     17  C   UNL     1       0.808   3.649  20.319  0.00  0.00    +0.000 C 
ENDBRANCH  14  16
ENDBRANCH   5  14
ENDBRANCH   3   6
ENDBRANCH   1   4
BRANCH   2  18
ATOM     18  C   UNL     1       0.143   9.503  22.520  0.00  0.00    +0.000 C 
ATOM     19  O   UNL     1      -0.442   8.978  23.462  0.00  0.00    +0.000 OA
BRANCH  18  20
ATOM     20  C   UNL     1       0.063  10.973  22.260  0.00  0.00    +0.000 C 
ATOM     21  C   UNL     1      -1.007  11.677  22.672  0.00  0.00    +0.000 C 
BRANCH  21  22
ATOM     22  C   UNL     1      -1.078  13.082  22.445  0.00  0.00    +0.000 A 
ATOM     23  N   UNL     1      -0.637  14.061  23.217  0.00  0.00    +0.000 NA
ATOM     24  C   UNL     1      -0.969  15.233  22.589  0.00  0.00    +0.000 A 
ATOM     25  C   UNL     1      -0.725  16.561  22.981  0.00  0.00    +0.000 A 
ATOM     26  C   UNL     1      -1.189  17.607  22.173  0.00  0.00    +0.000 A 
ATOM     27  C   UNL     1      -1.885  17.338  20.994  0.00  0.00    +0.000 A 
ATOM     28  C   UNL     1      -2.119  16.023  20.578  0.00  0.00    +0.000 A 
ATOM     29  C   UNL     1      -1.643  14.988  21.398  0.00  0.00    +0.000 A 
ATOM     30  N   UNL     1      -1.673  13.608  21.304  0.00  0.00    +0.000 N 
BRANCH  30  31
ATOM     31  C   UNL     1      -2.150  12.888  20.131  0.00  0.00    +0.000 C 
BRANCH  31  32
ATOM     32  C   UNL     1      -1.045  12.318  19.225  0.00  0.00    +0.000 C 
ATOM     33  C   UNL     1      -1.524  11.147  18.365  0.00  0.00    +0.000 C 
ATOM     34  C   UNL     1      -0.510  13.423  18.308  0.00  0.00    +0.000 C 
ENDBRANCH  31  32
ENDBRANCH  30  31
ENDBRANCH  21  22
ENDBRANCH  18  20
ENDBRANCH   2  18
TORSDOF 9
ENDMDL
MODEL 9
REMARK VINA RESULT:      -7.7      2.098      3.904
REMARK  Name = 
REMARK  13 active torsions:
REMARK  status: ('A' for Active; 'I' for Inactive)
REMARK    1  A    between atoms: C_1  and  C_2
REMARK    2  A    between atoms: C_2  and  C_3
REMARK    3  A    between atoms: C_2  and  C_4
REMARK    4  A    between atoms: C_4  and  N_5
REMARK    5  A    between atoms: C_6  and  C_7
REMARK    6  A    between atoms: C_8  and  C_9
REMARK    7  A    between atoms: C_10  and  C_11
REMARK    8  A    between atoms: C_11  and  C_13
REMARK    9  A    between atoms: C_14  and  C_15
REMARK   10  A    between atoms: N_23  and  C_24
REMARK   11  A    between atoms: C_24  and  C_25
REMARK   12  A    between atoms: C_25  and  C_26
REMARK   13  A    between atoms: C_25  and  C_27
REMARK                            x       y       z     vdW  Elec       q    Type
REMARK                         _______ _______ _______ _____ _____    ______ ____
ROOT
ATOM      1  C   UNL     1       1.385   9.861  18.270  0.00  0.00    +0.000 C 
ATOM      2  C   UNL     1       0.349  10.516  18.820  0.00  0.00    +0.000 C 
ENDROOT
BRANCH   1   4
ATOM      3  C   UNL     1       2.763   7.809  18.109  0.00  0.00    +0.000 C 
ATOM      4  C   UNL     1       1.601   8.428  18.388  0.00  0.00    +0.000 C 
BRANCH   3   6
ATOM      5  N   UNL     1       3.782   5.665  17.483  0.00  0.00    +0.000 N 
ATOM      6  C   UNL     1       2.885   6.395  18.249  0.00  0.00    +0.000 A 
ATOM      7  N   UNL     1       2.225   5.588  19.062  0.00  0.00    +0.000 NA
ATOM      8  C   UNL     1       2.654   4.316  18.781  0.00  0.00    +0.000 A 
ATOM      9  C   UNL     1       2.253   3.090  19.343  0.00  0.00    +0.000 A 
ATOM     10  C   UNL     1       2.848   1.908  18.887  0.00  0.00    +0.000 A 
ATOM     11  C   UNL     1       3.829   1.940  17.896  0.00  0.00    +0.000 A 
ATOM     12  C   UNL     1       4.241   3.150  17.327  0.00  0.00    +0.000 A 
ATOM     13  C   UNL     1       3.629   4.326  17.791  0.00  0.00    +0.000 A 
BRANCH   5  14
ATOM     14  C   UNL     1       4.773   6.174  16.545  0.00  0.00    +0.000 C 
BRANCH  14  16
ATOM     15  C   UNL     1       6.996   5.229  15.726  0.00  0.00    +0.000 C 
ATOM     16  C   UNL     1       6.229   5.826  16.907  0.00  0.00    +0.000 C 
ATOM     17  C   UNL     1       6.954   7.073  17.418  0.00  0.00    +0.000 C 
ENDBRANCH  14  16
ENDBRANCH   5  14
ENDBRANCH   3   6
ENDBRANCH   1   4
BRANCH   2  18
ATOM     18  C   UNL     1       0.222  11.995  18.690  0.00  0.00    +0.000 C 
ATOM     19  O   UNL     1       1.185  12.731  18.499  0.00  0.00    +0.000 OA
BRANCH  18  20
ATOM     20  C   UNL     1      -1.172  12.525  18.786  0.00  0.00    +0.000 C 
ATOM     21  C   UNL     1      -2.157  11.754  19.282  0.00  0.00    +0.000 C 
BRANCH  21  22
ATOM     22  C   UNL     1      -3.484  12.262  19.396  0.00  0.00    +0.000 A 
ATOM     23  N   UNL     1      -4.512  12.058  18.590  0.00  0.00    +0.000 NA
ATOM     24  C   UNL     1      -5.558  12.783  19.099  0.00  0.00    +0.000 A 
ATOM     25  C   UNL     1      -6.877  12.907  18.629  0.00  0.00    +0.000 A 
ATOM     26  C   UNL     1      -7.771  13.737  19.317  0.00  0.00    +0.000 A 
ATOM     27  C   UNL     1      -7.361  14.433  20.455  0.00  0.00    +0.000 A 
ATOM     28  C   UNL     1      -6.058  14.306  20.949  0.00  0.00    +0.000 A 
ATOM     29  C   UNL     1      -5.178  13.466  20.249  0.00  0.00    +0.000 A 
ATOM     30  N   UNL     1      -3.860  13.094  20.444  0.00  0.00    +0.000 N 
BRANCH  30  31
ATOM     31  C   UNL     1      -3.086  13.449  21.626  0.00  0.00    +0.000 C 
BRANCH  31  32
ATOM     32  C   UNL     1      -3.042  12.369  22.721  0.00  0.00    +0.000 C 
ATOM     33  C   UNL     1      -1.623  11.886  23.026  0.00  0.00    +0.000 C 
ATOM     34  C   UNL     1      -3.670  12.914  24.008  0.00  0.00    +0.000 C 
ENDBRANCH  31  32
ENDBRANCH  30  31
ENDBRANCH  21  22
ENDBRANCH  18  20
ENDBRANCH   2  18
TORSDOF 9
ENDMDL
