MODEL 1
REMARK VINA RESULT:      -7.2      0.000      0.000
REMARK  Name = 
REMARK  11 active torsions:
REMARK  status: ('A' for Active; 'I' for Inactive)
REMARK    1  A    between atoms: C_1  and  C_2
REMARK    2  A    between atoms: C_2  and  O_4
REMARK    3  A    between atoms: O_4  and  C_5
REMARK    4  A    between atoms: C_6  and  N_7
REMARK    5  A    between atoms: N_7  and  C_8
REMARK    6  A    between atoms: C_21  and  N_22
REMARK    7  A    between atoms: N_22  and  C_23
REMARK    8  A    between atoms: N_22  and  C_24
REMARK    9  A    between atoms: N_22  and  C_25
REMARK   10  A    between atoms: C_28  and  C_29
REMARK   11  A    between atoms: C_33  and  C_34
REMARK                            x       y       z     vdW  Elec       q    Type
REMARK                         _______ _______ _______ _____ _____    ______ ____
ROOT
ATOM      1  C   UNL     1      -0.050  13.230  20.384  0.00  0.00    +0.000 C 
ATOM      2  C   UNL     1      -0.722  12.756  21.729  0.00  0.00    +0.000 C 
ATOM      3  C   UNL     1      -0.580  11.212  21.750  0.00  0.00    +0.000 C 
ATOM      4  C   UNL     1       0.562  10.945  20.771  0.00  0.00    +0.000 C 
ATOM      5  C   UNL     1       0.760   9.518  20.252  0.00  0.00    +0.000 C 
ATOM      6  C   UNL     1       0.948   8.486  21.371  0.00  0.00    +0.000 C 
ATOM      7  C   UNL     1       1.161   7.082  20.801  0.00  0.00    +0.000 C 
ATOM      8  C   UNL     1       2.331   7.047  19.803  0.00  0.00    +0.000 C 
ATOM      9  C   UNL     1       2.591   5.618  19.303  0.00  0.00    +0.000 C 
ATOM     10  C   UNL     1       3.826   5.550  18.379  0.00  0.00    +0.000 C 
ATOM     11  C   UNL     1       3.784   6.606  17.261  0.00  0.00    +0.000 C 
ATOM     12  C   UNL     1       3.441   8.008  17.775  0.00  0.00    +0.000 C 
ATOM     13  C   UNL     1       2.153   8.063  18.633  0.00  0.00    +0.000 C 
ATOM     14  C   UNL     1       0.942   7.703  17.728  0.00  0.00    +0.000 C 
ATOM     15  C   UNL     1       1.978   9.489  19.270  0.00  0.00    +0.000 C 
ATOM     16  C   UNL     1       1.991  10.643  18.231  0.00  0.00    +0.000 C 
ATOM     17  C   UNL     1       1.592  12.015  18.796  0.00  0.00    +0.000 C 
ATOM     18  C   UNL     1       0.293  11.927  19.611  0.00  0.00    +0.000 C 
ATOM     19  C   UNL     1      -0.858  11.511  18.656  0.00  0.00    +0.000 C 
ENDROOT
BRANCH   2  20
ATOM     20  N   UNL     1      -2.152  13.257  22.093  0.00  0.00    +0.000 N 
ATOM     21  C   UNL     1      -2.217  14.768  22.290  0.00  0.00    +0.000 C 
ATOM     22  C   UNL     1      -3.146  12.816  20.957  0.00  0.00    +0.000 C 
ATOM     23  C   UNL     1      -4.621  13.003  21.359  0.00  0.00    +0.000 C 
ATOM     24  O   UNL     1      -4.931  12.331  22.581  0.00  0.00    +0.000 OA
ATOM     25  C   UNL     1      -4.121  12.788  23.663  0.00  0.00    +0.000 C 
ATOM     26  C   UNL     1      -2.640  12.516  23.383  0.00  0.00    +0.000 C 
ENDBRANCH   2  20
BRANCH  10  27
ATOM     27  N   UNL     1       4.046   4.103  17.811  0.00  0.00    +0.000 N 
ATOM     28  C   UNL     1       2.712   3.535  17.305  0.00  0.00    +0.000 C 
ATOM     29  C   UNL     1       5.059   4.041  16.667  0.00  0.00    +0.000 C 
ATOM     30  C   UNL     1       4.532   3.155  18.919  0.00  0.00    +0.000 C 
ENDBRANCH  10  27
BRANCH   1  31
ATOM     31  O   UNL     1      -0.816  14.134  19.578  0.00  0.00    +0.000 OA
BRANCH  31  33
ATOM     32  C   UNL     1       0.923  15.613  20.191  0.00  0.00    +0.000 C 
ATOM     33  C   UNL     1      -0.197  15.305  19.250  0.00  0.00    +0.000 C 
ATOM     34  O   UNL     1      -0.472  15.985  18.264  0.00  0.00    +0.000 OA
ENDBRANCH  31  33
ENDBRANCH   1  31
TORSDOF 4
ENDMDL
MODEL 2
REMARK VINA RESULT:      -6.9      0.653      1.094
REMARK  Name = 
REMARK  11 active torsions:
REMARK  status: ('A' for Active; 'I' for Inactive)
REMARK    1  A    between atoms: C_1  and  C_2
REMARK    2  A    between atoms: C_2  and  O_4
REMARK    3  A    between atoms: O_4  and  C_5
REMARK    4  A    between atoms: C_6  and  N_7
REMARK    5  A    between atoms: N_7  and  C_8
REMARK    6  A    between atoms: C_21  and  N_22
REMARK    7  A    between atoms: N_22  and  C_23
REMARK    8  A    between atoms: N_22  and  C_24
REMARK    9  A    between atoms: N_22  and  C_25
REMARK   10  A    between atoms: C_28  and  C_29
REMARK   11  A    between atoms: C_33  and  C_34
REMARK                            x       y       z     vdW  Elec       q    Type
REMARK                         _______ _______ _______ _____ _____    ______ ____
ROOT
ATOM      1  C   UNL     1      -0.079  13.117  20.283  0.00  0.00    +0.000 C 
ATOM      2  C   UNL     1      -0.729  12.651  21.641  0.00  0.00    +0.000 C 
ATOM      3  C   UNL     1      -0.555  11.112  21.687  0.00  0.00    +0.000 C 
ATOM      4  C   UNL     1       0.583  10.852  20.701  0.00  0.00    +0.000 C 
ATOM      5  C   UNL     1       0.806   9.421  20.203  0.00  0.00    +0.000 C 
ATOM      6  C   UNL     1       1.025   8.411  21.337  0.00  0.00    +0.000 C 
ATOM      7  C   UNL     1       1.262   7.003  20.788  0.00  0.00    +0.000 C 
ATOM      8  C   UNL     1       2.424   6.976  19.780  0.00  0.00    +0.000 C 
ATOM      9  C   UNL     1       2.709   5.545  19.301  0.00  0.00    +0.000 C 
ATOM     10  C   UNL     1       3.937   5.486  18.366  0.00  0.00    +0.000 C 
ATOM     11  C   UNL     1       3.863   6.523  17.232  0.00  0.00    +0.000 C 
ATOM     12  C   UNL     1       3.496   7.926  17.726  0.00  0.00    +0.000 C 
ATOM     13  C   UNL     1       2.215   7.968  18.595  0.00  0.00    +0.000 C 
ATOM     14  C   UNL     1       1.004   7.569  17.708  0.00  0.00    +0.000 C 
ATOM     15  C   UNL     1       2.015   9.401  19.211  0.00  0.00    +0.000 C 
ATOM     16  C   UNL     1       1.996  10.538  18.153  0.00  0.00    +0.000 C 
ATOM     17  C   UNL     1       1.573  11.910  18.700  0.00  0.00    +0.000 C 
ATOM     18  C   UNL     1       0.283  11.809  19.528  0.00  0.00    +0.000 C 
ATOM     19  C   UNL     1      -0.867  11.353  18.591  0.00  0.00    +0.000 C 
ENDROOT
BRANCH   2  20
ATOM     20  N   UNL     1      -2.166  13.129  22.011  0.00  0.00    +0.000 N 
ATOM     21  C   UNL     1      -3.134  13.057  20.834  0.00  0.00    +0.000 C 
ATOM     22  C   UNL     1      -2.698  12.253  23.203  0.00  0.00    +0.000 C 
ATOM     23  C   UNL     1      -3.980  12.829  23.833  0.00  0.00    +0.000 C 
ATOM     24  O   UNL     1      -3.807  14.184  24.249  0.00  0.00    +0.000 OA
ATOM     25  C   UNL     1      -3.431  15.033  23.166  0.00  0.00    +0.000 C 
ATOM     26  C   UNL     1      -2.092  14.589  22.569  0.00  0.00    +0.000 C 
ENDBRANCH   2  20
BRANCH  10  27
ATOM     27  N   UNL     1       4.182   4.036  17.820  0.00  0.00    +0.000 N 
ATOM     28  C   UNL     1       2.870   3.460  17.266  0.00  0.00    +0.000 C 
ATOM     29  C   UNL     1       5.240   3.965  16.718  0.00  0.00    +0.000 C 
ATOM     30  C   UNL     1       4.624   3.097  18.955  0.00  0.00    +0.000 C 
ENDBRANCH  10  27
BRANCH   1  31
ATOM     31  O   UNL     1      -0.871  13.992  19.469  0.00  0.00    +0.000 OA
BRANCH  31  33
ATOM     32  C   UNL     1       0.987  15.410  19.114  0.00  0.00    +0.000 C 
ATOM     33  C   UNL     1      -0.469  15.296  19.436  0.00  0.00    +0.000 C 
ATOM     34  O   UNL     1      -1.219  16.259  19.577  0.00  0.00    +0.000 OA
ENDBRANCH  31  33
ENDBRANCH   1  31
TORSDOF 4
ENDMDL
MODEL 3
REMARK VINA RESULT:      -6.7      0.890      1.544
REMARK  Name = 
REMARK  11 active torsions:
REMARK  status: ('A' for Active; 'I' for Inactive)
REMARK    1  A    between atoms: C_1  and  C_2
REMARK    2  A    between atoms: C_2  and  O_4
REMARK    3  A    between atoms: O_4  and  C_5
REMARK    4  A    between atoms: C_6  and  N_7
REMARK    5  A    between atoms: N_7  and  C_8
REMARK    6  A    between atoms: C_21  and  N_22
REMARK    7  A    between atoms: N_22  and  C_23
REMARK    8  A    between atoms: N_22  and  C_24
REMARK    9  A    between atoms: N_22  and  C_25
REMARK   10  A    between atoms: C_28  and  C_29
REMARK   11  A    between atoms: C_33  and  C_34
REMARK                            x       y       z     vdW  Elec       q    Type
REMARK                         _______ _______ _______ _____ _____    ______ ____
ROOT
ATOM      1  C   UNL     1       0.279  13.353  20.122  0.00  0.00    +0.000 C 
ATOM      2  C   UNL     1      -0.396  12.983  21.498  0.00  0.00    +0.000 C 
ATOM      3  C   UNL     1      -0.332  11.437  21.597  0.00  0.00    +0.000 C 
ATOM      4  C   UNL     1       0.781  11.062  20.620  0.00  0.00    +0.000 C 
ATOM      5  C   UNL     1       0.899   9.602  20.172  0.00  0.00    +0.000 C 
ATOM      6  C   UNL     1       1.051   8.621  21.341  0.00  0.00    +0.000 C 
ATOM      7  C   UNL     1       1.185   7.181  20.842  0.00  0.00    +0.000 C 
ATOM      8  C   UNL     1       2.338   7.035  19.833  0.00  0.00    +0.000 C 
ATOM      9  C   UNL     1       2.518   5.571  19.404  0.00  0.00    +0.000 C 
ATOM     10  C   UNL     1       3.734   5.393  18.470  0.00  0.00    +0.000 C 
ATOM     11  C   UNL     1       3.729   6.392  17.300  0.00  0.00    +0.000 C 
ATOM     12  C   UNL     1       3.465   7.834  17.745  0.00  0.00    +0.000 C 
ATOM     13  C   UNL     1       2.194   7.997  18.614  0.00  0.00    +0.000 C 
ATOM     14  C   UNL     1       0.953   7.654  17.744  0.00  0.00    +0.000 C 
ATOM     15  C   UNL     1       2.100   9.462  19.179  0.00  0.00    +0.000 C 
ATOM     16  C   UNL     1       2.156  10.559  18.081  0.00  0.00    +0.000 C 
ATOM     17  C   UNL     1       1.834  11.976  18.580  0.00  0.00    +0.000 C 
ATOM     18  C   UNL     1       0.544  11.996  19.414  0.00  0.00    +0.000 C 
ATOM     19  C   UNL     1      -0.640  11.591  18.495  0.00  0.00    +0.000 C 
ENDROOT
BRANCH   2  20
ATOM     20  N   UNL     1      -1.794  13.574  21.853  0.00  0.00    +0.000 N 
ATOM     21  C   UNL     1      -2.831  13.336  20.760  0.00  0.00    +0.000 C 
ATOM     22  C   UNL     1      -2.279  12.941  23.208  0.00  0.00    +0.000 C 
ATOM     23  C   UNL     1      -3.504  13.670  23.793  0.00  0.00    +0.000 C 
ATOM     24  O   UNL     1      -3.267  15.068  23.954  0.00  0.00    +0.000 OA
ATOM     25  C   UNL     1      -2.931  15.700  22.719  0.00  0.00    +0.000 C 
ATOM     26  C   UNL     1      -1.643  15.105  22.140  0.00  0.00    +0.000 C 
ENDBRANCH   2  20
BRANCH  10  27
ATOM     27  N   UNL     1       3.873   3.910  17.975  0.00  0.00    +0.000 N 
ATOM     28  C   UNL     1       4.853   3.846  16.794  0.00  0.00    +0.000 C 
ATOM     29  C   UNL     1       4.362   2.945  19.057  0.00  0.00    +0.000 C 
ATOM     30  C   UNL     1       2.526   3.385  17.453  0.00  0.00    +0.000 C 
ENDBRANCH  10  27
BRANCH   1  31
ATOM     31  O   UNL     1      -0.452  14.253  19.280  0.00  0.00    +0.000 OA
BRANCH  31  33
ATOM     32  C   UNL     1      -0.715  16.529  18.697  0.00  0.00    +0.000 C 
ATOM     33  C   UNL     1       0.218  15.375  18.889  0.00  0.00    +0.000 C 
ATOM     34  O   UNL     1       1.439  15.455  18.781  0.00  0.00    +0.000 OA
ENDBRANCH  31  33
ENDBRANCH   1  31
TORSDOF 4
ENDMDL
MODEL 4
REMARK VINA RESULT:      -6.6      1.276      1.622
REMARK  Name = 
REMARK  11 active torsions:
REMARK  status: ('A' for Active; 'I' for Inactive)
REMARK    1  A    between atoms: C_1  and  C_2
REMARK    2  A    between atoms: C_2  and  O_4
REMARK    3  A    between atoms: O_4  and  C_5
REMARK    4  A    between atoms: C_6  and  N_7
REMARK    5  A    between atoms: N_7  and  C_8
REMARK    6  A    between atoms: C_21  and  N_22
REMARK    7  A    between atoms: N_22  and  C_23
REMARK    8  A    between atoms: N_22  and  C_24
REMARK    9  A    between atoms: N_22  and  C_25
REMARK   10  A    between atoms: C_28  and  C_29
REMARK   11  A    between atoms: C_33  and  C_34
REMARK                            x       y       z     vdW  Elec       q    Type
REMARK                         _______ _______ _______ _____ _____    ______ ____
ROOT
ATOM      1  C   UNL     1      -1.212  13.781  21.179  0.00  0.00    +0.000 C 
ATOM      2  C   UNL     1      -1.775  13.169  22.518  0.00  0.00    +0.000 C 
ATOM      3  C   UNL     1      -1.461  11.652  22.454  0.00  0.00    +0.000 C 
ATOM      4  C   UNL     1      -0.336  11.564  21.424  0.00  0.00    +0.000 C 
ATOM      5  C   UNL     1      -0.001  10.195  20.824  0.00  0.00    +0.000 C 
ATOM      6  C   UNL     1       0.344   9.138  21.880  0.00  0.00    +0.000 C 
ATOM      7  C   UNL     1       0.689   7.796  21.229  0.00  0.00    +0.000 C 
ATOM      8  C   UNL     1       1.816   7.943  20.193  0.00  0.00    +0.000 C 
ATOM      9  C   UNL     1       2.213   6.578  19.609  0.00  0.00    +0.000 C 
ATOM     10  C   UNL     1       3.412   6.695  18.642  0.00  0.00    +0.000 C 
ATOM     11  C   UNL     1       3.209   7.793  17.584  0.00  0.00    +0.000 C 
ATOM     12  C   UNL     1       2.733   9.121  18.182  0.00  0.00    +0.000 C 
ATOM     13  C   UNL     1       1.481   8.987  19.084  0.00  0.00    +0.000 C 
ATOM     14  C   UNL     1       0.283   8.538  18.203  0.00  0.00    +0.000 C 
ATOM     15  C   UNL     1       1.173  10.352  19.802  0.00  0.00    +0.000 C 
ATOM     16  C   UNL     1       1.018  11.550  18.825  0.00  0.00    +0.000 C 
ATOM     17  C   UNL     1       0.491  12.838  19.475  0.00  0.00    +0.000 C 
ATOM     18  C   UNL     1      -0.757  12.564  20.327  0.00  0.00    +0.000 C 
ATOM     19  C   UNL     1      -1.891  12.068  19.390  0.00  0.00    +0.000 C 
ENDROOT
BRANCH   2  20
ATOM     20  N   UNL     1      -3.236  13.487  22.956  0.00  0.00    +0.000 N 
ATOM     21  C   UNL     1      -3.419  14.935  23.399  0.00  0.00    +0.000 C 
ATOM     22  C   UNL     1      -4.204  13.160  21.761  0.00  0.00    +0.000 C 
ATOM     23  C   UNL     1      -5.685  13.159  22.184  0.00  0.00    +0.000 C 
ATOM     24  O   UNL     1      -5.927  12.274  23.277  0.00  0.00    +0.000 OA
ATOM     25  C   UNL     1      -5.145  12.610  24.422  0.00  0.00    +0.000 C 
ATOM     26  C   UNL     1      -3.650  12.508  24.105  0.00  0.00    +0.000 C 
ENDBRANCH   2  20
BRANCH  10  27
ATOM     27  N   UNL     1       3.769   5.312  17.992  0.00  0.00    +0.000 N 
ATOM     28  C   UNL     1       4.623   4.485  18.965  0.00  0.00    +0.000 C 
ATOM     29  C   UNL     1       2.544   4.482  17.604  0.00  0.00    +0.000 C 
ATOM     30  C   UNL     1       4.620   5.512  16.727  0.00  0.00    +0.000 C 
ENDBRANCH  10  27
BRANCH   1  31
ATOM     31  O   UNL     1      -2.105  14.632  20.448  0.00  0.00    +0.000 OA
BRANCH  31  33
ATOM     32  C   UNL     1      -0.346  16.186  20.726  0.00  0.00    +0.000 C 
ATOM     33  C   UNL     1      -1.801  15.962  20.462  0.00  0.00    +0.000 C 
ATOM     34  O   UNL     1      -2.600  16.861  20.214  0.00  0.00    +0.000 OA
ENDBRANCH  31  33
ENDBRANCH   1  31
TORSDOF 4
ENDMDL
MODEL 5
REMARK VINA RESULT:      -6.6      1.479      2.061
REMARK  Name = 
REMARK  11 active torsions:
REMARK  status: ('A' for Active; 'I' for Inactive)
REMARK    1  A    between atoms: C_1  and  C_2
REMARK    2  A    between atoms: C_2  and  O_4
REMARK    3  A    between atoms: O_4  and  C_5
REMARK    4  A    between atoms: C_6  and  N_7
REMARK    5  A    between atoms: N_7  and  C_8
REMARK    6  A    between atoms: C_21  and  N_22
REMARK    7  A    between atoms: N_22  and  C_23
REMARK    8  A    between atoms: N_22  and  C_24
REMARK    9  A    between atoms: N_22  and  C_25
REMARK   10  A    between atoms: C_28  and  C_29
REMARK   11  A    between atoms: C_33  and  C_34
REMARK                            x       y       z     vdW  Elec       q    Type
REMARK                         _______ _______ _______ _____ _____    ______ ____
ROOT
ATOM      1  C   UNL     1      -1.757  14.046  21.420  0.00  0.00    +0.000 C 
ATOM      2  C   UNL     1      -2.243  13.414  22.779  0.00  0.00    +0.000 C 
ATOM      3  C   UNL     1      -1.842  11.918  22.716  0.00  0.00    +0.000 C 
ATOM      4  C   UNL     1      -0.743  11.887  21.655  0.00  0.00    +0.000 C 
ATOM      5  C   UNL     1      -0.345  10.535  21.054  0.00  0.00    +0.000 C 
ATOM      6  C   UNL     1       0.092   9.509  22.107  0.00  0.00    +0.000 C 
ATOM      7  C   UNL     1       0.497   8.185  21.456  0.00  0.00    +0.000 C 
ATOM      8  C   UNL     1       1.584   8.389  20.386  0.00  0.00    +0.000 C 
ATOM      9  C   UNL     1       2.045   7.046  19.800  0.00  0.00    +0.000 C 
ATOM     10  C   UNL     1       3.206   7.225  18.798  0.00  0.00    +0.000 C 
ATOM     11  C   UNL     1       2.908   8.301  17.739  0.00  0.00    +0.000 C 
ATOM     12  C   UNL     1       2.371   9.602  18.342  0.00  0.00    +0.000 C 
ATOM     13  C   UNL     1       1.156   9.403  19.280  0.00  0.00    +0.000 C 
ATOM     14  C   UNL     1      -0.038   8.876  18.437  0.00  0.00    +0.000 C 
ATOM     15  C   UNL     1       0.788  10.753  19.998  0.00  0.00    +0.000 C 
ATOM     16  C   UNL     1       0.534  11.931  19.017  0.00  0.00    +0.000 C 
ATOM     17  C   UNL     1      -0.050  13.191  19.674  0.00  0.00    +0.000 C 
ATOM     18  C   UNL     1      -1.255  12.851  20.564  0.00  0.00    +0.000 C 
ATOM     19  C   UNL     1      -2.384  12.281  19.664  0.00  0.00    +0.000 C 
ENDROOT
BRANCH   2  20
ATOM     20  N   UNL     1      -3.708  13.648  23.257  0.00  0.00    +0.000 N 
ATOM     21  C   UNL     1      -3.920  15.036  23.852  0.00  0.00    +0.000 C 
ATOM     22  C   UNL     1      -4.678  13.427  22.040  0.00  0.00    +0.000 C 
ATOM     23  C   UNL     1      -6.155  13.346  22.469  0.00  0.00    +0.000 C 
ATOM     24  O   UNL     1      -6.367  12.344  23.463  0.00  0.00    +0.000 OA
ATOM     25  C   UNL     1      -5.584  12.575  24.633  0.00  0.00    +0.000 C 
ATOM     26  C   UNL     1      -4.089  12.542  24.298  0.00  0.00    +0.000 C 
ENDBRANCH   2  20
BRANCH  10  27
ATOM     27  N   UNL     1       3.626   5.860  18.147  0.00  0.00    +0.000 N 
ATOM     28  C   UNL     1       2.373   5.036  17.814  0.00  0.00    +0.000 C 
ATOM     29  C   UNL     1       4.451   6.018  16.869  0.00  0.00    +0.000 C 
ATOM     30  C   UNL     1       4.449   5.020  19.136  0.00  0.00    +0.000 C 
ENDBRANCH  10  27
BRANCH   1  31
ATOM     31  O   UNL     1      -2.719  14.836  20.709  0.00  0.00    +0.000 OA
BRANCH  31  33
ATOM     32  C   UNL     1      -3.511  17.061  20.808  0.00  0.00    +0.000 C 
ATOM     33  C   UNL     1      -2.376  16.139  20.497  0.00  0.00    +0.000 C 
ATOM     34  O   UNL     1      -1.255  16.518  20.166  0.00  0.00    +0.000 OA
ENDBRANCH  31  33
ENDBRANCH   1  31
TORSDOF 4
ENDMDL
MODEL 6
REMARK VINA RESULT:      -6.5      0.706      1.228
REMARK  Name = 
REMARK  11 active torsions:
REMARK  status: ('A' for Active; 'I' for Inactive)
REMARK    1  A    between atoms: C_1  and  C_2
REMARK    2  A    between atoms: C_2  and  O_4
REMARK    3  A    between atoms: O_4  and  C_5
REMARK    4  A    between atoms: C_6  and  N_7
REMARK    5  A    between atoms: N_7  and  C_8
REMARK    6  A    between atoms: C_21  and  N_22
REMARK    7  A    between atoms: N_22  and  C_23
REMARK    8  A    between atoms: N_22  and  C_24
REMARK    9  A    between atoms: N_22  and  C_25
REMARK   10  A    between atoms: C_28  and  C_29
REMARK   11  A    between atoms: C_33  and  C_34
REMARK                            x       y       z     vdW  Elec       q    Type
REMARK                         _______ _______ _______ _____ _____    ______ ____
ROOT
ATOM      1  C   UNL     1       0.073  13.231  20.194  0.00  0.00    +0.000 C 
ATOM      2  C   UNL     1      -0.606  12.806  21.551  0.00  0.00    +0.000 C 
ATOM      3  C   UNL     1      -0.484  11.262  21.618  0.00  0.00    +0.000 C 
ATOM      4  C   UNL     1       0.655  10.951  20.649  0.00  0.00    +0.000 C 
ATOM      5  C   UNL     1       0.835   9.507  20.171  0.00  0.00    +0.000 C 
ATOM      6  C   UNL     1       1.008   8.506  21.320  0.00  0.00    +0.000 C 
ATOM      7  C   UNL     1       1.204   7.083  20.792  0.00  0.00    +0.000 C 
ATOM      8  C   UNL     1       2.374   7.004  19.797  0.00  0.00    +0.000 C 
ATOM      9  C   UNL     1       2.616   5.558  19.339  0.00  0.00    +0.000 C 
ATOM     10  C   UNL     1       3.851   5.446  18.418  0.00  0.00    +0.000 C 
ATOM     11  C   UNL     1       3.823   6.470  17.270  0.00  0.00    +0.000 C 
ATOM     12  C   UNL     1       3.499   7.891  17.742  0.00  0.00    +0.000 C 
ATOM     13  C   UNL     1       2.210   7.987  18.597  0.00  0.00    +0.000 C 
ATOM     14  C   UNL     1       0.996   7.616  17.702  0.00  0.00    +0.000 C 
ATOM     15  C   UNL     1       2.053   9.434  19.192  0.00  0.00    +0.000 C 
ATOM     16  C   UNL     1       2.082  10.557  18.120  0.00  0.00    +0.000 C 
ATOM     17  C   UNL     1       1.700  11.949  18.644  0.00  0.00    +0.000 C 
ATOM     18  C   UNL     1       0.399  11.902  19.460  0.00  0.00    +0.000 C 
ATOM     19  C   UNL     1      -0.756  11.473  18.516  0.00  0.00    +0.000 C 
ENDROOT
BRANCH   2  20
ATOM     20  N   UNL     1      -2.030  13.335  21.899  0.00  0.00    +0.000 N 
ATOM     21  C   UNL     1      -2.635  12.646  23.117  0.00  0.00    +0.000 C 
ATOM     22  C   UNL     1      -1.946  14.887  22.141  0.00  0.00    +0.000 C 
ATOM     23  C   UNL     1      -3.335  15.550  22.202  0.00  0.00    +0.000 C 
ATOM     24  O   UNL     1      -4.112  15.269  21.037  0.00  0.00    +0.000 OA
ATOM     25  C   UNL     1      -4.304  13.868  20.847  0.00  0.00    +0.000 C 
ATOM     26  C   UNL     1      -2.959  13.159  20.652  0.00  0.00    +0.000 C 
ENDBRANCH   2  20
BRANCH  10  27
ATOM     27  N   UNL     1       4.053   3.981  17.893  0.00  0.00    +0.000 N 
ATOM     28  C   UNL     1       2.728   3.444  17.330  0.00  0.00    +0.000 C 
ATOM     29  C   UNL     1       5.121   3.861  16.805  0.00  0.00    +0.000 C 
ATOM     30  C   UNL     1       4.449   3.043  19.045  0.00  0.00    +0.000 C 
ENDBRANCH  10  27
BRANCH   1  31
ATOM     31  O   UNL     1      -0.681  14.122  19.361  0.00  0.00    +0.000 OA
BRANCH  31  33
ATOM     32  C   UNL     1       1.255  15.428  19.728  0.00  0.00    +0.000 C 
ATOM     33  C   UNL     1      -0.116  15.343  19.136  0.00  0.00    +0.000 C 
ATOM     34  O   UNL     1      -0.632  16.236  18.468  0.00  0.00    +0.000 OA
ENDBRANCH  31  33
ENDBRANCH   1  31
TORSDOF 4
ENDMDL
MODEL 7
REMARK VINA RESULT:      -6.5      0.988      1.284
REMARK  Name = 
REMARK  11 active torsions:
REMARK  status: ('A' for Active; 'I' for Inactive)
REMARK    1  A    between atoms: C_1  and  C_2
REMARK    2  A    between atoms: C_2  and  O_4
REMARK    3  A    between atoms: O_4  and  C_5
REMARK    4  A    between atoms: C_6  and  N_7
REMARK    5  A    between atoms: N_7  and  C_8
REMARK    6  A    between atoms: C_21  and  N_22
REMARK    7  A    between atoms: N_22  and  C_23
REMARK    8  A    between atoms: N_22  and  C_24
REMARK    9  A    between atoms: N_22  and  C_25
REMARK   10  A    between atoms: C_28  and  C_29
REMARK   11  A    between atoms: C_33  and  C_34
REMARK                            x       y       z     vdW  Elec       q    Type
REMARK                         _______ _______ _______ _____ _____    ______ ____
ROOT
ATOM      1  C   UNL     1       0.160  14.055  20.107  0.00  0.00    +0.000 C 
ATOM      2  C   UNL     1      -0.509  13.733  21.497  0.00  0.00    +0.000 C 
ATOM      3  C   UNL     1      -0.478  12.188  21.632  0.00  0.00    +0.000 C 
ATOM      4  C   UNL     1       0.616  11.766  20.652  0.00  0.00    +0.000 C 
ATOM      5  C   UNL     1       0.697  10.294  20.237  0.00  0.00    +0.000 C 
ATOM      6  C   UNL     1       0.839   9.336  21.427  0.00  0.00    +0.000 C 
ATOM      7  C   UNL     1       0.936   7.882  20.960  0.00  0.00    +0.000 C 
ATOM      8  C   UNL     1       2.074   7.688  19.944  0.00  0.00    +0.000 C 
ATOM      9  C   UNL     1       2.217   6.211  19.547  0.00  0.00    +0.000 C 
ATOM     10  C   UNL     1       3.420   5.984  18.605  0.00  0.00    +0.000 C 
ATOM     11  C   UNL     1       3.425   6.956  17.412  0.00  0.00    +0.000 C 
ATOM     12  C   UNL     1       3.197   8.413  17.826  0.00  0.00    +0.000 C 
ATOM     13  C   UNL     1       1.939   8.625  18.704  0.00  0.00    +0.000 C 
ATOM     14  C   UNL     1       0.682   8.290  17.854  0.00  0.00    +0.000 C 
ATOM     15  C   UNL     1       1.883  10.104  19.236  0.00  0.00    +0.000 C 
ATOM     16  C   UNL     1       1.953  11.174  18.112  0.00  0.00    +0.000 C 
ATOM     17  C   UNL     1       1.668  12.609  18.581  0.00  0.00    +0.000 C 
ATOM     18  C   UNL     1       0.388  12.677  19.427  0.00  0.00    +0.000 C 
ATOM     19  C   UNL     1      -0.815  12.278  18.530  0.00  0.00    +0.000 C 
ENDROOT
BRANCH   2  20
ATOM     20  N   UNL     1      -1.889  14.363  21.852  0.00  0.00    +0.000 N 
ATOM     21  C   UNL     1      -1.866  15.888  21.826  0.00  0.00    +0.000 C 
ATOM     22  C   UNL     1      -2.966  13.820  20.844  0.00  0.00    +0.000 C 
ATOM     23  C   UNL     1      -4.405  14.149  21.285  0.00  0.00    +0.000 C 
ATOM     24  O   UNL     1      -4.679  13.680  22.605  0.00  0.00    +0.000 OA
ATOM     25  C   UNL     1      -3.788  14.241  23.568  0.00  0.00    +0.000 C 
ATOM     26  C   UNL     1      -2.340  13.846  23.259  0.00  0.00    +0.000 C 
ENDBRANCH   2  20
BRANCH  10  27
ATOM     27  N   UNL     1       3.520   4.487  18.143  0.00  0.00    +0.000 N 
ATOM     28  C   UNL     1       4.443   4.382  16.920  0.00  0.00    +0.000 C 
ATOM     29  C   UNL     1       4.049   3.545  19.226  0.00  0.00    +0.000 C 
ATOM     30  C   UNL     1       2.145   3.964  17.698  0.00  0.00    +0.000 C 
ENDBRANCH  10  27
BRANCH   1  31
ATOM     31  O   UNL     1      -0.560  14.952  19.251  0.00  0.00    +0.000 OA
BRANCH  31  33
ATOM     32  C   UNL     1      -0.737  17.104  18.288  0.00  0.00    +0.000 C 
ATOM     33  C   UNL     1       0.158  16.000  18.752  0.00  0.00    +0.000 C 
ATOM     34  O   UNL     1       1.385  16.065  18.752  0.00  0.00    +0.000 OA
ENDBRANCH  31  33
ENDBRANCH   1  31
TORSDOF 4
ENDMDL
MODEL 8
REMARK VINA RESULT:      -6.4      1.407      1.638
REMARK  Name = 
REMARK  11 active torsions:
REMARK  status: ('A' for Active; 'I' for Inactive)
REMARK    1  A    between atoms: C_1  and  C_2
REMARK    2  A    between atoms: C_2  and  O_4
REMARK    3  A    between atoms: O_4  and  C_5
REMARK    4  A    between atoms: C_6  and  N_7
REMARK    5  A    between atoms: N_7  and  C_8
REMARK    6  A    between atoms: C_21  and  N_22
REMARK    7  A    between atoms: N_22  and  C_23
REMARK    8  A    between atoms: N_22  and  C_24
REMARK    9  A    between atoms: N_22  and  C_25
REMARK   10  A    between atoms: C_28  and  C_29
REMARK   11  A    between atoms: C_33  and  C_34
REMARK                            x       y       z     vdW  Elec       q    Type
REMARK                         _______ _______ _______ _____ _____    ______ ____
ROOT
ATOM      1  C   UNL     1      -0.292  14.691  20.672  0.00  0.00    +0.000 C 
ATOM      2  C   UNL     1      -0.825  14.362  22.118  0.00  0.00    +0.000 C 
ATOM      3  C   UNL     1      -0.761  12.818  22.250  0.00  0.00    +0.000 C 
ATOM      4  C   UNL     1       0.243  12.409  21.173  0.00  0.00    +0.000 C 
ATOM      5  C   UNL     1       0.305  10.938  20.753  0.00  0.00    +0.000 C 
ATOM      6  C   UNL     1       0.570   9.983  21.925  0.00  0.00    +0.000 C 
ATOM      7  C   UNL     1       0.642   8.530  21.451  0.00  0.00    +0.000 C 
ATOM      8  C   UNL     1       1.684   8.350  20.333  0.00  0.00    +0.000 C 
ATOM      9  C   UNL     1       1.809   6.874  19.925  0.00  0.00    +0.000 C 
ATOM     10  C   UNL     1       2.922   6.662  18.876  0.00  0.00    +0.000 C 
ATOM     11  C   UNL     1       2.803   7.632  17.687  0.00  0.00    +0.000 C 
ATOM     12  C   UNL     1       2.595   9.086  18.120  0.00  0.00    +0.000 C 
ATOM     13  C   UNL     1       1.421   9.283  19.111  0.00  0.00    +0.000 C 
ATOM     14  C   UNL     1       0.096   8.930  18.382  0.00  0.00    +0.000 C 
ATOM     15  C   UNL     1       1.396  10.762  19.646  0.00  0.00    +0.000 C 
ATOM     16  C   UNL     1       1.346  11.831  18.520  0.00  0.00    +0.000 C 
ATOM     17  C   UNL     1       1.086  13.263  19.013  0.00  0.00    +0.000 C 
ATOM     18  C   UNL     1      -0.110  13.315  19.975  0.00  0.00    +0.000 C 
ATOM     19  C   UNL     1      -1.385  12.899  19.193  0.00  0.00    +0.000 C 
ENDROOT
BRANCH   2  20
ATOM     20  N   UNL     1      -2.174  14.974  22.600  0.00  0.00    +0.000 N 
ATOM     21  C   UNL     1      -2.223  16.490  22.447  0.00  0.00    +0.000 C 
ATOM     22  C   UNL     1      -3.348  14.309  21.791  0.00  0.00    +0.000 C 
ATOM     23  C   UNL     1      -4.731  14.627  22.390  0.00  0.00    +0.000 C 
ATOM     24  O   UNL     1      -4.811  14.266  23.769  0.00  0.00    +0.000 OA
ATOM     25  C   UNL     1      -3.829  14.938  24.556  0.00  0.00    +0.000 C 
ATOM     26  C   UNL     1      -2.416  14.566  24.092  0.00  0.00    +0.000 C 
ENDBRANCH   2  20
BRANCH  10  27
ATOM     27  N   UNL     1       2.999   5.166  18.407  0.00  0.00    +0.000 N 
ATOM     28  C   UNL     1       1.632   4.719  17.868  0.00  0.00    +0.000 C 
ATOM     29  C   UNL     1       4.048   4.916  17.321  0.00  0.00    +0.000 C 
ATOM     30  C   UNL     1       3.323   4.243  19.593  0.00  0.00    +0.000 C 
ENDBRANCH  10  27
BRANCH   1  31
ATOM     31  O   UNL     1      -1.101  15.577  19.887  0.00  0.00    +0.000 OA
BRANCH  31  33
ATOM     32  C   UNL     1       0.790  16.995  19.962  0.00  0.00    +0.000 C 
ATOM     33  C   UNL     1      -0.427  16.553  19.212  0.00  0.00    +0.000 C 
ATOM     34  O   UNL     1      -0.732  16.965  18.096  0.00  0.00    +0.000 OA
ENDBRANCH  31  33
ENDBRANCH   1  31
TORSDOF 4
ENDMDL
MODEL 9
REMARK VINA RESULT:      -6.4      1.619      2.248
REMARK  Name = 
REMARK  11 active torsions:
REMARK  status: ('A' for Active; 'I' for Inactive)
REMARK    1  A    between atoms: C_1  and  C_2
REMARK    2  A    between atoms: C_2  and  O_4
REMARK    3  A    between atoms: O_4  and  C_5
REMARK    4  A    between atoms: C_6  and  N_7
REMARK    5  A    between atoms: N_7  and  C_8
REMARK    6  A    between atoms: C_21  and  N_22
REMARK    7  A    between atoms: N_22  and  C_23
REMARK    8  A    between atoms: N_22  and  C_24
REMARK    9  A    between atoms: N_22  and  C_25
REMARK   10  A    between atoms: C_28  and  C_29
REMARK   11  A    between atoms: C_33  and  C_34
REMARK                            x       y       z     vdW  Elec       q    Type
REMARK                         _______ _______ _______ _____ _____    ______ ____
ROOT
ATOM      1  C   UNL     1      -0.371  14.636  20.704  0.00  0.00    +0.000 C 
ATOM      2  C   UNL     1      -0.921  14.296  22.141  0.00  0.00    +0.000 C 
ATOM      3  C   UNL     1      -0.852  12.752  22.265  0.00  0.00    +0.000 C 
ATOM      4  C   UNL     1       0.168  12.353  21.199  0.00  0.00    +0.000 C 
ATOM      5  C   UNL     1       0.241  10.884  20.771  0.00  0.00    +0.000 C 
ATOM      6  C   UNL     1       0.495   9.925  21.941  0.00  0.00    +0.000 C 
ATOM      7  C   UNL     1       0.579   8.475  21.460  0.00  0.00    +0.000 C 
ATOM      8  C   UNL     1       1.636   8.305  20.355  0.00  0.00    +0.000 C 
ATOM      9  C   UNL     1       1.773   6.832  19.940  0.00  0.00    +0.000 C 
ATOM     10  C   UNL     1       2.900   6.630  18.904  0.00  0.00    +0.000 C 
ATOM     11  C   UNL     1       2.793   7.607  17.720  0.00  0.00    +0.000 C 
ATOM     12  C   UNL     1       2.573   9.058  18.158  0.00  0.00    +0.000 C 
ATOM     13  C   UNL     1       1.386   9.244  19.135  0.00  0.00    +0.000 C 
ATOM     14  C   UNL     1       0.071   8.889  18.386  0.00  0.00    +0.000 C 
ATOM     15  C   UNL     1       1.347  10.719  19.677  0.00  0.00    +0.000 C 
ATOM     16  C   UNL     1       1.307  11.795  18.558  0.00  0.00    +0.000 C 
ATOM     17  C   UNL     1       1.035  13.223  19.055  0.00  0.00    +0.000 C 
ATOM     18  C   UNL     1      -0.174  13.265  20.001  0.00  0.00    +0.000 C 
ATOM     19  C   UNL     1      -1.437  12.847  19.201  0.00  0.00    +0.000 C 
ENDROOT
BRANCH   2  20
ATOM     20  N   UNL     1      -2.279  14.899  22.609  0.00  0.00    +0.000 N 
ATOM     21  C   UNL     1      -3.432  14.557  21.671  0.00  0.00    +0.000 C 
ATOM     22  C   UNL     1      -2.589  14.380  24.061  0.00  0.00    +0.000 C 
ATOM     23  C   UNL     1      -3.752  15.142  24.724  0.00  0.00    +0.000 C 
ATOM     24  O   UNL     1      -3.527  16.552  24.737  0.00  0.00    +0.000 OA
ATOM     25  C   UNL     1      -3.351  17.079  23.423  0.00  0.00    +0.000 C 
ATOM     26  C   UNL     1      -2.128  16.451  22.747  0.00  0.00    +0.000 C 
ENDBRANCH   2  20
BRANCH  10  27
ATOM     27  N   UNL     1       2.990   5.138  18.428  0.00  0.00    +0.000 N 
ATOM     28  C   UNL     1       3.331   4.231  19.620  0.00  0.00    +0.000 C 
ATOM     29  C   UNL     1       1.703   4.620  17.784  0.00  0.00    +0.000 C 
ATOM     30  C   UNL     1       4.128   4.962  17.409  0.00  0.00    +0.000 C 
ENDBRANCH  10  27
BRANCH   1  31
ATOM     31  O   UNL     1      -1.173  15.523  19.913  0.00  0.00    +0.000 OA
BRANCH  31  33
ATOM     32  C   UNL     1       0.718  16.935  20.054  0.00  0.00    +0.000 C 
ATOM     33  C   UNL     1      -0.499  16.529  19.285  0.00  0.00    +0.000 C 
ATOM     34  O   UNL     1      -0.806  16.994  18.190  0.00  0.00    +0.000 OA
ENDBRANCH  31  33
ENDBRANCH   1  31
TORSDOF 4
ENDMDL
