MODEL 1
REMARK VINA RESULT:      -8.1      0.000      0.000
REMARK  Name = 
REMARK  4 active torsions:
REMARK  status: ('A' for Active; 'I' for Inactive)
REMARK    1  A    between atoms: C_2  and  C_9
REMARK    2  A    between atoms: C_10  and  C_11
REMARK    3  A    between atoms: C_16  and  C_17
REMARK    4  A    between atoms: C_25  and  O_26
REMARK                            x       y       z     vdW  Elec       q    Type
REMARK                         _______ _______ _______ _____ _____    ______ ____
ROOT
ATOM      1  C   UNL     1       2.261   7.106  18.836  0.00  0.00    +0.000 A 
ATOM      2  C   UNL     1       1.855   6.802  20.133  0.00  0.00    +0.000 A 
ATOM      3  N   UNL     1       1.237   7.748  20.909  0.00  0.00    +0.000 NA
ATOM      4  C   UNL     1       1.033   9.001  20.487  0.00  0.00    +0.000 A 
ATOM      5  C   UNL     1       0.425   9.923  21.337  0.00  0.00    +0.000 A 
ATOM      6  C   UNL     1       0.241  11.257  20.924  0.00  0.00    +0.000 A 
ATOM      7  C   UNL     1       0.641  11.669  19.663  0.00  0.00    +0.000 A 
ATOM      8  C   UNL     1       1.217  10.745  18.797  0.00  0.00    +0.000 A 
ATOM      9  C   UNL     1       1.432   9.402  19.196  0.00  0.00    +0.000 A 
ATOM     10  C   UNL     1       2.032   8.415  18.376  0.00  0.00    +0.000 A 
ENDROOT
BRANCH   1  12
ATOM     11  O   UNL     1       2.401   5.115  17.650  0.00  0.00    +0.000 OA
ATOM     12  C   UNL     1       3.008   6.116  18.014  0.00  0.00    +0.000 C 
ATOM     13  N   UNL     1       4.333   6.399  17.784  0.00  0.00    +0.000 N 
ATOM     14  C   UNL     1       5.132   5.548  17.075  0.00  0.00    +0.000 A 
ATOM     15  N   UNL     1       4.790   4.547  16.305  0.00  0.00    +0.000 NA
ATOM     16  C   UNL     1       5.926   3.930  15.825  0.00  0.00    +0.000 A 
ATOM     17  C   UNL     1       7.121   4.474  16.249  0.00  0.00    +0.000 A 
ATOM     18  S   UNL     1       6.806   5.842  17.240  0.00  0.00    +0.000 S 
ATOM     19  H   UNL     1       4.788   7.135  18.309  0.00  0.00    +0.000 HD
ENDBRANCH   1  12
BRANCH   5  20
ATOM     20  C   UNL     1      -0.054   9.546  22.719  0.00  0.00    +0.000 C 
ATOM     21  F   UNL     1       0.885   9.215  23.641  0.00  0.00    +0.000 F 
ATOM     22  F   UNL     1      -0.787  10.550  23.283  0.00  0.00    +0.000 F 
ATOM     23  F   UNL     1      -0.903   8.474  22.670  0.00  0.00    +0.000 F 
ENDBRANCH   5  20
BRANCH   2  24
ATOM     24  C   UNL     1       2.045   5.447  20.796  0.00  0.00    +0.000 C 
ATOM     25 CL   UNL     1       0.792   4.301  20.228  0.00  0.00    +0.000 Cl
ATOM     26 CL   UNL     1       3.672   4.797  20.401  0.00  0.00    +0.000 Cl
ENDBRANCH   2  24
BRANCH  10  27
ATOM     27  O   UNL     1       2.425   8.731  17.092  0.00  0.00    +0.000 OA
ATOM     28  H   UNL     1       3.381   8.916  17.091  0.00  0.00    +0.000 HD
ENDBRANCH  10  27
TORSDOF 4
ENDMDL
MODEL 2
REMARK VINA RESULT:      -7.6      7.061     10.194
REMARK  Name = 
REMARK  4 active torsions:
REMARK  status: ('A' for Active; 'I' for Inactive)
REMARK    1  A    between atoms: C_2  and  C_9
REMARK    2  A    between atoms: C_10  and  C_11
REMARK    3  A    between atoms: C_16  and  C_17
REMARK    4  A    between atoms: C_25  and  O_26
REMARK                            x       y       z     vdW  Elec       q    Type
REMARK                         _______ _______ _______ _____ _____    ______ ____
ROOT
ATOM      1  C   UNL     1      -3.667  12.792  20.267  0.00  0.00    +0.000 A 
ATOM      2  C   UNL     1      -2.363  12.523  20.676  0.00  0.00    +0.000 A 
ATOM      3  N   UNL     1      -1.549  11.716  19.924  0.00  0.00    +0.000 NA
ATOM      4  C   UNL     1      -1.968  11.119  18.803  0.00  0.00    +0.000 A 
ATOM      5  C   UNL     1      -1.100  10.286  18.101  0.00  0.00    +0.000 A 
ATOM      6  C   UNL     1      -1.538   9.616  16.941  0.00  0.00    +0.000 A 
ATOM      7  C   UNL     1      -2.829   9.790  16.470  0.00  0.00    +0.000 A 
ATOM      8  C   UNL     1      -3.690  10.647  17.147  0.00  0.00    +0.000 A 
ATOM      9  C   UNL     1      -3.280  11.316  18.326  0.00  0.00    +0.000 A 
ATOM     10  C   UNL     1      -4.110  12.184  19.078  0.00  0.00    +0.000 A 
ENDROOT
BRANCH   1  12
ATOM     11  O   UNL     1      -4.428  14.812  21.120  0.00  0.00    +0.000 OA
ATOM     12  C   UNL     1      -4.587  13.596  21.115  0.00  0.00    +0.000 C 
ATOM     13  N   UNL     1      -5.500  12.887  21.857  0.00  0.00    +0.000 N 
ATOM     14  C   UNL     1      -6.374  13.511  22.701  0.00  0.00    +0.000 A 
ATOM     15  N   UNL     1      -6.693  14.778  22.765  0.00  0.00    +0.000 NA
ATOM     16  C   UNL     1      -7.581  14.975  23.802  0.00  0.00    +0.000 A 
ATOM     17  C   UNL     1      -7.916  13.844  24.517  0.00  0.00    +0.000 A 
ATOM     18  S   UNL     1      -7.133  12.478  23.829  0.00  0.00    +0.000 S 
ATOM     19  H   UNL     1      -5.404  11.883  21.946  0.00  0.00    +0.000 HD
ENDBRANCH   1  12
BRANCH   5  20
ATOM     20  C   UNL     1       0.327  10.060  18.542  0.00  0.00    +0.000 C 
ATOM     21  F   UNL     1       1.104  11.155  18.743  0.00  0.00    +0.000 F 
ATOM     22  F   UNL     1       0.382   9.351  19.708  0.00  0.00    +0.000 F 
ATOM     23  F   UNL     1       1.009   9.298  17.633  0.00  0.00    +0.000 F 
ENDBRANCH   5  20
BRANCH   2  24
ATOM     24  C   UNL     1      -1.731  13.075  21.943  0.00  0.00    +0.000 C 
ATOM     25 CL   UNL     1      -2.008  11.952  23.311  0.00  0.00    +0.000 Cl
ATOM     26 CL   UNL     1       0.035  13.296  21.700  0.00  0.00    +0.000 Cl
ENDBRANCH   2  24
BRANCH  10  27
ATOM     27  O   UNL     1      -5.398  12.442  18.657  0.00  0.00    +0.000 OA
ATOM     28  H   UNL     1      -5.412  13.293  18.184  0.00  0.00    +0.000 HD
ENDBRANCH  10  27
TORSDOF 4
ENDMDL
MODEL 3
REMARK VINA RESULT:      -7.4      5.908      9.126
REMARK  Name = 
REMARK  4 active torsions:
REMARK  status: ('A' for Active; 'I' for Inactive)
REMARK    1  A    between atoms: C_2  and  C_9
REMARK    2  A    between atoms: C_10  and  C_11
REMARK    3  A    between atoms: C_16  and  C_17
REMARK    4  A    between atoms: C_25  and  O_26
REMARK                            x       y       z     vdW  Elec       q    Type
REMARK                         _______ _______ _______ _____ _____    ______ ____
ROOT
ATOM      1  C   UNL     1      -1.036  11.440  21.962  0.00  0.00    +0.000 A 
ATOM      2  C   UNL     1      -0.876  11.746  20.613  0.00  0.00    +0.000 A 
ATOM      3  N   UNL     1      -0.146  10.924  19.794  0.00  0.00    +0.000 NA
ATOM      4  C   UNL     1       0.475   9.829  20.245  0.00  0.00    +0.000 A 
ATOM      5  C   UNL     1       1.226   9.051  19.366  0.00  0.00    +0.000 A 
ATOM      6  C   UNL     1       1.922   7.919  19.834  0.00  0.00    +0.000 A 
ATOM      7  C   UNL     1       1.854   7.549  21.167  0.00  0.00    +0.000 A 
ATOM      8  C   UNL     1       1.079   8.301  22.043  0.00  0.00    +0.000 A 
ATOM      9  C   UNL     1       0.386   9.455  21.602  0.00  0.00    +0.000 A 
ATOM     10  C   UNL     1      -0.402  10.280  22.442  0.00  0.00    +0.000 A 
ENDROOT
BRANCH   1  12
ATOM     11  O   UNL     1      -2.892  12.060  23.211  0.00  0.00    +0.000 OA
ATOM     12  C   UNL     1      -1.752  12.366  22.879  0.00  0.00    +0.000 C 
ATOM     13  N   UNL     1      -1.079  13.512  23.228  0.00  0.00    +0.000 N 
ATOM     14  C   UNL     1      -1.647  14.457  24.035  0.00  0.00    +0.000 A 
ATOM     15  N   UNL     1      -2.707  14.361  24.795  0.00  0.00    +0.000 NA
ATOM     16  C   UNL     1      -2.950  15.576  25.399  0.00  0.00    +0.000 A 
ATOM     17  C   UNL     1      -2.065  16.585  25.079  0.00  0.00    +0.000 A 
ATOM     18  S   UNL     1      -0.855  15.970  24.024  0.00  0.00    +0.000 S 
ATOM     19  H   UNL     1      -0.237  13.772  22.730  0.00  0.00    +0.000 HD
ENDBRANCH   1  12
BRANCH   5  20
ATOM     20  C   UNL     1       1.333   9.380  17.896  0.00  0.00    +0.000 C 
ATOM     21  F   UNL     1       0.178   9.521  17.197  0.00  0.00    +0.000 F 
ATOM     22  F   UNL     1       2.028  10.538  17.694  0.00  0.00    +0.000 F 
ATOM     23  F   UNL     1       2.042   8.421  17.227  0.00  0.00    +0.000 F 
ENDBRANCH   5  20
BRANCH   2  24
ATOM     24  C   UNL     1      -1.470  12.970  19.935  0.00  0.00    +0.000 C 
ATOM     25 CL   UNL     1      -0.642  13.275  18.376  0.00  0.00    +0.000 Cl
ATOM     26 CL   UNL     1      -3.223  12.714  19.640  0.00  0.00    +0.000 Cl
ENDBRANCH   2  24
BRANCH  10  27
ATOM     27  O   UNL     1      -0.553   9.961  23.776  0.00  0.00    +0.000 OA
ATOM     28  H   UNL     1      -0.907  10.735  24.248  0.00  0.00    +0.000 HD
ENDBRANCH  10  27
TORSDOF 4
ENDMDL
MODEL 4
REMARK VINA RESULT:      -7.3      6.781      7.979
REMARK  Name = 
REMARK  4 active torsions:
REMARK  status: ('A' for Active; 'I' for Inactive)
REMARK    1  A    between atoms: C_2  and  C_9
REMARK    2  A    between atoms: C_10  and  C_11
REMARK    3  A    between atoms: C_16  and  C_17
REMARK    4  A    between atoms: C_25  and  O_26
REMARK                            x       y       z     vdW  Elec       q    Type
REMARK                         _______ _______ _______ _____ _____    ______ ____
ROOT
ATOM      1  C   UNL     1      -0.719  12.094  19.851  0.00  0.00    +0.000 A 
ATOM      2  C   UNL     1      -1.943  12.580  20.303  0.00  0.00    +0.000 A 
ATOM      3  N   UNL     1      -3.101  12.284  19.631  0.00  0.00    +0.000 NA
ATOM      4  C   UNL     1      -3.113  11.564  18.504  0.00  0.00    +0.000 A 
ATOM      5  C   UNL     1      -4.321  11.324  17.853  0.00  0.00    +0.000 A 
ATOM      6  C   UNL     1      -4.346  10.604  16.642  0.00  0.00    +0.000 A 
ATOM      7  C   UNL     1      -3.176  10.107  16.091  0.00  0.00    +0.000 A 
ATOM      8  C   UNL     1      -1.971  10.314  16.753  0.00  0.00    +0.000 A 
ATOM      9  C   UNL     1      -1.917  11.052  17.962  0.00  0.00    +0.000 A 
ATOM     10  C   UNL     1      -0.723  11.320  18.677  0.00  0.00    +0.000 A 
ENDROOT
BRANCH   1  12
ATOM     11  O   UNL     1       0.843  11.888  21.556  0.00  0.00    +0.000 OA
ATOM     12  C   UNL     1       0.553  12.477  20.521  0.00  0.00    +0.000 C 
ATOM     13  N   UNL     1       1.261  13.499  19.935  0.00  0.00    +0.000 N 
ATOM     14  C   UNL     1       2.425  13.964  20.477  0.00  0.00    +0.000 A 
ATOM     15  N   UNL     1       3.182  13.419  21.393  0.00  0.00    +0.000 NA
ATOM     16  C   UNL     1       4.237  14.260  21.677  0.00  0.00    +0.000 A 
ATOM     17  C   UNL     1       4.259  15.443  20.968  0.00  0.00    +0.000 A 
ATOM     18  S   UNL     1       2.938  15.476  19.870  0.00  0.00    +0.000 S 
ATOM     19  H   UNL     1       0.828  14.060  19.212  0.00  0.00    +0.000 HD
ENDBRANCH   1  12
BRANCH   5  20
ATOM     20  C   UNL     1      -5.639  11.818  18.401  0.00  0.00    +0.000 C 
ATOM     21  F   UNL     1      -5.734  13.134  18.720  0.00  0.00    +0.000 F 
ATOM     22  F   UNL     1      -6.663  11.576  17.530  0.00  0.00    +0.000 F 
ATOM     23  F   UNL     1      -5.981  11.147  19.543  0.00  0.00    +0.000 F 
ENDBRANCH   5  20
BRANCH   2  24
ATOM     24  C   UNL     1      -2.118  13.450  21.537  0.00  0.00    +0.000 C 
ATOM     25 CL   UNL     1      -3.593  14.454  21.381  0.00  0.00    +0.000 Cl
ATOM     26 CL   UNL     1      -2.252  12.415  23.000  0.00  0.00    +0.000 Cl
ENDBRANCH   2  24
BRANCH  10  27
ATOM     27  O   UNL     1       0.481  10.829  18.217  0.00  0.00    +0.000 OA
ATOM     28  H   UNL     1       1.084  10.712  18.973  0.00  0.00    +0.000 HD
ENDBRANCH  10  27
TORSDOF 4
ENDMDL
MODEL 5
REMARK VINA RESULT:      -7.3      3.973      6.871
REMARK  Name = 
REMARK  4 active torsions:
REMARK  status: ('A' for Active; 'I' for Inactive)
REMARK    1  A    between atoms: C_2  and  C_9
REMARK    2  A    between atoms: C_10  and  C_11
REMARK    3  A    between atoms: C_16  and  C_17
REMARK    4  A    between atoms: C_25  and  O_26
REMARK                            x       y       z     vdW  Elec       q    Type
REMARK                         _______ _______ _______ _____ _____    ______ ____
ROOT
ATOM      1  C   UNL     1       1.120  10.195  19.036  0.00  0.00    +0.000 A 
ATOM      2  C   UNL     1       0.683   9.336  20.041  0.00  0.00    +0.000 A 
ATOM      3  N   UNL     1       1.182   8.063  20.134  0.00  0.00    +0.000 NA
ATOM      4  C   UNL     1       2.065   7.572  19.257  0.00  0.00    +0.000 A 
ATOM      5  C   UNL     1       2.510   6.259  19.391  0.00  0.00    +0.000 A 
ATOM      6  C   UNL     1       3.407   5.712  18.451  0.00  0.00    +0.000 A 
ATOM      7  C   UNL     1       3.875   6.475  17.394  0.00  0.00    +0.000 A 
ATOM      8  C   UNL     1       3.461   7.798  17.275  0.00  0.00    +0.000 A 
ATOM      9  C   UNL     1       2.544   8.364  18.194  0.00  0.00    +0.000 A 
ATOM     10  C   UNL     1       2.063   9.694  18.120  0.00  0.00    +0.000 A 
ENDROOT
BRANCH   1  12
ATOM     11  O   UNL     1      -0.622  11.611  18.442  0.00  0.00    +0.000 OA
ATOM     12  C   UNL     1       0.525  11.549  18.872  0.00  0.00    +0.000 C 
ATOM     13  N   UNL     1       1.345  12.610  19.172  0.00  0.00    +0.000 N 
ATOM     14  C   UNL     1       0.925  13.901  19.026  0.00  0.00    +0.000 A 
ATOM     15  N   UNL     1      -0.290  14.359  18.868  0.00  0.00    +0.000 NA
ATOM     16  C   UNL     1      -0.248  15.728  18.711  0.00  0.00    +0.000 A 
ATOM     17  C   UNL     1       1.011  16.290  18.747  0.00  0.00    +0.000 A 
ATOM     18  S   UNL     1       2.177  15.062  19.041  0.00  0.00    +0.000 S 
ATOM     19  H   UNL     1       2.336  12.456  19.308  0.00  0.00    +0.000 HD
ENDBRANCH   1  12
BRANCH   5  20
ATOM     20  C   UNL     1       2.059   5.370  20.526  0.00  0.00    +0.000 C 
ATOM     21  F   UNL     1       0.756   4.992  20.549  0.00  0.00    +0.000 F 
ATOM     22  F   UNL     1       2.780   4.211  20.568  0.00  0.00    +0.000 F 
ATOM     23  F   UNL     1       2.281   5.968  21.737  0.00  0.00    +0.000 F 
ENDBRANCH   5  20
BRANCH   2  24
ATOM     24  C   UNL     1      -0.347   9.704  21.097  0.00  0.00    +0.000 C 
ATOM     25 CL   UNL     1      -0.638   8.313  22.187  0.00  0.00    +0.000 Cl
ATOM     26 CL   UNL     1       0.238  11.104  22.058  0.00  0.00    +0.000 Cl
ENDBRANCH   2  24
BRANCH  10  27
ATOM     27  O   UNL     1       2.508  10.534  17.120  0.00  0.00    +0.000 OA
ATOM     28  H   UNL     1       1.847  11.235  16.979  0.00  0.00    +0.000 HD
ENDBRANCH  10  27
TORSDOF 4
ENDMDL
MODEL 6
REMARK VINA RESULT:      -7.3      5.844      9.025
REMARK  Name = 
REMARK  4 active torsions:
REMARK  status: ('A' for Active; 'I' for Inactive)
REMARK    1  A    between atoms: C_2  and  C_9
REMARK    2  A    between atoms: C_10  and  C_11
REMARK    3  A    between atoms: C_16  and  C_17
REMARK    4  A    between atoms: C_25  and  O_26
REMARK                            x       y       z     vdW  Elec       q    Type
REMARK                         _______ _______ _______ _____ _____    ______ ____
ROOT
ATOM      1  C   UNL     1      -0.898  11.364  21.770  0.00  0.00    +0.000 A 
ATOM      2  C   UNL     1      -0.527  11.757  20.487  0.00  0.00    +0.000 A 
ATOM      3  N   UNL     1       0.227  10.929  19.696  0.00  0.00    +0.000 NA
ATOM      4  C   UNL     1       0.674   9.742  20.120  0.00  0.00    +0.000 A 
ATOM      5  C   UNL     1       1.461   8.961  19.276  0.00  0.00    +0.000 A 
ATOM      6  C   UNL     1       1.976   7.728  19.723  0.00  0.00    +0.000 A 
ATOM      7  C   UNL     1       1.692   7.263  20.997  0.00  0.00    +0.000 A 
ATOM      8  C   UNL     1       0.879   8.022  21.832  0.00  0.00    +0.000 A 
ATOM      9  C   UNL     1       0.366   9.275  21.414  0.00  0.00    +0.000 A 
ATOM     10  C   UNL     1      -0.448  10.109  22.219  0.00  0.00    +0.000 A 
ENDROOT
BRANCH   1  12
ATOM     11  O   UNL     1      -2.808  12.005  22.924  0.00  0.00    +0.000 OA
ATOM     12  C   UNL     1      -1.642  12.286  22.669  0.00  0.00    +0.000 C 
ATOM     13  N   UNL     1      -0.960  13.402  23.091  0.00  0.00    +0.000 N 
ATOM     14  C   UNL     1      -1.548  14.341  23.889  0.00  0.00    +0.000 A 
ATOM     15  N   UNL     1      -2.654  14.256  24.582  0.00  0.00    +0.000 NA
ATOM     16  C   UNL     1      -2.898  15.461  25.205  0.00  0.00    +0.000 A 
ATOM     17  C   UNL     1      -1.968  16.451  24.967  0.00  0.00    +0.000 A 
ATOM     18  S   UNL     1      -0.715  15.829  23.969  0.00  0.00    +0.000 S 
ATOM     19  H   UNL     1      -0.082  13.650  22.651  0.00  0.00    +0.000 HD
ENDBRANCH   1  12
BRANCH   5  20
ATOM     20  C   UNL     1       1.798   9.391  17.869  0.00  0.00    +0.000 C 
ATOM     21  F   UNL     1       2.403  10.596  17.707  0.00  0.00    +0.000 F 
ATOM     22  F   UNL     1       2.614   8.486  17.253  0.00  0.00    +0.000 F 
ATOM     23  F   UNL     1       0.677   9.445  17.087  0.00  0.00    +0.000 F 
ENDBRANCH   5  20
BRANCH   2  24
ATOM     24  C   UNL     1      -0.904  13.087  19.854  0.00  0.00    +0.000 C 
ATOM     25 CL   UNL     1       0.358  14.312  20.193  0.00  0.00    +0.000 Cl
ATOM     26 CL   UNL     1      -1.082  12.889  18.077  0.00  0.00    +0.000 Cl
ENDBRANCH   2  24
BRANCH  10  27
ATOM     27  O   UNL     1      -0.810   9.704  23.487  0.00  0.00    +0.000 OA
ATOM     28  H   UNL     1      -1.701  10.042  23.685  0.00  0.00    +0.000 HD
ENDBRANCH  10  27
TORSDOF 4
ENDMDL
MODEL 7
REMARK VINA RESULT:      -7.3      6.124      9.335
REMARK  Name = 
REMARK  4 active torsions:
REMARK  status: ('A' for Active; 'I' for Inactive)
REMARK    1  A    between atoms: C_2  and  C_9
REMARK    2  A    between atoms: C_10  and  C_11
REMARK    3  A    between atoms: C_16  and  C_17
REMARK    4  A    between atoms: C_25  and  O_26
REMARK                            x       y       z     vdW  Elec       q    Type
REMARK                         _______ _______ _______ _____ _____    ______ ____
ROOT
ATOM      1  C   UNL     1      -0.742  11.890  21.736  0.00  0.00    +0.000 A 
ATOM      2  C   UNL     1      -0.352  12.178  20.431  0.00  0.00    +0.000 A 
ATOM      3  N   UNL     1       0.319  11.245  19.683  0.00  0.00    +0.000 NA
ATOM      4  C   UNL     1       0.668  10.050  20.170  0.00  0.00    +0.000 A 
ATOM      5  C   UNL     1       1.376   9.159  19.367  0.00  0.00    +0.000 A 
ATOM      6  C   UNL     1       1.788   7.912  19.879  0.00  0.00    +0.000 A 
ATOM      7  C   UNL     1       1.479   7.544  21.178  0.00  0.00    +0.000 A 
ATOM      8  C   UNL     1       0.743   8.415  21.974  0.00  0.00    +0.000 A 
ATOM      9  C   UNL     1       0.334   9.683  21.490  0.00  0.00    +0.000 A 
ATOM     10  C   UNL     1      -0.397  10.627  22.252  0.00  0.00    +0.000 A 
ENDROOT
BRANCH   1  12
ATOM     11  O   UNL     1      -0.747  13.367  23.528  0.00  0.00    +0.000 OA
ATOM     12  C   UNL     1      -1.395  12.921  22.587  0.00  0.00    +0.000 C 
ATOM     13  N   UNL     1      -2.691  13.239  22.263  0.00  0.00    +0.000 N 
ATOM     14  C   UNL     1      -3.409  14.144  22.992  0.00  0.00    +0.000 A 
ATOM     15  N   UNL     1      -2.984  15.015  23.870  0.00  0.00    +0.000 NA
ATOM     16  C   UNL     1      -4.061  15.694  24.400  0.00  0.00    +0.000 A 
ATOM     17  C   UNL     1      -5.296  15.318  23.915  0.00  0.00    +0.000 A 
ATOM     18  S   UNL     1      -5.093  14.108  22.712  0.00  0.00    +0.000 S 
ATOM     19  H   UNL     1      -3.202  12.660  21.609  0.00  0.00    +0.000 HD
ENDBRANCH   1  12
BRANCH   5  20
ATOM     20  C   UNL     1       1.734   9.480  17.935  0.00  0.00    +0.000 C 
ATOM     21  F   UNL     1       2.373  10.653  17.695  0.00  0.00    +0.000 F 
ATOM     22  F   UNL     1       2.528   8.511  17.391  0.00  0.00    +0.000 F 
ATOM     23  F   UNL     1       0.619   9.510  17.143  0.00  0.00    +0.000 F 
ENDBRANCH   5  20
BRANCH   2  24
ATOM     24  C   UNL     1      -0.621  13.498  19.727  0.00  0.00    +0.000 C 
ATOM     25 CL   UNL     1       0.644  14.693  20.152  0.00  0.00    +0.000 Cl
ATOM     26 CL   UNL     1      -0.634  13.250  17.948  0.00  0.00    +0.000 Cl
ENDBRANCH   2  24
BRANCH  10  27
ATOM     27  O   UNL     1      -0.778  10.326  23.543  0.00  0.00    +0.000 OA
ATOM     28  H   UNL     1       0.011  10.321  24.113  0.00  0.00    +0.000 HD
ENDBRANCH  10  27
TORSDOF 4
ENDMDL
MODEL 8
REMARK VINA RESULT:      -7.2      9.931     11.479
REMARK  Name = 
REMARK  4 active torsions:
REMARK  status: ('A' for Active; 'I' for Inactive)
REMARK    1  A    between atoms: C_2  and  C_9
REMARK    2  A    between atoms: C_10  and  C_11
REMARK    3  A    between atoms: C_16  and  C_17
REMARK    4  A    between atoms: C_25  and  O_26
REMARK                            x       y       z     vdW  Elec       q    Type
REMARK                         _______ _______ _______ _____ _____    ______ ____
ROOT
ATOM      1  C   UNL     1       8.535  12.816  21.724  0.00  0.00    +0.000 A 
ATOM      2  C   UNL     1       8.462  14.116  21.232  0.00  0.00    +0.000 A 
ATOM      3  N   UNL     1       9.089  14.454  20.061  0.00  0.00    +0.000 NA
ATOM      4  C   UNL     1       9.827  13.582  19.364  0.00  0.00    +0.000 A 
ATOM      5  C   UNL     1      10.464  13.998  18.197  0.00  0.00    +0.000 A 
ATOM      6  C   UNL     1      11.279  13.104  17.474  0.00  0.00    +0.000 A 
ATOM      7  C   UNL     1      11.444  11.796  17.900  0.00  0.00    +0.000 A 
ATOM      8  C   UNL     1      10.783  11.365  19.046  0.00  0.00    +0.000 A 
ATOM      9  C   UNL     1       9.974  12.250  19.801  0.00  0.00    +0.000 A 
ATOM     10  C   UNL     1       9.292  11.886  20.988  0.00  0.00    +0.000 A 
ENDROOT
BRANCH   1  12
ATOM     11  O   UNL     1       6.949  11.721  23.020  0.00  0.00    +0.000 OA
ATOM     12  C   UNL     1       7.930  12.456  23.035  0.00  0.00    +0.000 C 
ATOM     13  N   UNL     1       8.505  13.030  24.143  0.00  0.00    +0.000 N 
ATOM     14  C   UNL     1       8.016  12.806  25.399  0.00  0.00    +0.000 A 
ATOM     15  N   UNL     1       7.182  11.884  25.805  0.00  0.00    +0.000 NA
ATOM     16  C   UNL     1       6.924  12.059  27.148  0.00  0.00    +0.000 A 
ATOM     17  C   UNL     1       7.567  13.125  27.741  0.00  0.00    +0.000 A 
ATOM     18  S   UNL     1       8.573  13.901  26.584  0.00  0.00    +0.000 S 
ATOM     19  H   UNL     1       9.167  13.788  24.030  0.00  0.00    +0.000 HD
ENDBRANCH   1  12
BRANCH   5  20
ATOM     20  C   UNL     1      10.318  15.402  17.660  0.00  0.00    +0.000 C 
ATOM     21  F   UNL     1      10.760  16.422  18.439  0.00  0.00    +0.000 F 
ATOM     22  F   UNL     1      10.961  15.547  16.465  0.00  0.00    +0.000 F 
ATOM     23  F   UNL     1       9.008  15.695  17.395  0.00  0.00    +0.000 F 
ENDBRANCH   5  20
BRANCH   2  24
ATOM     24  C   UNL     1       7.709  15.249  21.911  0.00  0.00    +0.000 C 
ATOM     25 CL   UNL     1       8.843  16.270  22.848  0.00  0.00    +0.000 Cl
ATOM     26 CL   UNL     1       6.879  16.257  20.676  0.00  0.00    +0.000 Cl
ENDBRANCH   2  24
BRANCH  10  27
ATOM     27  O   UNL     1       9.372  10.593  21.461  0.00  0.00    +0.000 OA
ATOM     28  H   UNL     1       9.984  10.570  22.217  0.00  0.00    +0.000 HD
ENDBRANCH  10  27
TORSDOF 4
ENDMDL
MODEL 9
REMARK VINA RESULT:      -7.1      7.207     10.322
REMARK  Name = 
REMARK  4 active torsions:
REMARK  status: ('A' for Active; 'I' for Inactive)
REMARK    1  A    between atoms: C_2  and  C_9
REMARK    2  A    between atoms: C_10  and  C_11
REMARK    3  A    between atoms: C_16  and  C_17
REMARK    4  A    between atoms: C_25  and  O_26
REMARK                            x       y       z     vdW  Elec       q    Type
REMARK                         _______ _______ _______ _____ _____    ______ ____
ROOT
ATOM      1  C   UNL     1      -3.742  12.652  20.465  0.00  0.00    +0.000 A 
ATOM      2  C   UNL     1      -2.427  12.359  20.817  0.00  0.00    +0.000 A 
ATOM      3  N   UNL     1      -1.626  11.631  19.976  0.00  0.00    +0.000 NA
ATOM      4  C   UNL     1      -2.068  11.136  18.814  0.00  0.00    +0.000 A 
ATOM      5  C   UNL     1      -1.210  10.379  18.019  0.00  0.00    +0.000 A 
ATOM      6  C   UNL     1      -1.672   9.813  16.813  0.00  0.00    +0.000 A 
ATOM      7  C   UNL     1      -2.975  10.018  16.390  0.00  0.00    +0.000 A 
ATOM      8  C   UNL     1      -3.826  10.801  17.163  0.00  0.00    +0.000 A 
ATOM      9  C   UNL     1      -3.392  11.364  18.389  0.00  0.00    +0.000 A 
ATOM     10  C   UNL     1      -4.210  12.151  19.236  0.00  0.00    +0.000 A 
ENDROOT
BRANCH   1  12
ATOM     11  O   UNL     1      -5.132  12.716  22.324  0.00  0.00    +0.000 OA
ATOM     12  C   UNL     1      -4.647  13.366  21.404  0.00  0.00    +0.000 C 
ATOM     13  N   UNL     1      -4.896  14.687  21.117  0.00  0.00    +0.000 N 
ATOM     14  C   UNL     1      -5.739  15.439  21.885  0.00  0.00    +0.000 A 
ATOM     15  N   UNL     1      -6.210  15.187  23.079  0.00  0.00    +0.000 NA
ATOM     16  C   UNL     1      -7.067  16.198  23.456  0.00  0.00    +0.000 A 
ATOM     17  C   UNL     1      -7.239  17.206  22.531  0.00  0.00    +0.000 A 
ATOM     18  S   UNL     1      -6.246  16.900  21.162  0.00  0.00    +0.000 S 
ATOM     19  H   UNL     1      -4.622  15.066  20.219  0.00  0.00    +0.000 HD
ENDBRANCH   1  12
BRANCH   5  20
ATOM     20  C   UNL     1       0.228  10.127  18.404  0.00  0.00    +0.000 C 
ATOM     21  F   UNL     1       1.044  11.205  18.527  0.00  0.00    +0.000 F 
ATOM     22  F   UNL     1       0.316   9.461  19.593  0.00  0.00    +0.000 F 
ATOM     23  F   UNL     1       0.846   9.311  17.496  0.00  0.00    +0.000 F 
ENDBRANCH   5  20
BRANCH   2  24
ATOM     24  C   UNL     1      -1.769  12.799  22.115  0.00  0.00    +0.000 C 
ATOM     25 CL   UNL     1      -1.878  11.493  23.336  0.00  0.00    +0.000 Cl
ATOM     26 CL   UNL     1      -0.043  13.198  21.819  0.00  0.00    +0.000 Cl
ENDBRANCH   2  24
BRANCH  10  27
ATOM     27  O   UNL     1      -5.510  12.435  18.871  0.00  0.00    +0.000 OA
ATOM     28  H   UNL     1      -6.042  12.571  19.675  0.00  0.00    +0.000 HD
ENDBRANCH  10  27
TORSDOF 4
ENDMDL
