MODEL 1
REMARK VINA RESULT:      -8.6      0.000      0.000
REMARK  Name = 
REMARK  4 active torsions:
REMARK  status: ('A' for Active; 'I' for Inactive)
REMARK    1  A    between atoms: C_1  and  C_2
REMARK    2  A    between atoms: C_7  and  C_8
REMARK    3  A    between atoms: C_11  and  C_12
REMARK    4  A    between atoms: C_18  and  C_19
REMARK                            x       y       z     vdW  Elec       q    Type
REMARK                         _______ _______ _______ _____ _____    ______ ____
ROOT
ATOM      1  C   UNL     1       2.171   6.413  19.610  0.00  0.00    +0.000 A 
ATOM      2  C   UNL     1       2.670   5.357  20.424  0.00  0.00    +0.000 A 
ATOM      3  C   UNL     1       3.283   4.503  19.524  0.00  0.00    +0.000 A 
ATOM      4  N   UNL     1       3.107   5.085  18.318  0.00  0.00    +0.000 N 
ATOM      5  N   UNL     1       2.270   6.109  18.309  0.00  0.00    +0.000 NA
ATOM      6  C   UNL     1       3.985   4.863  17.190  0.00  0.00    +0.000 C 
ATOM      7  C   UNL     1       5.343   4.402  17.710  0.00  0.00    +0.000 C 
ATOM      8  O   UNL     1       5.340   3.497  18.831  0.00  0.00    +0.000 OA
ATOM      9  C   UNL     1       4.131   3.298  19.578  0.00  0.00    +0.000 C 
ENDROOT
BRANCH   7  10
ATOM     10  C   UNL     1       6.311   5.544  18.009  0.00  0.00    +0.000 A 
ATOM     11  C   UNL     1       7.259   5.467  19.042  0.00  0.00    +0.000 A 
ATOM     12  C   UNL     1       8.226   6.461  19.201  0.00  0.00    +0.000 A 
ATOM     13  C   UNL     1       8.252   7.552  18.338  0.00  0.00    +0.000 A 
ATOM     14  C   UNL     1       7.277   7.680  17.353  0.00  0.00    +0.000 A 
ATOM     15  C   UNL     1       6.303   6.691  17.199  0.00  0.00    +0.000 A 
ENDBRANCH   7  10
BRANCH   1  19
ATOM     16  C   UNL     1       0.915   9.732  19.883  0.00  0.00    +0.000 A 
ATOM     17  N   UNL     1       0.610   9.309  21.121  0.00  0.00    +0.000 NA
ATOM     18  O   UNL     1       1.141   8.040  21.173  0.00  0.00    +0.000 OA
ATOM     19  C   UNL     1       1.730   7.793  19.956  0.00  0.00    +0.000 A 
ATOM     20  N   UNL     1       1.664   8.832  19.149  0.00  0.00    +0.000 NA
BRANCH  16  27
ATOM     21  C   UNL     1      -1.582  10.057  18.223  0.00  0.00    +0.000 C 
ATOM     22  C   UNL     1      -0.685  11.204  18.602  0.00  0.00    +0.000 A 
ATOM     23  C   UNL     1      -1.031  12.499  18.176  0.00  0.00    +0.000 A 
ATOM     24  C   UNL     1      -0.267  13.608  18.542  0.00  0.00    +0.000 A 
ATOM     25  C   UNL     1       0.853  13.446  19.348  0.00  0.00    +0.000 A 
ATOM     26  C   UNL     1       1.215  12.169  19.771  0.00  0.00    +0.000 A 
ATOM     27  C   UNL     1       0.470  11.034  19.395  0.00  0.00    +0.000 A 
ENDBRANCH  16  27
ENDBRANCH   1  19
TORSDOF 3
ENDMDL
MODEL 2
REMARK VINA RESULT:      -8.4      3.851      7.348
REMARK  Name = 
REMARK  4 active torsions:
REMARK  status: ('A' for Active; 'I' for Inactive)
REMARK    1  A    between atoms: C_1  and  C_2
REMARK    2  A    between atoms: C_7  and  C_8
REMARK    3  A    between atoms: C_11  and  C_12
REMARK    4  A    between atoms: C_18  and  C_19
REMARK                            x       y       z     vdW  Elec       q    Type
REMARK                         _______ _______ _______ _____ _____    ______ ____
ROOT
ATOM      1  C   UNL     1       7.518   7.002  17.715  0.00  0.00    +0.000 A 
ATOM      2  C   UNL     1       6.990   6.415  16.530  0.00  0.00    +0.000 A 
ATOM      3  C   UNL     1       6.451   5.216  16.963  0.00  0.00    +0.000 A 
ATOM      4  N   UNL     1       6.689   5.189  18.292  0.00  0.00    +0.000 N 
ATOM      5  N   UNL     1       7.506   6.132  18.732  0.00  0.00    +0.000 NA
ATOM      6  C   UNL     1       5.887   4.435  19.230  0.00  0.00    +0.000 C 
ATOM      7  C   UNL     1       4.509   4.202  18.620  0.00  0.00    +0.000 C 
ATOM      8  O   UNL     1       4.461   3.913  17.209  0.00  0.00    +0.000 OA
ATOM      9  C   UNL     1       5.625   4.133  16.400  0.00  0.00    +0.000 C 
ENDROOT
BRANCH   7  10
ATOM     10  C   UNL     1       3.503   5.309  18.924  0.00  0.00    +0.000 A 
ATOM     11  C   UNL     1       2.716   5.304  20.086  0.00  0.00    +0.000 A 
ATOM     12  C   UNL     1       1.913   6.398  20.412  0.00  0.00    +0.000 A 
ATOM     13  C   UNL     1       1.875   7.509  19.575  0.00  0.00    +0.000 A 
ATOM     14  C   UNL     1       2.594   7.503  18.383  0.00  0.00    +0.000 A 
ATOM     15  C   UNL     1       3.390   6.404  18.051  0.00  0.00    +0.000 A 
ENDBRANCH   7  10
BRANCH   1  19
ATOM     16  C   UNL     1       9.009  10.150  18.447  0.00  0.00    +0.000 A 
ATOM     17  N   UNL     1       8.023  10.587  17.647  0.00  0.00    +0.000 NA
ATOM     18  O   UNL     1       7.301   9.449  17.366  0.00  0.00    +0.000 OA
ATOM     19  C   UNL     1       7.911   8.406  18.022  0.00  0.00    +0.000 A 
ATOM     20  N   UNL     1       8.935   8.803  18.748  0.00  0.00    +0.000 NA
BRANCH  16  27
ATOM     21  C   UNL     1       9.060  11.172  21.284  0.00  0.00    +0.000 C 
ATOM     22  C   UNL     1      10.081  11.556  20.248  0.00  0.00    +0.000 A 
ATOM     23  C   UNL     1      11.124  12.423  20.619  0.00  0.00    +0.000 A 
ATOM     24  C   UNL     1      12.130  12.772  19.715  0.00  0.00    +0.000 A 
ATOM     25  C   UNL     1      12.117  12.253  18.426  0.00  0.00    +0.000 A 
ATOM     26  C   UNL     1      11.087  11.400  18.040  0.00  0.00    +0.000 A 
ATOM     27  C   UNL     1      10.050  11.052  18.930  0.00  0.00    +0.000 A 
ENDBRANCH  16  27
ENDBRANCH   1  19
TORSDOF 3
ENDMDL
MODEL 3
REMARK VINA RESULT:      -8.2      2.008      8.349
REMARK  Name = 
REMARK  4 active torsions:
REMARK  status: ('A' for Active; 'I' for Inactive)
REMARK    1  A    between atoms: C_1  and  C_2
REMARK    2  A    between atoms: C_7  and  C_8
REMARK    3  A    between atoms: C_11  and  C_12
REMARK    4  A    between atoms: C_18  and  C_19
REMARK                            x       y       z     vdW  Elec       q    Type
REMARK                         _______ _______ _______ _____ _____    ______ ____
ROOT
ATOM      1  C   UNL     1       1.001   8.932  21.021  0.00  0.00    +0.000 A 
ATOM      2  C   UNL     1       0.001   9.234  21.989  0.00  0.00    +0.000 A 
ATOM      3  C   UNL     1      -0.279  10.572  21.773  0.00  0.00    +0.000 A 
ATOM      4  N   UNL     1       0.531  10.936  20.756  0.00  0.00    +0.000 N 
ATOM      5  N   UNL     1       1.452  10.045  20.429  0.00  0.00    +0.000 NA
ATOM      6  C   UNL     1       0.240  12.033  19.858  0.00  0.00    +0.000 C 
ATOM      7  C   UNL     1      -1.265  12.286  19.866  0.00  0.00    +0.000 C 
ATOM      8  O   UNL     1      -1.939  12.170  21.134  0.00  0.00    +0.000 OA
ATOM      9  C   UNL     1      -1.264  11.563  22.244  0.00  0.00    +0.000 C 
ENDROOT
BRANCH   7  10
ATOM     10  C   UNL     1      -2.034  11.469  18.830  0.00  0.00    +0.000 A 
ATOM     11  C   UNL     1      -3.408  11.653  18.606  0.00  0.00    +0.000 A 
ATOM     12  C   UNL     1      -4.055  11.000  17.556  0.00  0.00    +0.000 A 
ATOM     13  C   UNL     1      -3.341  10.146  16.721  0.00  0.00    +0.000 A 
ATOM     14  C   UNL     1      -1.994   9.898  16.971  0.00  0.00    +0.000 A 
ATOM     15  C   UNL     1      -1.348  10.543  18.028  0.00  0.00    +0.000 A 
ENDBRANCH   7  10
BRANCH   1  19
ATOM     16  C   UNL     1       2.624   6.123  19.556  0.00  0.00    +0.000 A 
ATOM     17  N   UNL     1       2.079   5.500  20.613  0.00  0.00    +0.000 NA
ATOM     18  O   UNL     1       1.330   6.481  21.222  0.00  0.00    +0.000 OA
ATOM     19  C   UNL     1       1.482   7.629  20.481  0.00  0.00    +0.000 A 
ATOM     20  N   UNL     1       2.226   7.439  19.412  0.00  0.00    +0.000 NA
BRANCH  16  27
ATOM     21  C   UNL     1       1.694   4.136  17.487  0.00  0.00    +0.000 C 
ATOM     22  C   UNL     1       3.140   4.489  17.704  0.00  0.00    +0.000 A 
ATOM     23  C   UNL     1       4.112   3.875  16.894  0.00  0.00    +0.000 A 
ATOM     24  C   UNL     1       5.464   4.203  17.013  0.00  0.00    +0.000 A 
ATOM     25  C   UNL     1       5.869   5.157  17.939  0.00  0.00    +0.000 A 
ATOM     26  C   UNL     1       4.921   5.768  18.755  0.00  0.00    +0.000 A 
ATOM     27  C   UNL     1       3.554   5.435  18.666  0.00  0.00    +0.000 A 
ENDBRANCH  16  27
ENDBRANCH   1  19
TORSDOF 3
ENDMDL
MODEL 4
REMARK VINA RESULT:      -8.2      2.032      8.288
REMARK  Name = 
REMARK  4 active torsions:
REMARK  status: ('A' for Active; 'I' for Inactive)
REMARK    1  A    between atoms: C_1  and  C_2
REMARK    2  A    between atoms: C_7  and  C_8
REMARK    3  A    between atoms: C_11  and  C_12
REMARK    4  A    between atoms: C_18  and  C_19
REMARK                            x       y       z     vdW  Elec       q    Type
REMARK                         _______ _______ _______ _____ _____    ______ ____
ROOT
ATOM      1  C   UNL     1       1.022   8.858  21.031  0.00  0.00    +0.000 A 
ATOM      2  C   UNL     1      -0.014   9.051  21.989  0.00  0.00    +0.000 A 
ATOM      3  C   UNL     1      -0.300  10.402  21.905  0.00  0.00    +0.000 A 
ATOM      4  N   UNL     1       0.542  10.876  20.962  0.00  0.00    +0.000 N 
ATOM      5  N   UNL     1       1.483  10.030  20.576  0.00  0.00    +0.000 NA
ATOM      6  C   UNL     1       0.272  12.060  20.175  0.00  0.00    +0.000 C 
ATOM      7  C   UNL     1      -1.234  12.302  20.155  0.00  0.00    +0.000 C 
ATOM      8  O   UNL     1      -1.952  12.049  21.379  0.00  0.00    +0.000 OA
ATOM      9  C   UNL     1      -1.309  11.332  22.443  0.00  0.00    +0.000 C 
ENDROOT
BRANCH   7  10
ATOM     10  C   UNL     1      -1.959  11.595  19.012  0.00  0.00    +0.000 A 
ATOM     11  C   UNL     1      -1.311  10.670  18.177  0.00  0.00    +0.000 A 
ATOM     12  C   UNL     1      -2.029   9.930  17.237  0.00  0.00    +0.000 A 
ATOM     13  C   UNL     1      -3.403  10.113  17.108  0.00  0.00    +0.000 A 
ATOM     14  C   UNL     1      -4.050  11.075  17.878  0.00  0.00    +0.000 A 
ATOM     15  C   UNL     1      -3.330  11.823  18.813  0.00  0.00    +0.000 A 
ENDBRANCH   7  10
BRANCH   1  19
ATOM     16  C   UNL     1       2.682   6.249  19.269  0.00  0.00    +0.000 A 
ATOM     17  N   UNL     1       2.268   5.533  20.326  0.00  0.00    +0.000 NA
ATOM     18  O   UNL     1       1.516   6.427  21.054  0.00  0.00    +0.000 OA
ATOM     19  C   UNL     1       1.533   7.623  20.375  0.00  0.00    +0.000 A 
ATOM     20  N   UNL     1       2.194   7.542  19.239  0.00  0.00    +0.000 NA
BRANCH  16  27
ATOM     21  C   UNL     1       1.957   3.776  17.704  0.00  0.00    +0.000 C 
ATOM     22  C   UNL     1       3.261   4.509  17.536  0.00  0.00    +0.000 A 
ATOM     23  C   UNL     1       4.186   4.029  16.592  0.00  0.00    +0.000 A 
ATOM     24  C   UNL     1       5.388   4.699  16.355  0.00  0.00    +0.000 A 
ATOM     25  C   UNL     1       5.684   5.864  17.051  0.00  0.00    +0.000 A 
ATOM     26  C   UNL     1       4.783   6.348  17.996  0.00  0.00    +0.000 A 
ATOM     27  C   UNL     1       3.574   5.675  18.266  0.00  0.00    +0.000 A 
ENDBRANCH  16  27
ENDBRANCH   1  19
TORSDOF 3
ENDMDL
MODEL 5
REMARK VINA RESULT:      -8.1      3.398      8.688
REMARK  Name = 
REMARK  4 active torsions:
REMARK  status: ('A' for Active; 'I' for Inactive)
REMARK    1  A    between atoms: C_1  and  C_2
REMARK    2  A    between atoms: C_7  and  C_8
REMARK    3  A    between atoms: C_11  and  C_12
REMARK    4  A    between atoms: C_18  and  C_19
REMARK                            x       y       z     vdW  Elec       q    Type
REMARK                         _______ _______ _______ _____ _____    ______ ____
ROOT
ATOM      1  C   UNL     1       0.788   9.501  21.191  0.00  0.00    +0.000 A 
ATOM      2  C   UNL     1      -0.295   9.700  22.094  0.00  0.00    +0.000 A 
ATOM      3  C   UNL     1      -0.716  10.992  21.831  0.00  0.00    +0.000 A 
ATOM      4  N   UNL     1       0.104  11.432  20.852  0.00  0.00    +0.000 N 
ATOM      5  N   UNL     1       1.140  10.649  20.598  0.00  0.00    +0.000 NA
ATOM      6  C   UNL     1      -0.260  12.471  19.914  0.00  0.00    +0.000 C 
ATOM      7  C   UNL     1      -1.782  12.546  19.832  0.00  0.00    +0.000 C 
ATOM      8  O   UNL     1      -2.511  12.373  21.062  0.00  0.00    +0.000 OA
ATOM      9  C   UNL     1      -1.835  11.869  22.223  0.00  0.00    +0.000 C 
ENDROOT
BRANCH   7  10
ATOM     10  C   UNL     1      -2.389  11.628  18.774  0.00  0.00    +0.000 A 
ATOM     11  C   UNL     1      -3.755  11.661  18.452  0.00  0.00    +0.000 A 
ATOM     12  C   UNL     1      -4.257  10.918  17.383  0.00  0.00    +0.000 A 
ATOM     13  C   UNL     1      -3.403  10.121  16.627  0.00  0.00    +0.000 A 
ATOM     14  C   UNL     1      -2.059  10.021  16.975  0.00  0.00    +0.000 A 
ATOM     15  C   UNL     1      -1.558  10.756  18.051  0.00  0.00    +0.000 A 
ENDBRANCH   7  10
BRANCH   1  19
ATOM     16  C   UNL     1       1.858   6.257  20.191  0.00  0.00    +0.000 A 
ATOM     17  N   UNL     1       2.451   6.964  19.216  0.00  0.00    +0.000 NA
ATOM     18  O   UNL     1       2.185   8.272  19.550  0.00  0.00    +0.000 OA
ATOM     19  C   UNL     1       1.447   8.255  20.710  0.00  0.00    +0.000 A 
ATOM     20  N   UNL     1       1.271   7.035  21.172  0.00  0.00    +0.000 NA
BRANCH  16  27
ATOM     21  C   UNL     1       1.434   4.679  17.656  0.00  0.00    +0.000 C 
ATOM     22  C   UNL     1       1.638   4.042  19.004  0.00  0.00    +0.000 A 
ATOM     23  C   UNL     1       1.648   2.638  19.090  0.00  0.00    +0.000 A 
ATOM     24  C   UNL     1       1.888   1.990  20.304  0.00  0.00    +0.000 A 
ATOM     25  C   UNL     1       2.129   2.733  21.452  0.00  0.00    +0.000 A 
ATOM     26  C   UNL     1       2.114   4.124  21.386  0.00  0.00    +0.000 A 
ATOM     27  C   UNL     1       1.853   4.798  20.176  0.00  0.00    +0.000 A 
ENDBRANCH  16  27
ENDBRANCH   1  19
TORSDOF 3
ENDMDL
MODEL 6
REMARK VINA RESULT:      -8.0      2.304      8.676
REMARK  Name = 
REMARK  4 active torsions:
REMARK  status: ('A' for Active; 'I' for Inactive)
REMARK    1  A    between atoms: C_1  and  C_2
REMARK    2  A    between atoms: C_7  and  C_8
REMARK    3  A    between atoms: C_11  and  C_12
REMARK    4  A    between atoms: C_18  and  C_19
REMARK                            x       y       z     vdW  Elec       q    Type
REMARK                         _______ _______ _______ _____ _____    ______ ____
ROOT
ATOM      1  C   UNL     1       1.218   9.276  20.510  0.00  0.00    +0.000 A 
ATOM      2  C   UNL     1       0.223   9.238  21.527  0.00  0.00    +0.000 A 
ATOM      3  C   UNL     1      -0.262  10.534  21.569  0.00  0.00    +0.000 A 
ATOM      4  N   UNL     1       0.445  11.198  20.629  0.00  0.00    +0.000 N 
ATOM      5  N   UNL     1       1.475  10.534  20.131  0.00  0.00    +0.000 NA
ATOM      6  C   UNL     1      -0.041  12.383  19.956  0.00  0.00    +0.000 C 
ATOM      7  C   UNL     1      -1.565  12.397  20.028  0.00  0.00    +0.000 C 
ATOM      8  O   UNL     1      -2.165  11.949  21.259  0.00  0.00    +0.000 OA
ATOM      9  C   UNL     1      -1.363  11.259  22.228  0.00  0.00    +0.000 C 
ENDROOT
BRANCH   7  10
ATOM     10  C   UNL     1      -2.244  11.677  18.866  0.00  0.00    +0.000 A 
ATOM     11  C   UNL     1      -1.535  10.840  17.989  0.00  0.00    +0.000 A 
ATOM     12  C   UNL     1      -2.202  10.080  17.028  0.00  0.00    +0.000 A 
ATOM     13  C   UNL     1      -3.588  10.154  16.920  0.00  0.00    +0.000 A 
ATOM     14  C   UNL     1      -4.301  11.030  17.734  0.00  0.00    +0.000 A 
ATOM     15  C   UNL     1      -3.632  11.799  18.689  0.00  0.00    +0.000 A 
ENDBRANCH   7  10
BRANCH   1  19
ATOM     16  C   UNL     1       2.384   6.309  18.925  0.00  0.00    +0.000 A 
ATOM     17  N   UNL     1       2.505   7.145  17.881  0.00  0.00    +0.000 NA
ATOM     18  O   UNL     1       2.167   8.373  18.403  0.00  0.00    +0.000 OA
ATOM     19  C   UNL     1       1.865   8.183  19.730  0.00  0.00    +0.000 A 
ATOM     20  N   UNL     1       2.041   6.935  20.109  0.00  0.00    +0.000 NA
BRANCH  16  27
ATOM     21  C   UNL     1       5.103   5.050  19.261  0.00  0.00    +0.000 C 
ATOM     22  C   UNL     1       3.866   4.268  18.912  0.00  0.00    +0.000 A 
ATOM     23  C   UNL     1       3.974   2.875  18.748  0.00  0.00    +0.000 A 
ATOM     24  C   UNL     1       2.851   2.090  18.477  0.00  0.00    +0.000 A 
ATOM     25  C   UNL     1       1.599   2.682  18.373  0.00  0.00    +0.000 A 
ATOM     26  C   UNL     1       1.475   4.060  18.525  0.00  0.00    +0.000 A 
ATOM     27  C   UNL     1       2.599   4.873  18.777  0.00  0.00    +0.000 A 
ENDBRANCH  16  27
ENDBRANCH   1  19
TORSDOF 3
ENDMDL
MODEL 7
REMARK VINA RESULT:      -8.0      2.338      8.672
REMARK  Name = 
REMARK  4 active torsions:
REMARK  status: ('A' for Active; 'I' for Inactive)
REMARK    1  A    between atoms: C_1  and  C_2
REMARK    2  A    between atoms: C_7  and  C_8
REMARK    3  A    between atoms: C_11  and  C_12
REMARK    4  A    between atoms: C_18  and  C_19
REMARK                            x       y       z     vdW  Elec       q    Type
REMARK                         _______ _______ _______ _____ _____    ______ ____
ROOT
ATOM      1  C   UNL     1       1.220   9.061  20.862  0.00  0.00    +0.000 A 
ATOM      2  C   UNL     1       0.217   9.048  21.873  0.00  0.00    +0.000 A 
ATOM      3  C   UNL     1      -0.234  10.356  21.912  0.00  0.00    +0.000 A 
ATOM      4  N   UNL     1       0.496  11.003  20.979  0.00  0.00    +0.000 N 
ATOM      5  N   UNL     1       1.512  10.312  20.487  0.00  0.00    +0.000 NA
ATOM      6  C   UNL     1       0.046  12.200  20.303  0.00  0.00    +0.000 C 
ATOM      7  C   UNL     1      -1.478  12.254  20.364  0.00  0.00    +0.000 C 
ATOM      8  O   UNL     1      -2.098  11.820  21.590  0.00  0.00    +0.000 OA
ATOM      9  C   UNL     1      -1.321  11.109  22.565  0.00  0.00    +0.000 C 
ENDROOT
BRANCH   7  10
ATOM     10  C   UNL     1      -2.167  11.552  19.196  0.00  0.00    +0.000 A 
ATOM     11  C   UNL     1      -3.483  11.859  18.813  0.00  0.00    +0.000 A 
ATOM     12  C   UNL     1      -4.037  11.311  17.655  0.00  0.00    +0.000 A 
ATOM     13  C   UNL     1      -3.289  10.439  16.870  0.00  0.00    +0.000 A 
ATOM     14  C   UNL     1      -2.009  10.069  17.272  0.00  0.00    +0.000 A 
ATOM     15  C   UNL     1      -1.457  10.609  18.436  0.00  0.00    +0.000 A 
ENDBRANCH   7  10
BRANCH   1  19
ATOM     16  C   UNL     1       2.298   6.072  19.258  0.00  0.00    +0.000 A 
ATOM     17  N   UNL     1       2.517   6.924  18.244  0.00  0.00    +0.000 NA
ATOM     18  O   UNL     1       2.221   8.156  18.781  0.00  0.00    +0.000 OA
ATOM     19  C   UNL     1       1.843   7.953  20.087  0.00  0.00    +0.000 A 
ATOM     20  N   UNL     1       1.932   6.687  20.440  0.00  0.00    +0.000 NA
BRANCH  16  27
ATOM     21  C   UNL     1       4.994   4.721  19.206  0.00  0.00    +0.000 C 
ATOM     22  C   UNL     1       3.694   3.982  19.037  0.00  0.00    +0.000 A 
ATOM     23  C   UNL     1       3.731   2.587  18.860  0.00  0.00    +0.000 A 
ATOM     24  C   UNL     1       2.555   1.841  18.753  0.00  0.00    +0.000 A 
ATOM     25  C   UNL     1       1.320   2.475  18.828  0.00  0.00    +0.000 A 
ATOM     26  C   UNL     1       1.267   3.856  18.994  0.00  0.00    +0.000 A 
ATOM     27  C   UNL     1       2.442   4.630  19.083  0.00  0.00    +0.000 A 
ENDBRANCH  16  27
ENDBRANCH   1  19
TORSDOF 3
ENDMDL
MODEL 8
REMARK VINA RESULT:      -8.0      0.686      1.194
REMARK  Name = 
REMARK  4 active torsions:
REMARK  status: ('A' for Active; 'I' for Inactive)
REMARK    1  A    between atoms: C_1  and  C_2
REMARK    2  A    between atoms: C_7  and  C_8
REMARK    3  A    between atoms: C_11  and  C_12
REMARK    4  A    between atoms: C_18  and  C_19
REMARK                            x       y       z     vdW  Elec       q    Type
REMARK                         _______ _______ _______ _____ _____    ______ ____
ROOT
ATOM      1  C   UNL     1       2.146   6.455  19.770  0.00  0.00    +0.000 A 
ATOM      2  C   UNL     1       2.644   5.383  20.564  0.00  0.00    +0.000 A 
ATOM      3  C   UNL     1       3.209   4.519  19.643  0.00  0.00    +0.000 A 
ATOM      4  N   UNL     1       3.010   5.111  18.445  0.00  0.00    +0.000 N 
ATOM      5  N   UNL     1       2.198   6.155  18.466  0.00  0.00    +0.000 NA
ATOM      6  C   UNL     1       3.848   4.874  17.290  0.00  0.00    +0.000 C 
ATOM      7  C   UNL     1       5.210   4.377  17.766  0.00  0.00    +0.000 C 
ATOM      8  O   UNL     1       5.218   3.468  18.884  0.00  0.00    +0.000 OA
ATOM      9  C   UNL     1       4.028   3.294  19.666  0.00  0.00    +0.000 C 
ENDROOT
BRANCH   7  10
ATOM     10  C   UNL     1       6.213   5.495  18.041  0.00  0.00    +0.000 A 
ATOM     11  C   UNL     1       7.165   5.407  19.069  0.00  0.00    +0.000 A 
ATOM     12  C   UNL     1       8.163   6.373  19.205  0.00  0.00    +0.000 A 
ATOM     13  C   UNL     1       8.216   7.449  18.324  0.00  0.00    +0.000 A 
ATOM     14  C   UNL     1       7.239   7.590  17.342  0.00  0.00    +0.000 A 
ATOM     15  C   UNL     1       6.234   6.628  17.211  0.00  0.00    +0.000 A 
ENDBRANCH   7  10
BRANCH   1  19
ATOM     16  C   UNL     1       0.860   9.751  20.159  0.00  0.00    +0.000 A 
ATOM     17  N   UNL     1       0.897   9.406  21.455  0.00  0.00    +0.000 NA
ATOM     18  O   UNL     1       1.478   8.158  21.446  0.00  0.00    +0.000 OA
ATOM     19  C   UNL     1       1.748   7.843  20.136  0.00  0.00    +0.000 A 
ATOM     20  N   UNL     1       1.436   8.822  19.312  0.00  0.00    +0.000 NA
BRANCH  16  27
ATOM     21  C   UNL     1       2.276  11.670  18.313  0.00  0.00    +0.000 C 
ATOM     22  C   UNL     1       0.904  11.924  18.876  0.00  0.00    +0.000 A 
ATOM     23  C   UNL     1       0.236  13.107  18.515  0.00  0.00    +0.000 A 
ATOM     24  C   UNL     1      -1.060  13.371  18.963  0.00  0.00    +0.000 A 
ATOM     25  C   UNL     1      -1.716  12.453  19.774  0.00  0.00    +0.000 A 
ATOM     26  C   UNL     1      -1.066  11.280  20.148  0.00  0.00    +0.000 A 
ATOM     27  C   UNL     1       0.251  11.004  19.724  0.00  0.00    +0.000 A 
ENDBRANCH  16  27
ENDBRANCH   1  19
TORSDOF 3
ENDMDL
MODEL 9
REMARK VINA RESULT:      -7.9      2.412      8.799
REMARK  Name = 
REMARK  4 active torsions:
REMARK  status: ('A' for Active; 'I' for Inactive)
REMARK    1  A    between atoms: C_1  and  C_2
REMARK    2  A    between atoms: C_7  and  C_8
REMARK    3  A    between atoms: C_11  and  C_12
REMARK    4  A    between atoms: C_18  and  C_19
REMARK                            x       y       z     vdW  Elec       q    Type
REMARK                         _______ _______ _______ _____ _____    ______ ____
ROOT
ATOM      1  C   UNL     1       1.134   9.978  19.916  0.00  0.00    +0.000 A 
ATOM      2  C   UNL     1       0.244   9.785  21.011  0.00  0.00    +0.000 A 
ATOM      3  C   UNL     1      -0.400  11.003  21.136  0.00  0.00    +0.000 A 
ATOM      4  N   UNL     1       0.129  11.777  20.164  0.00  0.00    +0.000 N 
ATOM      5  N   UNL     1       1.190  11.267  19.561  0.00  0.00    +0.000 NA
ATOM      6  C   UNL     1      -0.564  12.901  19.574  0.00  0.00    +0.000 C 
ATOM      7  C   UNL     1      -2.065  12.710  19.772  0.00  0.00    +0.000 C 
ATOM      8  O   UNL     1      -2.492  12.158  21.032  0.00  0.00    +0.000 OA
ATOM      9  C   UNL     1      -1.526  11.560  21.908  0.00  0.00    +0.000 C 
ENDROOT
BRANCH   7  10
ATOM     10  C   UNL     1      -2.742  11.932  18.646  0.00  0.00    +0.000 A 
ATOM     11  C   UNL     1      -4.136  11.788  18.572  0.00  0.00    +0.000 A 
ATOM     12  C   UNL     1      -4.737  11.200  17.458  0.00  0.00    +0.000 A 
ATOM     13  C   UNL     1      -3.952  10.735  16.407  0.00  0.00    +0.000 A 
ATOM     14  C   UNL     1      -2.565  10.806  16.495  0.00  0.00    +0.000 A 
ATOM     15  C   UNL     1      -1.962  11.386  17.613  0.00  0.00    +0.000 A 
ENDBRANCH   7  10
BRANCH   1  19
ATOM     16  C   UNL     1       2.512   7.233  18.118  0.00  0.00    +0.000 A 
ATOM     17  N   UNL     1       2.502   8.130  17.120  0.00  0.00    +0.000 NA
ATOM     18  O   UNL     1       2.069   9.289  17.725  0.00  0.00    +0.000 OA
ATOM     19  C   UNL     1       1.849   8.999  19.050  0.00  0.00    +0.000 A 
ATOM     20  N   UNL     1       2.164   7.756  19.349  0.00  0.00    +0.000 NA
BRANCH  16  27
ATOM     21  C   UNL     1       5.352   6.347  17.625  0.00  0.00    +0.000 C 
ATOM     22  C   UNL     1       4.180   5.404  17.628  0.00  0.00    +0.000 A 
ATOM     23  C   UNL     1       4.417   4.036  17.405  0.00  0.00    +0.000 A 
ATOM     24  C   UNL     1       3.375   3.106  17.450  0.00  0.00    +0.000 A 
ATOM     25  C   UNL     1       2.080   3.526  17.726  0.00  0.00    +0.000 A 
ATOM     26  C   UNL     1       1.827   4.878  17.941  0.00  0.00    +0.000 A 
ATOM     27  C   UNL     1       2.860   5.835  17.879  0.00  0.00    +0.000 A 
ENDBRANCH  16  27
ENDBRANCH   1  19
TORSDOF 3
ENDMDL
