MODEL 1
REMARK VINA RESULT:      -7.9      0.000      0.000
REMARK  Name = 
REMARK  4 active torsions:
REMARK  status: ('A' for Active; 'I' for Inactive)
REMARK    1  A    between atoms: O_1  and  C_2
REMARK    2  A    between atoms: C_6  and  C_7
REMARK    3  A    between atoms: C_9  and  C_10
REMARK    4  A    between atoms: C_17  and  C_18
REMARK                            x       y       z     vdW  Elec       q    Type
REMARK                         _______ _______ _______ _____ _____    ______ ____
ROOT
ATOM      1  C   UNL     1       2.693   7.406  18.452  0.00  0.00    +0.000 A 
ATOM      2  C   UNL     1       2.360   6.379  19.340  0.00  0.00    +0.000 A 
ATOM      3  C   UNL     1       2.953   5.124  19.229  0.00  0.00    +0.000 A 
ATOM      4  N   UNL     1       3.883   4.863  18.281  0.00  0.00    +0.000 NA
ATOM      5  C   UNL     1       4.192   5.820  17.373  0.00  0.00    +0.000 A 
ATOM      6  C   UNL     1       3.607   7.088  17.440  0.00  0.00    +0.000 A 
ENDROOT
BRANCH   5   7
ATOM      7  C   UNL     1       5.215   5.475  16.348  0.00  0.00    +0.000 A 
ATOM      8  C   UNL     1       4.839   4.702  15.221  0.00  0.00    +0.000 A 
ATOM      9  C   UNL     1       5.748   4.340  14.220  0.00  0.00    +0.000 A 
ATOM     10  C   UNL     1       7.066   4.761  14.299  0.00  0.00    +0.000 A 
ATOM     11  C   UNL     1       7.475   5.526  15.387  0.00  0.00    +0.000 A 
ATOM     12  C   UNL     1       6.571   5.871  16.408  0.00  0.00    +0.000 A 
ATOM     13 CL   UNL     1       7.258   6.743  17.740  0.00  0.00    +0.000 Cl
ENDBRANCH   5   7
BRANCH   1  18
ATOM     14  C   UNL     1       2.045  11.115  17.963  0.00  0.00    +0.000 A 
ATOM     15  C   UNL     1       1.023  11.362  18.867  0.00  0.00    +0.000 A 
ATOM     16  C   UNL     1       0.534  10.312  19.641  0.00  0.00    +0.000 A 
ATOM     17  C   UNL     1       1.078   9.031  19.515  0.00  0.00    +0.000 A 
ATOM     18  C   UNL     1       2.114   8.760  18.601  0.00  0.00    +0.000 A 
ATOM     19  C   UNL     1       2.578   9.837  17.821  0.00  0.00    +0.000 A 
BRANCH  14  20
ATOM     20  O   UNL     1       2.566  12.105  17.185  0.00  0.00    +0.000 OA
ATOM     21  H   UNL     1       3.531  12.003  17.156  0.00  0.00    +0.000 HD
ENDBRANCH  14  20
ENDBRANCH   1  18
BRANCH   3  22
ATOM     22  C   UNL     1       2.612   4.026  20.149  0.00  0.00    +0.000 A 
ATOM     23  C   UNL     1       1.317   3.848  20.668  0.00  0.00    +0.000 A 
ATOM     24  C   UNL     1       1.049   2.845  21.595  0.00  0.00    +0.000 A 
ATOM     25  C   UNL     1       2.088   2.019  21.982  0.00  0.00    +0.000 A 
ATOM     26  N   UNL     1       3.342   2.121  21.495  0.00  0.00    +0.000 NA
ATOM     27  C   UNL     1       3.568   3.111  20.589  0.00  0.00    +0.000 A 
ENDBRANCH   3  22
TORSDOF 4
ENDMDL
MODEL 2
REMARK VINA RESULT:      -7.7      1.722      5.392
REMARK  Name = 
REMARK  4 active torsions:
REMARK  status: ('A' for Active; 'I' for Inactive)
REMARK    1  A    between atoms: O_1  and  C_2
REMARK    2  A    between atoms: C_6  and  C_7
REMARK    3  A    between atoms: C_9  and  C_10
REMARK    4  A    between atoms: C_17  and  C_18
REMARK                            x       y       z     vdW  Elec       q    Type
REMARK                         _______ _______ _______ _____ _____    ______ ____
ROOT
ATOM      1  C   UNL     1       2.687   7.697  18.425  0.00  0.00    +0.000 A 
ATOM      2  C   UNL     1       3.678   7.422  17.479  0.00  0.00    +0.000 A 
ATOM      3  C   UNL     1       4.206   6.140  17.355  0.00  0.00    +0.000 A 
ATOM      4  N   UNL     1       3.765   5.117  18.123  0.00  0.00    +0.000 NA
ATOM      5  C   UNL     1       2.843   5.358  19.086  0.00  0.00    +0.000 A 
ATOM      6  C   UNL     1       2.299   6.635  19.253  0.00  0.00    +0.000 A 
ENDROOT
BRANCH   5   7
ATOM      7  C   UNL     1       2.401   4.198  19.907  0.00  0.00    +0.000 A 
ATOM      8  C   UNL     1       2.359   4.320  21.318  0.00  0.00    +0.000 A 
ATOM      9  C   UNL     1       1.955   3.271  22.152  0.00  0.00    +0.000 A 
ATOM     10  C   UNL     1       1.554   2.065  21.600  0.00  0.00    +0.000 A 
ATOM     11  C   UNL     1       1.577   1.905  20.217  0.00  0.00    +0.000 A 
ATOM     12  C   UNL     1       2.006   2.949  19.377  0.00  0.00    +0.000 A 
ATOM     13 CL   UNL     1       2.068   2.560  17.688  0.00  0.00    +0.000 Cl
ENDBRANCH   5   7
BRANCH   1  18
ATOM     14  C   UNL     1       2.070  11.411  17.933  0.00  0.00    +0.000 A 
ATOM     15  C   UNL     1       0.929  11.628  18.691  0.00  0.00    +0.000 A 
ATOM     16  C   UNL     1       0.349  10.555  19.365  0.00  0.00    +0.000 A 
ATOM     17  C   UNL     1       0.921   9.282  19.287  0.00  0.00    +0.000 A 
ATOM     18  C   UNL     1       2.077   9.042  18.522  0.00  0.00    +0.000 A 
ATOM     19  C   UNL     1       2.633  10.141  17.839  0.00  0.00    +0.000 A 
BRANCH  14  20
ATOM     20  O   UNL     1       2.683  12.424  17.258  0.00  0.00    +0.000 OA
ATOM     21  H   UNL     1       3.622  12.436  17.501  0.00  0.00    +0.000 HD
ENDBRANCH  14  20
ENDBRANCH   1  18
BRANCH   3  22
ATOM     22  C   UNL     1       5.254   5.830  16.368  0.00  0.00    +0.000 A 
ATOM     23  C   UNL     1       5.010   5.047  15.226  0.00  0.00    +0.000 A 
ATOM     24  C   UNL     1       6.042   4.710  14.354  0.00  0.00    +0.000 A 
ATOM     25  C   UNL     1       7.312   5.178  14.635  0.00  0.00    +0.000 A 
ATOM     26  N   UNL     1       7.601   5.958  15.697  0.00  0.00    +0.000 NA
ATOM     27  C   UNL     1       6.568   6.270  16.525  0.00  0.00    +0.000 A 
ENDBRANCH   3  22
TORSDOF 4
ENDMDL
MODEL 3
REMARK VINA RESULT:      -7.7      4.034      6.731
REMARK  Name = 
REMARK  4 active torsions:
REMARK  status: ('A' for Active; 'I' for Inactive)
REMARK    1  A    between atoms: O_1  and  C_2
REMARK    2  A    between atoms: C_6  and  C_7
REMARK    3  A    between atoms: C_9  and  C_10
REMARK    4  A    between atoms: C_17  and  C_18
REMARK                            x       y       z     vdW  Elec       q    Type
REMARK                         _______ _______ _______ _____ _____    ______ ____
ROOT
ATOM      1  C   UNL     1       4.387   4.621  17.511  0.00  0.00    +0.000 A 
ATOM      2  C   UNL     1       4.641   4.199  16.204  0.00  0.00    +0.000 A 
ATOM      3  C   UNL     1       5.669   4.772  15.459  0.00  0.00    +0.000 A 
ATOM      4  N   UNL     1       6.468   5.732  15.980  0.00  0.00    +0.000 NA
ATOM      5  C   UNL     1       6.218   6.201  17.226  0.00  0.00    +0.000 A 
ATOM      6  C   UNL     1       5.185   5.664  18.000  0.00  0.00    +0.000 A 
ENDROOT
BRANCH   5   7
ATOM      7  C   UNL     1       7.122   7.263  17.745  0.00  0.00    +0.000 A 
ATOM      8  C   UNL     1       7.055   8.566  17.193  0.00  0.00    +0.000 A 
ATOM      9  C   UNL     1       7.875   9.613  17.630  0.00  0.00    +0.000 A 
ATOM     10  C   UNL     1       8.780   9.397  18.657  0.00  0.00    +0.000 A 
ATOM     11  C   UNL     1       8.875   8.132  19.230  0.00  0.00    +0.000 A 
ATOM     12  C   UNL     1       8.070   7.071  18.776  0.00  0.00    +0.000 A 
ATOM     13 CL   UNL     1       8.377   5.537  19.525  0.00  0.00    +0.000 Cl
ENDBRANCH   5   7
BRANCH   1  18
ATOM     14  C   UNL     1       2.605   2.987  20.438  0.00  0.00    +0.000 A 
ATOM     15  C   UNL     1       1.344   2.736  19.919  0.00  0.00    +0.000 A 
ATOM     16  C   UNL     1       1.066   3.107  18.606  0.00  0.00    +0.000 A 
ATOM     17  C   UNL     1       2.052   3.711  17.820  0.00  0.00    +0.000 A 
ATOM     18  C   UNL     1       3.337   3.975  18.330  0.00  0.00    +0.000 A 
ATOM     19  C   UNL     1       3.585   3.604  19.666  0.00  0.00    +0.000 A 
BRANCH  14  20
ATOM     20  O   UNL     1       2.934   2.640  21.715  0.00  0.00    +0.000 OA
ATOM     21  H   UNL     1       3.825   2.973  21.907  0.00  0.00    +0.000 HD
ENDBRANCH  14  20
ENDBRANCH   1  18
BRANCH   3  22
ATOM     22  C   UNL     1       5.951   4.347  14.078  0.00  0.00    +0.000 A 
ATOM     23  C   UNL     1       5.082   3.514  13.351  0.00  0.00    +0.000 A 
ATOM     24  C   UNL     1       5.416   3.070  12.074  0.00  0.00    +0.000 A 
ATOM     25  C   UNL     1       6.620   3.482  11.535  0.00  0.00    +0.000 A 
ATOM     26  N   UNL     1       7.479   4.305  12.171  0.00  0.00    +0.000 NA
ATOM     27  C   UNL     1       7.119   4.722  13.415  0.00  0.00    +0.000 A 
ENDBRANCH   3  22
TORSDOF 4
ENDMDL
MODEL 4
REMARK VINA RESULT:      -7.6      3.842      6.561
REMARK  Name = 
REMARK  4 active torsions:
REMARK  status: ('A' for Active; 'I' for Inactive)
REMARK    1  A    between atoms: O_1  and  C_2
REMARK    2  A    between atoms: C_6  and  C_7
REMARK    3  A    between atoms: C_9  and  C_10
REMARK    4  A    between atoms: C_17  and  C_18
REMARK                            x       y       z     vdW  Elec       q    Type
REMARK                         _______ _______ _______ _____ _____    ______ ____
ROOT
ATOM      1  C   UNL     1       4.218   5.009  17.481  0.00  0.00    +0.000 A 
ATOM      2  C   UNL     1       4.502   4.514  16.206  0.00  0.00    +0.000 A 
ATOM      3  C   UNL     1       5.600   4.985  15.490  0.00  0.00    +0.000 A 
ATOM      4  N   UNL     1       6.438   5.911  16.010  0.00  0.00    +0.000 NA
ATOM      5  C   UNL     1       6.164   6.449  17.222  0.00  0.00    +0.000 A 
ATOM      6  C   UNL     1       5.062   6.016  17.966  0.00  0.00    +0.000 A 
ENDROOT
BRANCH   5   7
ATOM      7  C   UNL     1       7.114   7.470  17.741  0.00  0.00    +0.000 A 
ATOM      8  C   UNL     1       7.069   8.790  17.226  0.00  0.00    +0.000 A 
ATOM      9  C   UNL     1       7.932   9.800  17.665  0.00  0.00    +0.000 A 
ATOM     10  C   UNL     1       8.860   9.531  18.658  0.00  0.00    +0.000 A 
ATOM     11  C   UNL     1       8.935   8.248  19.194  0.00  0.00    +0.000 A 
ATOM     12  C   UNL     1       8.086   7.224  18.737  0.00  0.00    +0.000 A 
ATOM     13 CL   UNL     1       8.370   5.662  19.436  0.00  0.00    +0.000 Cl
ENDBRANCH   5   7
BRANCH   1  18
ATOM     14  C   UNL     1       1.362   2.781  18.621  0.00  0.00    +0.000 A 
ATOM     15  C   UNL     1       0.926   3.419  19.773  0.00  0.00    +0.000 A 
ATOM     16  C   UNL     1       1.570   4.582  20.188  0.00  0.00    +0.000 A 
ATOM     17  C   UNL     1       2.632   5.104  19.444  0.00  0.00    +0.000 A 
ATOM     18  C   UNL     1       3.090   4.470  18.274  0.00  0.00    +0.000 A 
ATOM     19  C   UNL     1       2.430   3.288  17.886  0.00  0.00    +0.000 A 
BRANCH  14  20
ATOM     20  O   UNL     1       0.766   1.644  18.164  0.00  0.00    +0.000 OA
ATOM     21  H   UNL     1       1.395   0.910  18.243  0.00  0.00    +0.000 HD
ENDBRANCH  14  20
ENDBRANCH   1  18
BRANCH   3  22
ATOM     22  C   UNL     1       5.914   4.482  14.142  0.00  0.00    +0.000 A 
ATOM     23  C   UNL     1       5.044   3.641  13.426  0.00  0.00    +0.000 A 
ATOM     24  C   UNL     1       5.408   3.123  12.186  0.00  0.00    +0.000 A 
ATOM     25  C   UNL     1       6.642   3.470  11.671  0.00  0.00    +0.000 A 
ATOM     26  N   UNL     1       7.505   4.297  12.296  0.00  0.00    +0.000 NA
ATOM     27  C   UNL     1       7.116   4.787  13.504  0.00  0.00    +0.000 A 
ENDBRANCH   3  22
TORSDOF 4
ENDMDL
MODEL 5
REMARK VINA RESULT:      -7.6      0.944      1.332
REMARK  Name = 
REMARK  4 active torsions:
REMARK  status: ('A' for Active; 'I' for Inactive)
REMARK    1  A    between atoms: O_1  and  C_2
REMARK    2  A    between atoms: C_6  and  C_7
REMARK    3  A    between atoms: C_9  and  C_10
REMARK    4  A    between atoms: C_17  and  C_18
REMARK                            x       y       z     vdW  Elec       q    Type
REMARK                         _______ _______ _______ _____ _____    ______ ____
ROOT
ATOM      1  C   UNL     1       2.703   7.383  18.403  0.00  0.00    +0.000 A 
ATOM      2  C   UNL     1       2.373   6.362  19.298  0.00  0.00    +0.000 A 
ATOM      3  C   UNL     1       2.964   5.106  19.191  0.00  0.00    +0.000 A 
ATOM      4  N   UNL     1       3.891   4.839  18.242  0.00  0.00    +0.000 NA
ATOM      5  C   UNL     1       4.197   5.790  17.327  0.00  0.00    +0.000 A 
ATOM      6  C   UNL     1       3.613   7.059  17.389  0.00  0.00    +0.000 A 
ENDROOT
BRANCH   5   7
ATOM      7  C   UNL     1       5.216   5.440  16.300  0.00  0.00    +0.000 A 
ATOM      8  C   UNL     1       4.841   4.639  15.192  0.00  0.00    +0.000 A 
ATOM      9  C   UNL     1       5.746   4.270  14.190  0.00  0.00    +0.000 A 
ATOM     10  C   UNL     1       7.059   4.710  14.249  0.00  0.00    +0.000 A 
ATOM     11  C   UNL     1       7.467   5.502  15.319  0.00  0.00    +0.000 A 
ATOM     12  C   UNL     1       6.566   5.855  16.341  0.00  0.00    +0.000 A 
ATOM     13 CL   UNL     1       7.253   6.762  17.650  0.00  0.00    +0.000 Cl
ENDBRANCH   5   7
BRANCH   1  18
ATOM     14  C   UNL     1       0.595  10.281  19.659  0.00  0.00    +0.000 A 
ATOM     15  C   UNL     1       1.003  11.325  18.842  0.00  0.00    +0.000 A 
ATOM     16  C   UNL     1       1.978  11.088  17.876  0.00  0.00    +0.000 A 
ATOM     17  C   UNL     1       2.526   9.810  17.726  0.00  0.00    +0.000 A 
ATOM     18  C   UNL     1       2.126   8.739  18.547  0.00  0.00    +0.000 A 
ATOM     19  C   UNL     1       1.149   9.011  19.525  0.00  0.00    +0.000 A 
BRANCH  14  20
ATOM     20  O   UNL     1      -0.360  10.454  20.616  0.00  0.00    +0.000 OA
ATOM     21  H   UNL     1      -1.017   9.745  20.532  0.00  0.00    +0.000 HD
ENDBRANCH  14  20
ENDBRANCH   1  18
BRANCH   3  22
ATOM     22  C   UNL     1       2.626   4.013  20.119  0.00  0.00    +0.000 A 
ATOM     23  C   UNL     1       1.335   3.842  20.648  0.00  0.00    +0.000 A 
ATOM     24  C   UNL     1       1.070   2.843  21.581  0.00  0.00    +0.000 A 
ATOM     25  C   UNL     1       2.108   2.016  21.964  0.00  0.00    +0.000 A 
ATOM     26  N   UNL     1       3.359   2.112  21.468  0.00  0.00    +0.000 NA
ATOM     27  C   UNL     1       3.582   3.096  20.556  0.00  0.00    +0.000 A 
ENDBRANCH   3  22
TORSDOF 4
ENDMDL
MODEL 6
REMARK VINA RESULT:      -7.6      4.992      9.752
REMARK  Name = 
REMARK  4 active torsions:
REMARK  status: ('A' for Active; 'I' for Inactive)
REMARK    1  A    between atoms: O_1  and  C_2
REMARK    2  A    between atoms: C_6  and  C_7
REMARK    3  A    between atoms: C_9  and  C_10
REMARK    4  A    between atoms: C_17  and  C_18
REMARK                            x       y       z     vdW  Elec       q    Type
REMARK                         _______ _______ _______ _____ _____    ______ ____
ROOT
ATOM      1  C   UNL     1       0.896  10.268  18.546  0.00  0.00    +0.000 A 
ATOM      2  C   UNL     1       1.564  11.494  18.614  0.00  0.00    +0.000 A 
ATOM      3  C   UNL     1       0.858  12.692  18.544  0.00  0.00    +0.000 A 
ATOM      4  N   UNL     1      -0.491  12.712  18.434  0.00  0.00    +0.000 NA
ATOM      5  C   UNL     1      -1.165  11.543  18.314  0.00  0.00    +0.000 A 
ATOM      6  C   UNL     1      -0.492  10.319  18.363  0.00  0.00    +0.000 A 
ENDROOT
BRANCH   5   7
ATOM      7  C   UNL     1      -2.646  11.625  18.186  0.00  0.00    +0.000 A 
ATOM      8  C   UNL     1      -3.417  12.061  19.293  0.00  0.00    +0.000 A 
ATOM      9  C   UNL     1      -4.812  12.161  19.245  0.00  0.00    +0.000 A 
ATOM     10  C   UNL     1      -5.487  11.850  18.075  0.00  0.00    +0.000 A 
ATOM     11  C   UNL     1      -4.766  11.422  16.964  0.00  0.00    +0.000 A 
ATOM     12  C   UNL     1      -3.366  11.296  17.016  0.00  0.00    +0.000 A 
ATOM     13 CL   UNL     1      -2.628  10.660  15.581  0.00  0.00    +0.000 Cl
ENDBRANCH   5   7
BRANCH   1  18
ATOM     14  C   UNL     1       2.200   7.002  19.978  0.00  0.00    +0.000 A 
ATOM     15  C   UNL     1       3.030   6.542  18.967  0.00  0.00    +0.000 A 
ATOM     16  C   UNL     1       3.165   7.297  17.805  0.00  0.00    +0.000 A 
ATOM     17  C   UNL     1       2.481   8.509  17.668  0.00  0.00    +0.000 A 
ATOM     18  C   UNL     1       1.632   8.991  18.682  0.00  0.00    +0.000 A 
ATOM     19  C   UNL     1       1.503   8.199  19.840  0.00  0.00    +0.000 A 
BRANCH  14  20
ATOM     20  O   UNL     1       2.035   6.307  21.139  0.00  0.00    +0.000 OA
ATOM     21  H   UNL     1       1.992   6.938  21.875  0.00  0.00    +0.000 HD
ENDBRANCH  14  20
ENDBRANCH   1  18
BRANCH   3  22
ATOM     22  C   UNL     1       1.541  13.995  18.608  0.00  0.00    +0.000 A 
ATOM     23  C   UNL     1       2.849  14.187  18.127  0.00  0.00    +0.000 A 
ATOM     24  C   UNL     1       3.492  15.413  18.273  0.00  0.00    +0.000 A 
ATOM     25  C   UNL     1       2.805  16.441  18.890  0.00  0.00    +0.000 A 
ATOM     26  N   UNL     1       1.539  16.326  19.342  0.00  0.00    +0.000 NA
ATOM     27  C   UNL     1       0.940  15.115  19.180  0.00  0.00    +0.000 A 
ENDBRANCH   3  22
TORSDOF 4
ENDMDL
MODEL 7
REMARK VINA RESULT:      -7.4      4.336      8.175
REMARK  Name = 
REMARK  4 active torsions:
REMARK  status: ('A' for Active; 'I' for Inactive)
REMARK    1  A    between atoms: O_1  and  C_2
REMARK    2  A    between atoms: C_6  and  C_7
REMARK    3  A    between atoms: C_9  and  C_10
REMARK    4  A    between atoms: C_17  and  C_18
REMARK                            x       y       z     vdW  Elec       q    Type
REMARK                         _______ _______ _______ _____ _____    ______ ____
ROOT
ATOM      1  C   UNL     1       0.947  12.892  18.562  0.00  0.00    +0.000 A 
ATOM      2  C   UNL     1       1.547  11.647  18.767  0.00  0.00    +0.000 A 
ATOM      3  C   UNL     1       0.777  10.488  18.820  0.00  0.00    +0.000 A 
ATOM      4  N   UNL     1      -0.566  10.523  18.650  0.00  0.00    +0.000 NA
ATOM      5  C   UNL     1      -1.185  11.718  18.501  0.00  0.00    +0.000 A 
ATOM      6  C   UNL     1      -0.450  12.906  18.459  0.00  0.00    +0.000 A 
ENDROOT
BRANCH   5   7
ATOM      7  C   UNL     1      -2.663  11.698  18.328  0.00  0.00    +0.000 A 
ATOM      8  C   UNL     1      -3.494  12.166  19.377  0.00  0.00    +0.000 A 
ATOM      9  C   UNL     1      -4.890  12.175  19.284  0.00  0.00    +0.000 A 
ATOM     10  C   UNL     1      -5.508  11.737  18.124  0.00  0.00    +0.000 A 
ATOM     11  C   UNL     1      -4.728  11.273  17.068  0.00  0.00    +0.000 A 
ATOM     12  C   UNL     1      -3.326  11.239  17.167  0.00  0.00    +0.000 A 
ATOM     13 CL   UNL     1      -2.505  10.544  15.806  0.00  0.00    +0.000 Cl
ENDBRANCH   5   7
BRANCH   1  18
ATOM     14  C   UNL     1       3.871  15.217  17.880  0.00  0.00    +0.000 A 
ATOM     15  C   UNL     1       3.349  16.459  18.208  0.00  0.00    +0.000 A 
ATOM     16  C   UNL     1       2.031  16.545  18.650  0.00  0.00    +0.000 A 
ATOM     17  C   UNL     1       1.252  15.390  18.773  0.00  0.00    +0.000 A 
ATOM     18  C   UNL     1       1.764  14.121  18.443  0.00  0.00    +0.000 A 
ATOM     19  C   UNL     1       3.094  14.066  17.985  0.00  0.00    +0.000 A 
BRANCH  14  20
ATOM     20  O   UNL     1       5.156  15.072  17.448  0.00  0.00    +0.000 OA
ATOM     21  H   UNL     1       5.739  15.011  18.221  0.00  0.00    +0.000 HD
ENDBRANCH  14  20
ENDBRANCH   1  18
BRANCH   3  22
ATOM     22  C   UNL     1       1.387   9.166  19.040  0.00  0.00    +0.000 A 
ATOM     23  C   UNL     1       2.033   8.451  18.016  0.00  0.00    +0.000 A 
ATOM     24  C   UNL     1       2.532   7.170  18.242  0.00  0.00    +0.000 A 
ATOM     25  C   UNL     1       2.387   6.627  19.504  0.00  0.00    +0.000 A 
ATOM     26  N   UNL     1       1.805   7.277  20.533  0.00  0.00    +0.000 NA
ATOM     27  C   UNL     1       1.332   8.527  20.278  0.00  0.00    +0.000 A 
ENDBRANCH   3  22
TORSDOF 4
ENDMDL
MODEL 8
REMARK VINA RESULT:      -7.3      4.458      8.302
REMARK  Name = 
REMARK  4 active torsions:
REMARK  status: ('A' for Active; 'I' for Inactive)
REMARK    1  A    between atoms: O_1  and  C_2
REMARK    2  A    between atoms: C_6  and  C_7
REMARK    3  A    between atoms: C_9  and  C_10
REMARK    4  A    between atoms: C_17  and  C_18
REMARK                            x       y       z     vdW  Elec       q    Type
REMARK                         _______ _______ _______ _____ _____    ______ ____
ROOT
ATOM      1  C   UNL     1       0.952  12.987  18.555  0.00  0.00    +0.000 A 
ATOM      2  C   UNL     1       1.574  11.747  18.721  0.00  0.00    +0.000 A 
ATOM      3  C   UNL     1       0.824  10.574  18.748  0.00  0.00    +0.000 A 
ATOM      4  N   UNL     1      -0.520  10.591  18.590  0.00  0.00    +0.000 NA
ATOM      5  C   UNL     1      -1.160  11.780  18.478  0.00  0.00    +0.000 A 
ATOM      6  C   UNL     1      -0.445  12.981  18.463  0.00  0.00    +0.000 A 
ENDROOT
BRANCH   5   7
ATOM      7  C   UNL     1      -2.639  11.739  18.315  0.00  0.00    +0.000 A 
ATOM      8  C   UNL     1      -3.469  12.174  19.379  0.00  0.00    +0.000 A 
ATOM      9  C   UNL     1      -4.866  12.163  19.297  0.00  0.00    +0.000 A 
ATOM     10  C   UNL     1      -5.485  11.737  18.133  0.00  0.00    +0.000 A 
ATOM     11  C   UNL     1      -4.707  11.306  17.063  0.00  0.00    +0.000 A 
ATOM     12  C   UNL     1      -3.303  11.292  17.151  0.00  0.00    +0.000 A 
ATOM     13 CL   UNL     1      -2.483  10.636  15.770  0.00  0.00    +0.000 Cl
ENDBRANCH   5   7
BRANCH   1  18
ATOM     14  C   UNL     1       1.918  16.657  18.687  0.00  0.00    +0.000 A 
ATOM     15  C   UNL     1       3.248  16.631  18.296  0.00  0.00    +0.000 A 
ATOM     16  C   UNL     1       3.841  15.408  17.991  0.00  0.00    +0.000 A 
ATOM     17  C   UNL     1       3.098  14.226  18.067  0.00  0.00    +0.000 A 
ATOM     18  C   UNL     1       1.748  14.232  18.464  0.00  0.00    +0.000 A 
ATOM     19  C   UNL     1       1.179  15.481  18.781  0.00  0.00    +0.000 A 
BRANCH  14  20
ATOM     20  O   UNL     1       1.284  17.825  18.992  0.00  0.00    +0.000 OA
ATOM     21  H   UNL     1       0.388  17.799  18.620  0.00  0.00    +0.000 HD
ENDBRANCH  14  20
ENDBRANCH   1  18
BRANCH   3  22
ATOM     22  C   UNL     1       1.458   9.257  18.928  0.00  0.00    +0.000 A 
ATOM     23  C   UNL     1       2.127   8.591  17.886  0.00  0.00    +0.000 A 
ATOM     24  C   UNL     1       2.649   7.314  18.072  0.00  0.00    +0.000 A 
ATOM     25  C   UNL     1       2.502   6.723  19.313  0.00  0.00    +0.000 A 
ATOM     26  N   UNL     1       1.899   7.325  20.358  0.00  0.00    +0.000 NA
ATOM     27  C   UNL     1       1.404   8.573  20.142  0.00  0.00    +0.000 A 
ENDBRANCH   3  22
TORSDOF 4
ENDMDL
MODEL 9
REMARK VINA RESULT:      -7.3      4.991      9.696
REMARK  Name = 
REMARK  4 active torsions:
REMARK  status: ('A' for Active; 'I' for Inactive)
REMARK    1  A    between atoms: O_1  and  C_2
REMARK    2  A    between atoms: C_6  and  C_7
REMARK    3  A    between atoms: C_9  and  C_10
REMARK    4  A    between atoms: C_17  and  C_18
REMARK                            x       y       z     vdW  Elec       q    Type
REMARK                         _______ _______ _______ _____ _____    ______ ____
ROOT
ATOM      1  C   UNL     1       0.948  10.232  18.544  0.00  0.00    +0.000 A 
ATOM      2  C   UNL     1       1.623  11.454  18.609  0.00  0.00    +0.000 A 
ATOM      3  C   UNL     1       0.924  12.656  18.542  0.00  0.00    +0.000 A 
ATOM      4  N   UNL     1      -0.425  12.684  18.438  0.00  0.00    +0.000 NA
ATOM      5  C   UNL     1      -1.106  11.519  18.321  0.00  0.00    +0.000 A 
ATOM      6  C   UNL     1      -0.440  10.291  18.367  0.00  0.00    +0.000 A 
ENDROOT
BRANCH   5   7
ATOM      7  C   UNL     1      -2.587  11.609  18.200  0.00  0.00    +0.000 A 
ATOM      8  C   UNL     1      -3.211  11.240  16.982  0.00  0.00    +0.000 A 
ATOM      9  C   UNL     1      -4.597  11.301  16.797  0.00  0.00    +0.000 A 
ATOM     10  C   UNL     1      -5.414  11.712  17.837  0.00  0.00    +0.000 A 
ATOM     11  C   UNL     1      -4.843  12.080  19.052  0.00  0.00    +0.000 A 
ATOM     12  C   UNL     1      -3.448  12.044  19.233  0.00  0.00    +0.000 A 
ATOM     13 CL   UNL     1      -2.888  12.624  20.769  0.00  0.00    +0.000 Cl
ENDBRANCH   5   7
BRANCH   1  18
ATOM     14  C   UNL     1       2.231   6.953  19.965  0.00  0.00    +0.000 A 
ATOM     15  C   UNL     1       3.063   6.494  18.955  0.00  0.00    +0.000 A 
ATOM     16  C   UNL     1       3.206   7.254  17.796  0.00  0.00    +0.000 A 
ATOM     17  C   UNL     1       2.528   8.469  17.663  0.00  0.00    +0.000 A 
ATOM     18  C   UNL     1       1.677   8.951  18.676  0.00  0.00    +0.000 A 
ATOM     19  C   UNL     1       1.541   8.154  19.829  0.00  0.00    +0.000 A 
BRANCH  14  20
ATOM     20  O   UNL     1       2.059   6.254  21.122  0.00  0.00    +0.000 OA
ATOM     21  H   UNL     1       2.241   5.317  20.949  0.00  0.00    +0.000 HD
ENDBRANCH  14  20
ENDBRANCH   1  18
BRANCH   3  22
ATOM     22  C   UNL     1       1.615  13.955  18.603  0.00  0.00    +0.000 A 
ATOM     23  C   UNL     1       0.951  15.150  18.932  0.00  0.00    +0.000 A 
ATOM     24  C   UNL     1       1.620  16.371  18.906  0.00  0.00    +0.000 A 
ATOM     25  C   UNL     1       2.958  16.374  18.560  0.00  0.00    +0.000 A 
ATOM     26  N   UNL     1       3.655  15.258  18.266  0.00  0.00    +0.000 NA
ATOM     27  C   UNL     1       2.971  14.082  18.305  0.00  0.00    +0.000 A 
ENDBRANCH   3  22
TORSDOF 4
ENDMDL
