MODEL 1
REMARK VINA RESULT:      -8.1      0.000      0.000
REMARK  Name = 
REMARK  10 active torsions:
REMARK  status: ('A' for Active; 'I' for Inactive)
REMARK    1  A    between atoms: C_1  and  O_2
REMARK    2  A    between atoms: O_2  and  C_3
REMARK    3  A    between atoms: C_6  and  C_7
REMARK    4  A    between atoms: C_7  and  N_8
REMARK    5  A    between atoms: C_9  and  C_11
REMARK    6  A    between atoms: C_13  and  C_14
REMARK    7  A    between atoms: C_16  and  C_17
REMARK    8  A    between atoms: C_24  and  C_25
REMARK    9  A    between atoms: C_32  and  O_33
REMARK   10  A    between atoms: O_33  and  C_34
REMARK                            x       y       z     vdW  Elec       q    Type
REMARK                         _______ _______ _______ _____ _____    ______ ____
ROOT
ATOM      1  C   UNL     1       1.420   9.076  20.289  0.00  0.00    +0.000 A 
ATOM      2  C   UNL     1       1.949   7.776  20.172  0.00  0.00    +0.000 A 
ATOM      3  C   UNL     1       2.269   7.228  18.927  0.00  0.00    +0.000 A 
ATOM      4  C   UNL     1       2.028   8.059  17.835  0.00  0.00    +0.000 A 
ATOM      5  N   UNL     1       1.548   9.324  17.911  0.00  0.00    +0.000 NA
ATOM      6  C   UNL     1       1.236   9.843  19.135  0.00  0.00    +0.000 A 
ENDROOT
BRANCH   3   7
ATOM      7  C   UNL     1       2.793   5.850  18.783  0.00  0.00    +0.000 A 
ATOM      8  C   UNL     1       1.930   4.735  18.715  0.00  0.00    +0.000 A 
ATOM      9  C   UNL     1       2.418   3.420  18.609  0.00  0.00    +0.000 A 
ATOM     10  C   UNL     1       1.481   2.248  18.601  0.00  0.00    +0.000 C 
ATOM     11  C   UNL     1       3.795   3.210  18.537  0.00  0.00    +0.000 A 
ATOM     12  C   UNL     1       4.657   4.295  18.586  0.00  0.00    +0.000 A 
ATOM     13  F   UNL     1       5.979   4.092  18.518  0.00  0.00    +0.000 F 
ATOM     14  C   UNL     1       4.174   5.594  18.716  0.00  0.00    +0.000 A 
ENDBRANCH   3   7
BRANCH   6  15
ATOM     15  C   UNL     1       0.742  11.234  19.072  0.00  0.00    +0.000 A 
ATOM     16  C   UNL     1      -0.585  11.584  18.776  0.00  0.00    +0.000 A 
ATOM     17  C   UNL     1      -0.971  12.922  18.700  0.00  0.00    +0.000 A 
ATOM     18  C   UNL     1      -0.028  13.898  18.967  0.00  0.00    +0.000 A 
ATOM     19  N   UNL     1       1.245  13.625  19.306  0.00  0.00    +0.000 NA
ATOM     20  C   UNL     1       1.592  12.312  19.349  0.00  0.00    +0.000 A 
ENDBRANCH   6  15
BRANCH   1  22
ATOM     21  N   UNL     1      -0.381   9.720  21.770  0.00  0.00    +0.000 N 
ATOM     22  C   UNL     1       0.973   9.504  21.632  0.00  0.00    +0.000 C 
ATOM     23  O   UNL     1       1.784   9.681  22.531  0.00  0.00    +0.000 OA
ATOM     24  H   UNL     1      -1.017   9.451  21.034  0.00  0.00    +0.000 HD
BRANCH  21  25
ATOM     25  C   UNL     1      -0.952  10.164  23.017  0.00  0.00    +0.000 C 
BRANCH  25  29
ATOM     26  C   UNL     1      -2.371  14.215  22.559  0.00  0.00    +0.000 A 
ATOM     27  C   UNL     1      -1.027  13.894  22.309  0.00  0.00    +0.000 A 
ATOM     28  C   UNL     1      -0.557  12.591  22.479  0.00  0.00    +0.000 A 
ATOM     29  C   UNL     1      -1.417  11.591  22.932  0.00  0.00    +0.000 A 
ATOM     30  C   UNL     1      -2.721  11.942  23.301  0.00  0.00    +0.000 A 
ATOM     31  C   UNL     1      -3.212  13.246  23.124  0.00  0.00    +0.000 A 
BRANCH  26  33
ATOM     32  C   UNL     1      -3.359  15.628  20.946  0.00  0.00    +0.000 C 
ATOM     33  O   UNL     1      -2.857  15.463  22.274  0.00  0.00    +0.000 OA
ENDBRANCH  26  33
BRANCH  31  34
ATOM     34  O   UNL     1      -4.518  13.356  23.521  0.00  0.00    +0.000 OA
ATOM     35  C   UNL     1      -5.549  13.043  22.604  0.00  0.00    +0.000 C 
ENDBRANCH  31  34
ENDBRANCH  25  29
ENDBRANCH  21  25
ENDBRANCH   1  22
TORSDOF 7
ENDMDL
MODEL 2
REMARK VINA RESULT:      -8.0      1.266      1.643
REMARK  Name = 
REMARK  10 active torsions:
REMARK  status: ('A' for Active; 'I' for Inactive)
REMARK    1  A    between atoms: C_1  and  O_2
REMARK    2  A    between atoms: O_2  and  C_3
REMARK    3  A    between atoms: C_6  and  C_7
REMARK    4  A    between atoms: C_7  and  N_8
REMARK    5  A    between atoms: C_9  and  C_11
REMARK    6  A    between atoms: C_13  and  C_14
REMARK    7  A    between atoms: C_16  and  C_17
REMARK    8  A    between atoms: C_24  and  C_25
REMARK    9  A    between atoms: C_32  and  O_33
REMARK   10  A    between atoms: O_33  and  C_34
REMARK                            x       y       z     vdW  Elec       q    Type
REMARK                         _______ _______ _______ _____ _____    ______ ____
ROOT
ATOM      1  C   UNL     1       1.088   8.721  20.111  0.00  0.00    +0.000 A 
ATOM      2  C   UNL     1       1.848   7.535  20.086  0.00  0.00    +0.000 A 
ATOM      3  C   UNL     1       2.633   7.195  18.981  0.00  0.00    +0.000 A 
ATOM      4  C   UNL     1       2.603   8.109  17.930  0.00  0.00    +0.000 A 
ATOM      5  N   UNL     1       1.907   9.272  17.930  0.00  0.00    +0.000 NA
ATOM      6  C   UNL     1       1.141   9.588  19.015  0.00  0.00    +0.000 A 
ENDROOT
BRANCH   3   7
ATOM      7  C   UNL     1       3.411   5.936  18.923  0.00  0.00    +0.000 A 
ATOM      8  C   UNL     1       4.451   5.753  17.986  0.00  0.00    +0.000 A 
ATOM      9  C   UNL     1       5.175   4.550  17.902  0.00  0.00    +0.000 A 
ATOM     10  C   UNL     1       6.234   4.358  16.855  0.00  0.00    +0.000 C 
ATOM     11  C   UNL     1       4.880   3.516  18.791  0.00  0.00    +0.000 A 
ATOM     12  C   UNL     1       3.874   3.684  19.729  0.00  0.00    +0.000 A 
ATOM     13  F   UNL     1       3.591   2.691  20.580  0.00  0.00    +0.000 F 
ATOM     14  C   UNL     1       3.141   4.866  19.794  0.00  0.00    +0.000 A 
ENDBRANCH   3   7
BRANCH   6  15
ATOM     15  C   UNL     1       0.453  10.889  18.889  0.00  0.00    +0.000 A 
ATOM     16  C   UNL     1      -0.929  11.031  18.691  0.00  0.00    +0.000 A 
ATOM     17  C   UNL     1      -1.504  12.293  18.544  0.00  0.00    +0.000 A 
ATOM     18  C   UNL     1      -0.689  13.406  18.644  0.00  0.00    +0.000 A 
ATOM     19  N   UNL     1       0.633  13.337  18.883  0.00  0.00    +0.000 NA
ATOM     20  C   UNL     1       1.163  12.091  18.998  0.00  0.00    +0.000 A 
ENDBRANCH   6  15
BRANCH   1  22
ATOM     21  N   UNL     1       0.356  10.075  21.977  0.00  0.00    +0.000 N 
ATOM     22  C   UNL     1       0.175   8.912  21.259  0.00  0.00    +0.000 C 
ATOM     23  O   UNL     1      -0.651   8.057  21.547  0.00  0.00    +0.000 OA
ATOM     24  H   UNL     1       0.971  10.796  21.631  0.00  0.00    +0.000 HD
BRANCH  21  25
ATOM     25  C   UNL     1      -0.447  10.379  23.135  0.00  0.00    +0.000 C 
BRANCH  25  29
ATOM     26  C   UNL     1      -2.796  13.917  22.367  0.00  0.00    +0.000 A 
ATOM     27  C   UNL     1      -1.418  13.901  22.098  0.00  0.00    +0.000 A 
ATOM     28  C   UNL     1      -0.648  12.768  22.368  0.00  0.00    +0.000 A 
ATOM     29  C   UNL     1      -1.239  11.641  22.939  0.00  0.00    +0.000 A 
ATOM     30  C   UNL     1      -2.584  11.708  23.321  0.00  0.00    +0.000 A 
ATOM     31  C   UNL     1      -3.374  12.836  23.046  0.00  0.00    +0.000 A 
BRANCH  26  33
ATOM     32  C   UNL     1      -2.909  16.251  22.019  0.00  0.00    +0.000 C 
ATOM     33  O   UNL     1      -3.569  14.983  21.988  0.00  0.00    +0.000 OA
ENDBRANCH  26  33
BRANCH  31  34
ATOM     34  O   UNL     1      -4.663  12.672  23.478  0.00  0.00    +0.000 OA
ATOM     35  C   UNL     1      -4.900  12.275  24.815  0.00  0.00    +0.000 C 
ENDBRANCH  31  34
ENDBRANCH  25  29
ENDBRANCH  21  25
ENDBRANCH   1  22
TORSDOF 7
ENDMDL
MODEL 3
REMARK VINA RESULT:      -8.0      0.947      1.346
REMARK  Name = 
REMARK  10 active torsions:
REMARK  status: ('A' for Active; 'I' for Inactive)
REMARK    1  A    between atoms: C_1  and  O_2
REMARK    2  A    between atoms: O_2  and  C_3
REMARK    3  A    between atoms: C_6  and  C_7
REMARK    4  A    between atoms: C_7  and  N_8
REMARK    5  A    between atoms: C_9  and  C_11
REMARK    6  A    between atoms: C_13  and  C_14
REMARK    7  A    between atoms: C_16  and  C_17
REMARK    8  A    between atoms: C_24  and  C_25
REMARK    9  A    between atoms: C_32  and  O_33
REMARK   10  A    between atoms: O_33  and  C_34
REMARK                            x       y       z     vdW  Elec       q    Type
REMARK                         _______ _______ _______ _____ _____    ______ ____
ROOT
ATOM      1  C   UNL     1       1.387   9.180  20.300  0.00  0.00    +0.000 A 
ATOM      2  C   UNL     1       1.862   7.867  20.120  0.00  0.00    +0.000 A 
ATOM      3  C   UNL     1       2.162   7.367  18.851  0.00  0.00    +0.000 A 
ATOM      4  C   UNL     1       1.958   8.259  17.800  0.00  0.00    +0.000 A 
ATOM      5  N   UNL     1       1.529   9.538  17.937  0.00  0.00    +0.000 NA
ATOM      6  C   UNL     1       1.237  10.010  19.184  0.00  0.00    +0.000 A 
ENDROOT
BRANCH   3   7
ATOM      7  C   UNL     1       2.630   5.977  18.640  0.00  0.00    +0.000 A 
ATOM      8  C   UNL     1       3.590   5.663  17.655  0.00  0.00    +0.000 A 
ATOM      9  C   UNL     1       4.019   4.343  17.425  0.00  0.00    +0.000 A 
ATOM     10  C   UNL     1       4.995   4.028  16.330  0.00  0.00    +0.000 C 
ATOM     11  C   UNL     1       3.502   3.314  18.213  0.00  0.00    +0.000 A 
ATOM     12  C   UNL     1       2.569   3.607  19.196  0.00  0.00    +0.000 A 
ATOM     13  F   UNL     1       2.073   2.619  19.952  0.00  0.00    +0.000 F 
ATOM     14  C   UNL     1       2.128   4.911  19.406  0.00  0.00    +0.000 A 
ENDBRANCH   3   7
BRANCH   6  15
ATOM     15  C   UNL     1       0.800  11.421  19.189  0.00  0.00    +0.000 A 
ATOM     16  C   UNL     1      -0.505  11.841  18.889  0.00  0.00    +0.000 A 
ATOM     17  C   UNL     1      -0.835  13.196  18.879  0.00  0.00    +0.000 A 
ATOM     18  C   UNL     1       0.140  14.116  19.216  0.00  0.00    +0.000 A 
ATOM     19  N   UNL     1       1.394  13.773  19.562  0.00  0.00    +0.000 NA
ATOM     20  C   UNL     1       1.687  12.446  19.540  0.00  0.00    +0.000 A 
ENDBRANCH   6  15
BRANCH   1  22
ATOM     21  N   UNL     1      -0.379   9.880  21.799  0.00  0.00    +0.000 N 
ATOM     22  C   UNL     1       0.955   9.561  21.663  0.00  0.00    +0.000 C 
ATOM     23  O   UNL     1       1.763   9.615  22.579  0.00  0.00    +0.000 OA
ATOM     24  H   UNL     1      -1.022   9.710  21.040  0.00  0.00    +0.000 HD
BRANCH  21  25
ATOM     25  C   UNL     1      -0.931  10.293  23.065  0.00  0.00    +0.000 C 
BRANCH  25  29
ATOM     26  C   UNL     1      -2.594  14.253  22.644  0.00  0.00    +0.000 A 
ATOM     27  C   UNL     1      -1.222  14.029  22.450  0.00  0.00    +0.000 A 
ATOM     28  C   UNL     1      -0.674  12.755  22.609  0.00  0.00    +0.000 A 
ATOM     29  C   UNL     1      -1.485  11.688  22.994  0.00  0.00    +0.000 A 
ATOM     30  C   UNL     1      -2.826  11.943  23.308  0.00  0.00    +0.000 A 
ATOM     31  C   UNL     1      -3.394  13.215  23.142  0.00  0.00    +0.000 A 
BRANCH  26  33
ATOM     32  C   UNL     1      -3.274  15.782  20.977  0.00  0.00    +0.000 C 
ATOM     33  O   UNL     1      -3.148  15.475  22.368  0.00  0.00    +0.000 OA
ENDBRANCH  26  33
BRANCH  31  34
ATOM     34  O   UNL     1      -4.722  13.228  23.477  0.00  0.00    +0.000 OA
ATOM     35  C   UNL     1      -5.694  13.063  22.462  0.00  0.00    +0.000 C 
ENDBRANCH  31  34
ENDBRANCH  25  29
ENDBRANCH  21  25
ENDBRANCH   1  22
TORSDOF 7
ENDMDL
MODEL 4
REMARK VINA RESULT:      -7.8      1.095      1.120
REMARK  Name = 
REMARK  10 active torsions:
REMARK  status: ('A' for Active; 'I' for Inactive)
REMARK    1  A    between atoms: C_1  and  O_2
REMARK    2  A    between atoms: O_2  and  C_3
REMARK    3  A    between atoms: C_6  and  C_7
REMARK    4  A    between atoms: C_7  and  N_8
REMARK    5  A    between atoms: C_9  and  C_11
REMARK    6  A    between atoms: C_13  and  C_14
REMARK    7  A    between atoms: C_16  and  C_17
REMARK    8  A    between atoms: C_24  and  C_25
REMARK    9  A    between atoms: C_32  and  O_33
REMARK   10  A    between atoms: O_33  and  C_34
REMARK                            x       y       z     vdW  Elec       q    Type
REMARK                         _______ _______ _______ _____ _____    ______ ____
ROOT
ATOM      1  C   UNL     1       1.095   9.280  20.938  0.00  0.00    +0.000 A 
ATOM      2  C   UNL     1       1.532   7.941  20.960  0.00  0.00    +0.000 A 
ATOM      3  C   UNL     1       2.008   7.310  19.808  0.00  0.00    +0.000 A 
ATOM      4  C   UNL     1       2.017   8.100  18.661  0.00  0.00    +0.000 A 
ATOM      5  N   UNL     1       1.633   9.399  18.608  0.00  0.00    +0.000 NA
ATOM      6  C   UNL     1       1.166  10.000  19.741  0.00  0.00    +0.000 A 
ENDROOT
BRANCH   3   7
ATOM      7  C   UNL     1       2.438   5.892  19.805  0.00  0.00    +0.000 A 
ATOM      8  C   UNL     1       1.822   4.932  20.636  0.00  0.00    +0.000 A 
ATOM      9  C   UNL     1       2.243   3.590  20.664  0.00  0.00    +0.000 A 
ATOM     10  C   UNL     1       1.612   2.603  21.601  0.00  0.00    +0.000 C 
ATOM     11  C   UNL     1       3.280   3.186  19.823  0.00  0.00    +0.000 A 
ATOM     12  C   UNL     1       3.886   4.112  18.988  0.00  0.00    +0.000 A 
ATOM     13  F   UNL     1       4.883   3.724  18.183  0.00  0.00    +0.000 F 
ATOM     14  C   UNL     1       3.485   5.446  18.980  0.00  0.00    +0.000 A 
ENDBRANCH   3   7
BRANCH   6  15
ATOM     15  C   UNL     1       0.800  11.418  19.545  0.00  0.00    +0.000 A 
ATOM     16  C   UNL     1      -0.405  11.846  18.967  0.00  0.00    +0.000 A 
ATOM     17  C   UNL     1      -0.666  13.203  18.781  0.00  0.00    +0.000 A 
ATOM     18  C   UNL     1       0.270  14.122  19.220  0.00  0.00    +0.000 A 
ATOM     19  N   UNL     1       1.420  13.776  19.827  0.00  0.00    +0.000 NA
ATOM     20  C   UNL     1       1.651  12.444  19.972  0.00  0.00    +0.000 A 
ENDBRANCH   6  15
BRANCH   1  22
ATOM     21  N   UNL     1      -0.800  10.325  22.019  0.00  0.00    +0.000 N 
ATOM     22  C   UNL     1       0.468   9.805  22.170  0.00  0.00    +0.000 C 
ATOM     23  O   UNL     1       1.077   9.798  23.230  0.00  0.00    +0.000 OA
ATOM     24  H   UNL     1      -1.299  10.204  21.151  0.00  0.00    +0.000 HD
BRANCH  21  25
ATOM     25  C   UNL     1      -1.519  10.894  23.132  0.00  0.00    +0.000 C 
BRANCH  25  29
ATOM     26  C   UNL     1      -2.394  15.027  22.245  0.00  0.00    +0.000 A 
ATOM     27  C   UNL     1      -1.081  14.618  22.531  0.00  0.00    +0.000 A 
ATOM     28  C   UNL     1      -0.796  13.288  22.843  0.00  0.00    +0.000 A 
ATOM     29  C   UNL     1      -1.824  12.348  22.903  0.00  0.00    +0.000 A 
ATOM     30  C   UNL     1      -3.144  12.785  22.741  0.00  0.00    +0.000 A 
ATOM     31  C   UNL     1      -3.446  14.117  22.415  0.00  0.00    +0.000 A 
BRANCH  26  33
ATOM     32  C   UNL     1      -2.355  16.554  20.444  0.00  0.00    +0.000 C 
ATOM     33  O   UNL     1      -2.651  16.303  21.819  0.00  0.00    +0.000 OA
ENDBRANCH  26  33
BRANCH  31  34
ATOM     34  O   UNL     1      -4.794  14.314  22.273  0.00  0.00    +0.000 OA
ATOM     35  C   UNL     1      -5.650  13.192  22.165  0.00  0.00    +0.000 C 
ENDBRANCH  31  34
ENDBRANCH  25  29
ENDBRANCH  21  25
ENDBRANCH   1  22
TORSDOF 7
ENDMDL
MODEL 5
REMARK VINA RESULT:      -7.8      1.384      2.331
REMARK  Name = 
REMARK  10 active torsions:
REMARK  status: ('A' for Active; 'I' for Inactive)
REMARK    1  A    between atoms: C_1  and  O_2
REMARK    2  A    between atoms: O_2  and  C_3
REMARK    3  A    between atoms: C_6  and  C_7
REMARK    4  A    between atoms: C_7  and  N_8
REMARK    5  A    between atoms: C_9  and  C_11
REMARK    6  A    between atoms: C_13  and  C_14
REMARK    7  A    between atoms: C_16  and  C_17
REMARK    8  A    between atoms: C_24  and  C_25
REMARK    9  A    between atoms: C_32  and  O_33
REMARK   10  A    between atoms: O_33  and  C_34
REMARK                            x       y       z     vdW  Elec       q    Type
REMARK                         _______ _______ _______ _____ _____    ______ ____
ROOT
ATOM      1  C   UNL     1       1.043   8.747  20.130  0.00  0.00    +0.000 A 
ATOM      2  C   UNL     1       1.805   7.563  20.109  0.00  0.00    +0.000 A 
ATOM      3  C   UNL     1       2.600   7.226  19.011  0.00  0.00    +0.000 A 
ATOM      4  C   UNL     1       2.577   8.142  17.961  0.00  0.00    +0.000 A 
ATOM      5  N   UNL     1       1.880   9.304  17.957  0.00  0.00    +0.000 NA
ATOM      6  C   UNL     1       1.105   9.616  19.037  0.00  0.00    +0.000 A 
ENDROOT
BRANCH   3   7
ATOM      7  C   UNL     1       3.380   5.968  18.957  0.00  0.00    +0.000 A 
ATOM      8  C   UNL     1       4.421   5.784  18.021  0.00  0.00    +0.000 A 
ATOM      9  C   UNL     1       5.147   4.582  17.941  0.00  0.00    +0.000 A 
ATOM     10  C   UNL     1       6.207   4.390  16.896  0.00  0.00    +0.000 C 
ATOM     11  C   UNL     1       4.853   3.550  18.832  0.00  0.00    +0.000 A 
ATOM     12  C   UNL     1       3.845   3.719  19.768  0.00  0.00    +0.000 A 
ATOM     13  F   UNL     1       3.563   2.727  20.622  0.00  0.00    +0.000 F 
ATOM     14  C   UNL     1       3.110   4.900  19.830  0.00  0.00    +0.000 A 
ENDBRANCH   3   7
BRANCH   6  15
ATOM     15  C   UNL     1       0.416  10.917  18.907  0.00  0.00    +0.000 A 
ATOM     16  C   UNL     1      -0.969  11.059  18.731  0.00  0.00    +0.000 A 
ATOM     17  C   UNL     1      -1.545  12.320  18.580  0.00  0.00    +0.000 A 
ATOM     18  C   UNL     1      -0.727  13.433  18.653  0.00  0.00    +0.000 A 
ATOM     19  N   UNL     1       0.599  13.365  18.871  0.00  0.00    +0.000 NA
ATOM     20  C   UNL     1       1.130  12.119  18.992  0.00  0.00    +0.000 A 
ENDBRANCH   6  15
BRANCH   1  22
ATOM     21  N   UNL     1       0.256  10.122  21.959  0.00  0.00    +0.000 N 
ATOM     22  C   UNL     1       0.120   8.935  21.270  0.00  0.00    +0.000 C 
ATOM     23  O   UNL     1      -0.675   8.058  21.579  0.00  0.00    +0.000 OA
ATOM     24  H   UNL     1       0.846  10.855  21.595  0.00  0.00    +0.000 HD
BRANCH  21  25
ATOM     25  C   UNL     1      -0.561  10.426  23.107  0.00  0.00    +0.000 C 
BRANCH  25  29
ATOM     26  C   UNL     1      -2.565  14.238  22.812  0.00  0.00    +0.000 A 
ATOM     27  C   UNL     1      -3.253  13.100  23.264  0.00  0.00    +0.000 A 
ATOM     28  C   UNL     1      -2.617  11.860  23.338  0.00  0.00    +0.000 A 
ATOM     29  C   UNL     1      -1.289  11.729  22.932  0.00  0.00    +0.000 A 
ATOM     30  C   UNL     1      -0.648  12.837  22.365  0.00  0.00    +0.000 A 
ATOM     31  C   UNL     1      -1.270  14.094  22.295  0.00  0.00    +0.000 A 
BRANCH  26  33
ATOM     32  C   UNL     1      -3.386  15.986  24.172  0.00  0.00    +0.000 C 
ATOM     33  O   UNL     1      -3.153  15.475  22.858  0.00  0.00    +0.000 OA
ENDBRANCH  26  33
BRANCH  31  34
ATOM     34  O   UNL     1      -0.451  15.037  21.734  0.00  0.00    +0.000 OA
ATOM     35  C   UNL     1       0.920  15.061  22.086  0.00  0.00    +0.000 C 
ENDBRANCH  31  34
ENDBRANCH  25  29
ENDBRANCH  21  25
ENDBRANCH   1  22
TORSDOF 7
ENDMDL
MODEL 6
REMARK VINA RESULT:      -7.8      1.082      1.903
REMARK  Name = 
REMARK  10 active torsions:
REMARK  status: ('A' for Active; 'I' for Inactive)
REMARK    1  A    between atoms: C_1  and  O_2
REMARK    2  A    between atoms: O_2  and  C_3
REMARK    3  A    between atoms: C_6  and  C_7
REMARK    4  A    between atoms: C_7  and  N_8
REMARK    5  A    between atoms: C_9  and  C_11
REMARK    6  A    between atoms: C_13  and  C_14
REMARK    7  A    between atoms: C_16  and  C_17
REMARK    8  A    between atoms: C_24  and  C_25
REMARK    9  A    between atoms: C_32  and  O_33
REMARK   10  A    between atoms: O_33  and  C_34
REMARK                            x       y       z     vdW  Elec       q    Type
REMARK                         _______ _______ _______ _____ _____    ______ ____
ROOT
ATOM      1  C   UNL     1       1.003   8.694  20.171  0.00  0.00    +0.000 A 
ATOM      2  C   UNL     1       1.713   7.478  20.161  0.00  0.00    +0.000 A 
ATOM      3  C   UNL     1       2.498   7.100  19.070  0.00  0.00    +0.000 A 
ATOM      4  C   UNL     1       2.521   8.009  18.014  0.00  0.00    +0.000 A 
ATOM      5  N   UNL     1       1.875   9.201  17.999  0.00  0.00    +0.000 NA
ATOM      6  C   UNL     1       1.109   9.553  19.073  0.00  0.00    +0.000 A 
ENDROOT
BRANCH   3   7
ATOM      7  C   UNL     1       3.223   5.809  19.028  0.00  0.00    +0.000 A 
ATOM      8  C   UNL     1       2.541   4.576  19.108  0.00  0.00    +0.000 A 
ATOM      9  C   UNL     1       3.221   3.345  19.101  0.00  0.00    +0.000 A 
ATOM     10  C   UNL     1       2.477   2.050  19.250  0.00  0.00    +0.000 C 
ATOM     11  C   UNL     1       4.611   3.338  18.979  0.00  0.00    +0.000 A 
ATOM     12  C   UNL     1       5.297   4.539  18.883  0.00  0.00    +0.000 A 
ATOM     13  F   UNL     1       6.630   4.531  18.767  0.00  0.00    +0.000 F 
ATOM     14  C   UNL     1       4.623   5.758  18.916  0.00  0.00    +0.000 A 
ENDBRANCH   3   7
BRANCH   6  15
ATOM     15  C   UNL     1       0.478  10.882  18.931  0.00  0.00    +0.000 A 
ATOM     16  C   UNL     1      -0.900  11.084  18.760  0.00  0.00    +0.000 A 
ATOM     17  C   UNL     1      -1.420  12.368  18.598  0.00  0.00    +0.000 A 
ATOM     18  C   UNL     1      -0.553  13.444  18.653  0.00  0.00    +0.000 A 
ATOM     19  N   UNL     1       0.770  13.318  18.865  0.00  0.00    +0.000 NA
ATOM     20  C   UNL     1       1.245  12.052  18.998  0.00  0.00    +0.000 A 
ENDBRANCH   6  15
BRANCH   1  22
ATOM     21  N   UNL     1       0.268  10.113  21.987  0.00  0.00    +0.000 N 
ATOM     22  C   UNL     1       0.083   8.930  21.305  0.00  0.00    +0.000 C 
ATOM     23  O   UNL     1      -0.752   8.091  21.614  0.00  0.00    +0.000 OA
ATOM     24  H   UNL     1       0.892  10.818  21.623  0.00  0.00    +0.000 HD
BRANCH  21  25
ATOM     25  C   UNL     1      -0.540  10.460  23.129  0.00  0.00    +0.000 C 
BRANCH  25  29
ATOM     26  C   UNL     1      -2.553  14.257  22.720  0.00  0.00    +0.000 A 
ATOM     27  C   UNL     1      -3.257  13.114  23.132  0.00  0.00    +0.000 A 
ATOM     28  C   UNL     1      -2.617  11.878  23.243  0.00  0.00    +0.000 A 
ATOM     29  C   UNL     1      -1.268  11.758  22.913  0.00  0.00    +0.000 A 
ATOM     30  C   UNL     1      -0.604  12.871  22.383  0.00  0.00    +0.000 A 
ATOM     31  C   UNL     1      -1.230  14.123  22.278  0.00  0.00    +0.000 A 
BRANCH  26  33
ATOM     32  C   UNL     1      -4.168  15.658  23.722  0.00  0.00    +0.000 C 
ATOM     33  O   UNL     1      -3.152  15.489  22.731  0.00  0.00    +0.000 OA
ENDBRANCH  26  33
BRANCH  31  34
ATOM     34  O   UNL     1      -0.387  15.072  21.764  0.00  0.00    +0.000 OA
ATOM     35  C   UNL     1       1.005  14.960  21.994  0.00  0.00    +0.000 C 
ENDBRANCH  31  34
ENDBRANCH  25  29
ENDBRANCH  21  25
ENDBRANCH   1  22
TORSDOF 7
ENDMDL
MODEL 7
REMARK VINA RESULT:      -7.7      2.211      4.110
REMARK  Name = 
REMARK  10 active torsions:
REMARK  status: ('A' for Active; 'I' for Inactive)
REMARK    1  A    between atoms: C_1  and  O_2
REMARK    2  A    between atoms: O_2  and  C_3
REMARK    3  A    between atoms: C_6  and  C_7
REMARK    4  A    between atoms: C_7  and  N_8
REMARK    5  A    between atoms: C_9  and  C_11
REMARK    6  A    between atoms: C_13  and  C_14
REMARK    7  A    between atoms: C_16  and  C_17
REMARK    8  A    between atoms: C_24  and  C_25
REMARK    9  A    between atoms: C_32  and  O_33
REMARK   10  A    between atoms: O_33  and  C_34
REMARK                            x       y       z     vdW  Elec       q    Type
REMARK                         _______ _______ _______ _____ _____    ______ ____
ROOT
ATOM      1  C   UNL     1       1.536   8.851  18.948  0.00  0.00    +0.000 A 
ATOM      2  C   UNL     1       2.226   7.884  18.191  0.00  0.00    +0.000 A 
ATOM      3  C   UNL     1       2.620   6.665  18.749  0.00  0.00    +0.000 A 
ATOM      4  C   UNL     1       2.277   6.489  20.088  0.00  0.00    +0.000 A 
ATOM      5  N   UNL     1       1.588   7.384  20.839  0.00  0.00    +0.000 NA
ATOM      6  C   UNL     1       1.215   8.572  20.280  0.00  0.00    +0.000 A 
ENDROOT
BRANCH   3   7
ATOM      7  C   UNL     1       3.377   5.652  17.979  0.00  0.00    +0.000 A 
ATOM      8  C   UNL     1       4.355   6.024  17.031  0.00  0.00    +0.000 A 
ATOM      9  C   UNL     1       5.059   5.071  16.272  0.00  0.00    +0.000 A 
ATOM     10  C   UNL     1       6.049   5.495  15.228  0.00  0.00    +0.000 C 
ATOM     11  C   UNL     1       4.805   3.715  16.481  0.00  0.00    +0.000 A 
ATOM     12  C   UNL     1       3.859   3.331  17.419  0.00  0.00    +0.000 A 
ATOM     13  F   UNL     1       3.616   2.030  17.618  0.00  0.00    +0.000 F 
ATOM     14  C   UNL     1       3.146   4.276  18.152  0.00  0.00    +0.000 A 
ENDBRANCH   3   7
BRANCH   6  15
ATOM     15  C   UNL     1       0.457   9.442  21.203  0.00  0.00    +0.000 A 
ATOM     16  C   UNL     1      -0.421  10.454  20.785  0.00  0.00    +0.000 A 
ATOM     17  C   UNL     1      -1.076  11.260  21.716  0.00  0.00    +0.000 A 
ATOM     18  C   UNL     1      -0.877  11.012  23.062  0.00  0.00    +0.000 A 
ATOM     19  N   UNL     1      -0.088  10.025  23.524  0.00  0.00    +0.000 NA
ATOM     20  C   UNL     1       0.552   9.273  22.589  0.00  0.00    +0.000 A 
ENDBRANCH   6  15
BRANCH   1  22
ATOM     21  N   UNL     1       2.247  11.133  18.572  0.00  0.00    +0.000 N 
ATOM     22  C   UNL     1       1.301  10.165  18.310  0.00  0.00    +0.000 C 
ATOM     23  O   UNL     1       0.302  10.358  17.631  0.00  0.00    +0.000 OA
ATOM     24  H   UNL     1       3.106  10.890  19.042  0.00  0.00    +0.000 HD
BRANCH  21  25
ATOM     25  C   UNL     1       2.131  12.466  18.036  0.00  0.00    +0.000 C 
BRANCH  25  29
ATOM     26  C   UNL     1      -0.044  14.894  20.866  0.00  0.00    +0.000 A 
ATOM     27  C   UNL     1      -0.568  14.640  19.588  0.00  0.00    +0.000 A 
ATOM     28  C   UNL     1       0.141  13.877  18.660  0.00  0.00    +0.000 A 
ATOM     29  C   UNL     1       1.403  13.378  18.983  0.00  0.00    +0.000 A 
ATOM     30  C   UNL     1       1.974  13.739  20.210  0.00  0.00    +0.000 A 
ATOM     31  C   UNL     1       1.268  14.496  21.158  0.00  0.00    +0.000 A 
BRANCH  26  33
ATOM     32  C   UNL     1      -2.069  14.948  22.079  0.00  0.00    +0.000 C 
ATOM     33  O   UNL     1      -0.794  15.537  21.814  0.00  0.00    +0.000 OA
ENDBRANCH  26  33
BRANCH  31  34
ATOM     34  O   UNL     1       2.004  14.704  22.294  0.00  0.00    +0.000 OA
ATOM     35  C   UNL     1       2.808  15.864  22.395  0.00  0.00    +0.000 C 
ENDBRANCH  31  34
ENDBRANCH  25  29
ENDBRANCH  21  25
ENDBRANCH   1  22
TORSDOF 7
ENDMDL
MODEL 8
REMARK VINA RESULT:      -7.7      1.096      1.876
REMARK  Name = 
REMARK  10 active torsions:
REMARK  status: ('A' for Active; 'I' for Inactive)
REMARK    1  A    between atoms: C_1  and  O_2
REMARK    2  A    between atoms: O_2  and  C_3
REMARK    3  A    between atoms: C_6  and  C_7
REMARK    4  A    between atoms: C_7  and  N_8
REMARK    5  A    between atoms: C_9  and  C_11
REMARK    6  A    between atoms: C_13  and  C_14
REMARK    7  A    between atoms: C_16  and  C_17
REMARK    8  A    between atoms: C_24  and  C_25
REMARK    9  A    between atoms: C_32  and  O_33
REMARK   10  A    between atoms: O_33  and  C_34
REMARK                            x       y       z     vdW  Elec       q    Type
REMARK                         _______ _______ _______ _____ _____    ______ ____
ROOT
ATOM      1  C   UNL     1       1.284   9.085  20.538  0.00  0.00    +0.000 A 
ATOM      2  C   UNL     1       1.764   7.761  20.534  0.00  0.00    +0.000 A 
ATOM      3  C   UNL     1       2.102   7.111  19.344  0.00  0.00    +0.000 A 
ATOM      4  C   UNL     1       1.930   7.867  18.187  0.00  0.00    +0.000 A 
ATOM      5  N   UNL     1       1.498   9.153  18.155  0.00  0.00    +0.000 NA
ATOM      6  C   UNL     1       1.169   9.771  19.326  0.00  0.00    +0.000 A 
ENDROOT
BRANCH   3   7
ATOM      7  C   UNL     1       2.575   5.707  19.318  0.00  0.00    +0.000 A 
ATOM      8  C   UNL     1       2.306   4.817  20.379  0.00  0.00    +0.000 A 
ATOM      9  C   UNL     1       2.776   3.491  20.379  0.00  0.00    +0.000 A 
ATOM     10  C   UNL     1       2.528   2.584  21.548  0.00  0.00    +0.000 C 
ATOM     11  C   UNL     1       3.506   3.030  19.283  0.00  0.00    +0.000 A 
ATOM     12  C   UNL     1       3.767   3.886  18.224  0.00  0.00    +0.000 A 
ATOM     13  F   UNL     1       4.468   3.443  17.173  0.00  0.00    +0.000 F 
ATOM     14  C   UNL     1       3.321   5.205  18.237  0.00  0.00    +0.000 A 
ENDBRANCH   3   7
BRANCH   6  15
ATOM     15  C   UNL     1       0.733  11.172  19.146  0.00  0.00    +0.000 A 
ATOM     16  C   UNL     1      -0.553  11.546  18.727  0.00  0.00    +0.000 A 
ATOM     17  C   UNL     1      -0.882  12.889  18.545  0.00  0.00    +0.000 A 
ATOM     18  C   UNL     1       0.073  13.848  18.830  0.00  0.00    +0.000 A 
ATOM     19  N   UNL     1       1.305  13.555  19.283  0.00  0.00    +0.000 NA
ATOM     20  C   UNL     1       1.598  12.235  19.428  0.00  0.00    +0.000 A 
ENDBRANCH   6  15
BRANCH   1  22
ATOM     21  N   UNL     1      -0.505  10.031  21.863  0.00  0.00    +0.000 N 
ATOM     22  C   UNL     1       0.812   9.626  21.831  0.00  0.00    +0.000 C 
ATOM     23  O   UNL     1       1.577   9.730  22.780  0.00  0.00    +0.000 OA
ATOM     24  H   UNL     1      -1.121   9.820  21.092  0.00  0.00    +0.000 HD
BRANCH  21  25
ATOM     25  C   UNL     1      -1.091  10.602  23.050  0.00  0.00    +0.000 C 
BRANCH  25  29
ATOM     26  C   UNL     1      -2.544  14.634  22.536  0.00  0.00    +0.000 A 
ATOM     27  C   UNL     1      -3.437  13.576  22.775  0.00  0.00    +0.000 A 
ATOM     28  C   UNL     1      -2.975  12.267  22.917  0.00  0.00    +0.000 A 
ATOM     29  C   UNL     1      -1.614  11.987  22.793  0.00  0.00    +0.000 A 
ATOM     30  C   UNL     1      -0.746  13.024  22.430  0.00  0.00    +0.000 A 
ATOM     31  C   UNL     1      -1.193  14.348  22.295  0.00  0.00    +0.000 A 
BRANCH  26  33
ATOM     32  C   UNL     1      -3.465  16.390  21.254  0.00  0.00    +0.000 C 
ATOM     33  O   UNL     1      -2.986  15.930  22.519  0.00  0.00    +0.000 OA
ENDBRANCH  26  33
BRANCH  31  34
ATOM     34  O   UNL     1      -0.172  15.200  21.967  0.00  0.00    +0.000 OA
ATOM     35  C   UNL     1       0.388  16.027  22.969  0.00  0.00    +0.000 C 
ENDBRANCH  31  34
ENDBRANCH  25  29
ENDBRANCH  21  25
ENDBRANCH   1  22
TORSDOF 7
ENDMDL
MODEL 9
REMARK VINA RESULT:      -7.6      1.342      2.334
REMARK  Name = 
REMARK  10 active torsions:
REMARK  status: ('A' for Active; 'I' for Inactive)
REMARK    1  A    between atoms: C_1  and  O_2
REMARK    2  A    between atoms: O_2  and  C_3
REMARK    3  A    between atoms: C_6  and  C_7
REMARK    4  A    between atoms: C_7  and  N_8
REMARK    5  A    between atoms: C_9  and  C_11
REMARK    6  A    between atoms: C_13  and  C_14
REMARK    7  A    between atoms: C_16  and  C_17
REMARK    8  A    between atoms: C_24  and  C_25
REMARK    9  A    between atoms: C_32  and  O_33
REMARK   10  A    between atoms: O_33  and  C_34
REMARK                            x       y       z     vdW  Elec       q    Type
REMARK                         _______ _______ _______ _____ _____    ______ ____
ROOT
ATOM      1  C   UNL     1       1.362   9.200  20.295  0.00  0.00    +0.000 A 
ATOM      2  C   UNL     1       1.822   7.881  20.114  0.00  0.00    +0.000 A 
ATOM      3  C   UNL     1       2.100   7.373  18.843  0.00  0.00    +0.000 A 
ATOM      4  C   UNL     1       1.891   8.263  17.791  0.00  0.00    +0.000 A 
ATOM      5  N   UNL     1       1.478   9.547  17.929  0.00  0.00    +0.000 NA
ATOM      6  C   UNL     1       1.206  10.027  19.178  0.00  0.00    +0.000 A 
ENDROOT
BRANCH   3   7
ATOM      7  C   UNL     1       2.551   5.978  18.631  0.00  0.00    +0.000 A 
ATOM      8  C   UNL     1       3.550   5.660  17.687  0.00  0.00    +0.000 A 
ATOM      9  C   UNL     1       3.964   4.336  17.455  0.00  0.00    +0.000 A 
ATOM     10  C   UNL     1       4.984   4.018  16.403  0.00  0.00    +0.000 C 
ATOM     11  C   UNL     1       3.391   3.305  18.202  0.00  0.00    +0.000 A 
ATOM     12  C   UNL     1       2.419   3.601  19.145  0.00  0.00    +0.000 A 
ATOM     13  F   UNL     1       1.869   2.611  19.860  0.00  0.00    +0.000 F 
ATOM     14  C   UNL     1       1.993   4.910  19.355  0.00  0.00    +0.000 A 
ENDBRANCH   3   7
BRANCH   6  15
ATOM     15  C   UNL     1       0.784  11.443  19.183  0.00  0.00    +0.000 A 
ATOM     16  C   UNL     1       1.634  12.514  19.497  0.00  0.00    +0.000 A 
ATOM     17  C   UNL     1       1.155  13.824  19.516  0.00  0.00    +0.000 A 
ATOM     18  C   UNL     1      -0.166  14.050  19.175  0.00  0.00    +0.000 A 
ATOM     19  N   UNL     1      -1.016  13.070  18.816  0.00  0.00    +0.000 NA
ATOM     20  C   UNL     1      -0.521  11.804  18.830  0.00  0.00    +0.000 A 
ENDBRANCH   6  15
BRANCH   1  22
ATOM     21  N   UNL     1      -0.365   9.971  21.804  0.00  0.00    +0.000 N 
ATOM     22  C   UNL     1       0.953   9.590  21.662  0.00  0.00    +0.000 C 
ATOM     23  O   UNL     1       1.765   9.599  22.576  0.00  0.00    +0.000 OA
ATOM     24  H   UNL     1      -1.017   9.837  21.046  0.00  0.00    +0.000 HD
BRANCH  21  25
ATOM     25  C   UNL     1      -0.894  10.399  23.075  0.00  0.00    +0.000 C 
BRANCH  25  29
ATOM     26  C   UNL     1      -2.643  14.345  23.016  0.00  0.00    +0.000 A 
ATOM     27  C   UNL     1      -3.443  13.210  23.225  0.00  0.00    +0.000 A 
ATOM     28  C   UNL     1      -2.887  11.930  23.221  0.00  0.00    +0.000 A 
ATOM     29  C   UNL     1      -1.525  11.760  22.977  0.00  0.00    +0.000 A 
ATOM     30  C   UNL     1      -0.757  12.882  22.644  0.00  0.00    +0.000 A 
ATOM     31  C   UNL     1      -1.298  14.177  22.657  0.00  0.00    +0.000 A 
BRANCH  26  33
ATOM     32  C   UNL     1      -3.900  15.834  24.350  0.00  0.00    +0.000 C 
ATOM     33  O   UNL     1      -3.168  15.603  23.144  0.00  0.00    +0.000 OA
ENDBRANCH  26  33
BRANCH  31  34
ATOM     34  O   UNL     1      -0.363  15.124  22.332  0.00  0.00    +0.000 OA
ATOM     35  C   UNL     1       0.096  16.014  23.331  0.00  0.00    +0.000 C 
ENDBRANCH  31  34
ENDBRANCH  25  29
ENDBRANCH  21  25
ENDBRANCH   1  22
TORSDOF 7
ENDMDL
