MODEL 1
REMARK VINA RESULT:      -6.9      0.000      0.000
REMARK  Name = 
REMARK  9 active torsions:
REMARK  status: ('A' for Active; 'I' for Inactive)
REMARK    1  A    between atoms: C_1  and  C_2
REMARK    2  A    between atoms: C_2  and  C_3
REMARK    3  A    between atoms: C_3  and  C_4
REMARK    4  A    between atoms: C_4  and  C_5
REMARK    5  A    between atoms: C_5  and  C_6
REMARK    6  A    between atoms: C_6  and  C_7
REMARK    7  A    between atoms: C_7  and  N_8
REMARK    8  A    between atoms: N_8  and  C_9
REMARK    9  A    between atoms: C_14  and  C_15
REMARK                            x       y       z     vdW  Elec       q    Type
REMARK                         _______ _______ _______ _____ _____    ______ ____
ROOT
ATOM      1  C   UNL     1       3.847   2.812  18.175  0.00  0.00    +0.000 C 
ATOM      2  C   UNL     1       4.119   2.510  19.454  0.00  0.00    +0.000 C 
ATOM      3  C   UNL     1       3.066   2.456  20.484  0.00  0.00    +0.000 C 
ATOM      4  O   UNL     1       3.387   2.235  21.653  0.00  0.00    +0.000 OA
ATOM      5  C   UNL     1       1.628   2.642  20.068  0.00  0.00    +0.000 C 
ATOM      6  C   UNL     1       1.501   3.577  18.854  0.00  0.00    +0.000 C 
ATOM      7  C   UNL     1       2.416   3.065  17.726  0.00  0.00    +0.000 C 
ENDROOT
BRANCH   6   8
ATOM      8  C   UNL     1       1.720   5.062  19.166  0.00  0.00    +0.000 A 
ATOM      9  C   UNL     1       2.286   5.920  18.216  0.00  0.00    +0.000 A 
ATOM     10  C   UNL     1       2.521   7.274  18.501  0.00  0.00    +0.000 A 
ATOM     11  C   UNL     1       2.197   7.781  19.746  0.00  0.00    +0.000 A 
ATOM     12  C   UNL     1       1.633   6.952  20.708  0.00  0.00    +0.000 A 
ATOM     13  C   UNL     1       1.397   5.605  20.424  0.00  0.00    +0.000 A 
ENDBRANCH   6   8
BRANCH   1  14
ATOM     14  N   UNL     1       4.834   2.930  17.207  0.00  0.00    +0.000 N 
ATOM     15  H   UNL     1       5.757   2.651  17.523  0.00  0.00    +0.000 HD
BRANCH  14  16
ATOM     16  C   UNL     1       4.851   3.972  16.185  0.00  0.00    +0.000 C 
BRANCH  16  17
ATOM     17  C   UNL     1       6.123   3.900  15.349  0.00  0.00    +0.000 C 
BRANCH  17  18
ATOM     18  C   UNL     1       7.018   5.116  15.594  0.00  0.00    +0.000 C 
BRANCH  18  19
ATOM     19  C   UNL     1       6.300   6.177  16.423  0.00  0.00    +0.000 C 
BRANCH  19  20
ATOM     20  C   UNL     1       7.260   6.842  17.410  0.00  0.00    +0.000 C 
BRANCH  20  22
ATOM     21  C   UNL     1       6.367   5.454  19.309  0.00  0.00    +0.000 C 
ATOM     22  C   UNL     1       7.611   5.897  18.558  0.00  0.00    +0.000 C 
ENDBRANCH  20  22
ENDBRANCH  19  20
ENDBRANCH  18  19
ENDBRANCH  17  18
ENDBRANCH  16  17
ENDBRANCH  14  16
ENDBRANCH   1  14
TORSDOF 8
ENDMDL
MODEL 2
REMARK VINA RESULT:      -6.8      1.121      1.952
REMARK  Name = 
REMARK  9 active torsions:
REMARK  status: ('A' for Active; 'I' for Inactive)
REMARK    1  A    between atoms: C_1  and  C_2
REMARK    2  A    between atoms: C_2  and  C_3
REMARK    3  A    between atoms: C_3  and  C_4
REMARK    4  A    between atoms: C_4  and  C_5
REMARK    5  A    between atoms: C_5  and  C_6
REMARK    6  A    between atoms: C_6  and  C_7
REMARK    7  A    between atoms: C_7  and  N_8
REMARK    8  A    between atoms: N_8  and  C_9
REMARK    9  A    between atoms: C_14  and  C_15
REMARK                            x       y       z     vdW  Elec       q    Type
REMARK                         _______ _______ _______ _____ _____    ______ ____
ROOT
ATOM      1  C   UNL     1       3.984   3.110  17.935  0.00  0.00    +0.000 C 
ATOM      2  C   UNL     1       4.318   2.748  19.183  0.00  0.00    +0.000 C 
ATOM      3  C   UNL     1       3.310   2.598  20.247  0.00  0.00    +0.000 C 
ATOM      4  O   UNL     1       3.684   2.326  21.389  0.00  0.00    +0.000 OA
ATOM      5  C   UNL     1       1.850   2.752  19.898  0.00  0.00    +0.000 C 
ATOM      6  C   UNL     1       1.641   3.747  18.744  0.00  0.00    +0.000 C 
ATOM      7  C   UNL     1       2.528   3.333  17.555  0.00  0.00    +0.000 C 
ENDROOT
BRANCH   6   8
ATOM      8  C   UNL     1       1.819   5.220  19.131  0.00  0.00    +0.000 A 
ATOM      9  C   UNL     1       1.551   5.658  20.432  0.00  0.00    +0.000 A 
ATOM     10  C   UNL     1       1.679   7.010  20.789  0.00  0.00    +0.000 A 
ATOM     11  C   UNL     1       2.070   7.938  19.842  0.00  0.00    +0.000 A 
ATOM     12  C   UNL     1       2.344   7.530  18.542  0.00  0.00    +0.000 A 
ATOM     13  C   UNL     1       2.219   6.185  18.187  0.00  0.00    +0.000 A 
ENDBRANCH   6   8
BRANCH   1  14
ATOM     14  N   UNL     1       4.927   3.319  16.939  0.00  0.00    +0.000 N 
ATOM     15  H   UNL     1       5.238   2.468  16.480  0.00  0.00    +0.000 HD
BRANCH  14  16
ATOM     16  C   UNL     1       5.942   4.368  16.984  0.00  0.00    +0.000 C 
BRANCH  16  17
ATOM     17  C   UNL     1       5.379   5.697  16.495  0.00  0.00    +0.000 C 
BRANCH  17  18
ATOM     18  C   UNL     1       6.151   6.878  17.086  0.00  0.00    +0.000 C 
BRANCH  18  19
ATOM     19  C   UNL     1       7.528   6.448  17.585  0.00  0.00    +0.000 C 
BRANCH  19  20
ATOM     20  C   UNL     1       8.183   7.559  18.406  0.00  0.00    +0.000 C 
BRANCH  20  22
ATOM     21  C   UNL     1       8.804   9.997  18.424  0.00  0.00    +0.000 C 
ATOM     22  C   UNL     1       7.947   8.927  17.769  0.00  0.00    +0.000 C 
ENDBRANCH  20  22
ENDBRANCH  19  20
ENDBRANCH  18  19
ENDBRANCH  17  18
ENDBRANCH  16  17
ENDBRANCH  14  16
ENDBRANCH   1  14
TORSDOF 8
ENDMDL
MODEL 3
REMARK VINA RESULT:      -6.8      1.389      2.967
REMARK  Name = 
REMARK  9 active torsions:
REMARK  status: ('A' for Active; 'I' for Inactive)
REMARK    1  A    between atoms: C_1  and  C_2
REMARK    2  A    between atoms: C_2  and  C_3
REMARK    3  A    between atoms: C_3  and  C_4
REMARK    4  A    between atoms: C_4  and  C_5
REMARK    5  A    between atoms: C_5  and  C_6
REMARK    6  A    between atoms: C_6  and  C_7
REMARK    7  A    between atoms: C_7  and  N_8
REMARK    8  A    between atoms: N_8  and  C_9
REMARK    9  A    between atoms: C_14  and  C_15
REMARK                            x       y       z     vdW  Elec       q    Type
REMARK                         _______ _______ _______ _____ _____    ______ ____
ROOT
ATOM      1  C   UNL     1       4.394   3.295  19.048  0.00  0.00    +0.000 C 
ATOM      2  C   UNL     1       4.093   2.914  20.299  0.00  0.00    +0.000 C 
ATOM      3  C   UNL     1       2.700   2.778  20.759  0.00  0.00    +0.000 C 
ATOM      4  O   UNL     1       2.487   2.487  21.937  0.00  0.00    +0.000 OA
ATOM      5  C   UNL     1       1.580   2.970  19.766  0.00  0.00    +0.000 C 
ATOM      6  C   UNL     1       1.957   3.980  18.669  0.00  0.00    +0.000 C 
ATOM      7  C   UNL     1       3.293   3.555  18.031  0.00  0.00    +0.000 C 
ENDROOT
BRANCH   6   8
ATOM      8  C   UNL     1       1.956   5.445  19.122  0.00  0.00    +0.000 A 
ATOM      9  C   UNL     1       1.491   5.804  20.393  0.00  0.00    +0.000 A 
ATOM     10  C   UNL     1       1.456   7.145  20.806  0.00  0.00    +0.000 A 
ATOM     11  C   UNL     1       1.879   8.141  19.946  0.00  0.00    +0.000 A 
ATOM     12  C   UNL     1       2.346   7.814  18.679  0.00  0.00    +0.000 A 
ATOM     13  C   UNL     1       2.384   6.479  18.268  0.00  0.00    +0.000 A 
ENDBRANCH   6   8
BRANCH   1  14
ATOM     14  N   UNL     1       5.699   3.490  18.618  0.00  0.00    +0.000 N 
ATOM     15  H   UNL     1       6.350   2.782  18.943  0.00  0.00    +0.000 HD
BRANCH  14  16
ATOM     16  C   UNL     1       6.304   4.804  18.424  0.00  0.00    +0.000 C 
BRANCH  16  17
ATOM     17  C   UNL     1       7.077   4.863  17.112  0.00  0.00    +0.000 C 
BRANCH  17  18
ATOM     18  C   UNL     1       6.178   5.312  15.958  0.00  0.00    +0.000 C 
BRANCH  18  19
ATOM     19  C   UNL     1       6.702   4.807  14.616  0.00  0.00    +0.000 C 
BRANCH  19  20
ATOM     20  C   UNL     1       5.653   3.949  13.909  0.00  0.00    +0.000 C 
BRANCH  20  22
ATOM     21  C   UNL     1       5.006   3.118  11.624  0.00  0.00    +0.000 C 
ATOM     22  C   UNL     1       6.158   3.473  12.548  0.00  0.00    +0.000 C 
ENDBRANCH  20  22
ENDBRANCH  19  20
ENDBRANCH  18  19
ENDBRANCH  17  18
ENDBRANCH  16  17
ENDBRANCH  14  16
ENDBRANCH   1  14
TORSDOF 8
ENDMDL
MODEL 4
REMARK VINA RESULT:      -6.7      1.779      3.436
REMARK  Name = 
REMARK  9 active torsions:
REMARK  status: ('A' for Active; 'I' for Inactive)
REMARK    1  A    between atoms: C_1  and  C_2
REMARK    2  A    between atoms: C_2  and  C_3
REMARK    3  A    between atoms: C_3  and  C_4
REMARK    4  A    between atoms: C_4  and  C_5
REMARK    5  A    between atoms: C_5  and  C_6
REMARK    6  A    between atoms: C_6  and  C_7
REMARK    7  A    between atoms: C_7  and  N_8
REMARK    8  A    between atoms: N_8  and  C_9
REMARK    9  A    between atoms: C_14  and  C_15
REMARK                            x       y       z     vdW  Elec       q    Type
REMARK                         _______ _______ _______ _____ _____    ______ ____
ROOT
ATOM      1  C   UNL     1       3.906   2.965  17.902  0.00  0.00    +0.000 C 
ATOM      2  C   UNL     1       4.323   2.648  19.138  0.00  0.00    +0.000 C 
ATOM      3  C   UNL     1       3.388   2.533  20.271  0.00  0.00    +0.000 C 
ATOM      4  O   UNL     1       3.839   2.302  21.394  0.00  0.00    +0.000 OA
ATOM      5  C   UNL     1       1.908   2.672  20.014  0.00  0.00    +0.000 C 
ATOM      6  C   UNL     1       1.619   3.625  18.843  0.00  0.00    +0.000 C 
ATOM      7  C   UNL     1       2.427   3.171  17.612  0.00  0.00    +0.000 C 
ENDROOT
BRANCH   6   8
ATOM      8  C   UNL     1       1.815   5.111  19.165  0.00  0.00    +0.000 A 
ATOM      9  C   UNL     1       1.500   5.621  20.429  0.00  0.00    +0.000 A 
ATOM     10  C   UNL     1       1.645   6.985  20.725  0.00  0.00    +0.000 A 
ATOM     11  C   UNL     1       2.102   7.855  19.753  0.00  0.00    +0.000 A 
ATOM     12  C   UNL     1       2.423   7.377  18.489  0.00  0.00    +0.000 A 
ATOM     13  C   UNL     1       2.281   6.019  18.194  0.00  0.00    +0.000 A 
ENDBRANCH   6   8
BRANCH   1  14
ATOM     14  N   UNL     1       4.779   3.140  16.839  0.00  0.00    +0.000 N 
ATOM     15  H   UNL     1       5.100   2.273  16.421  0.00  0.00    +0.000 HD
BRANCH  14  16
ATOM     16  C   UNL     1       5.748   4.229  16.751  0.00  0.00    +0.000 C 
BRANCH  16  17
ATOM     17  C   UNL     1       6.524   4.169  15.442  0.00  0.00    +0.000 C 
BRANCH  17  18
ATOM     18  C   UNL     1       5.582   4.181  14.237  0.00  0.00    +0.000 C 
BRANCH  18  19
ATOM     19  C   UNL     1       6.308   3.765  12.959  0.00  0.00    +0.000 C 
BRANCH  19  20
ATOM     20  C   UNL     1       5.325   3.210  11.929  0.00  0.00    +0.000 C 
BRANCH  20  22
ATOM     21  C   UNL     1       7.231   1.823  11.048  0.00  0.00    +0.000 C 
ATOM     22  C   UNL     1       5.763   1.830  11.439  0.00  0.00    +0.000 C 
ENDBRANCH  20  22
ENDBRANCH  19  20
ENDBRANCH  18  19
ENDBRANCH  17  18
ENDBRANCH  16  17
ENDBRANCH  14  16
ENDBRANCH   1  14
TORSDOF 8
ENDMDL
MODEL 5
REMARK VINA RESULT:      -6.7      0.424      1.129
REMARK  Name = 
REMARK  9 active torsions:
REMARK  status: ('A' for Active; 'I' for Inactive)
REMARK    1  A    between atoms: C_1  and  C_2
REMARK    2  A    between atoms: C_2  and  C_3
REMARK    3  A    between atoms: C_3  and  C_4
REMARK    4  A    between atoms: C_4  and  C_5
REMARK    5  A    between atoms: C_5  and  C_6
REMARK    6  A    between atoms: C_6  and  C_7
REMARK    7  A    between atoms: C_7  and  N_8
REMARK    8  A    between atoms: N_8  and  C_9
REMARK    9  A    between atoms: C_14  and  C_15
REMARK                            x       y       z     vdW  Elec       q    Type
REMARK                         _______ _______ _______ _____ _____    ______ ____
ROOT
ATOM      1  C   UNL     1       3.760   2.923  18.466  0.00  0.00    +0.000 C 
ATOM      2  C   UNL     1       3.922   2.614  19.762  0.00  0.00    +0.000 C 
ATOM      3  C   UNL     1       2.797   2.626  20.713  0.00  0.00    +0.000 C 
ATOM      4  O   UNL     1       3.020   2.396  21.903  0.00  0.00    +0.000 OA
ATOM      5  C   UNL     1       1.405   2.891  20.195  0.00  0.00    +0.000 C 
ATOM      6  C   UNL     1       1.419   3.823  18.973  0.00  0.00    +0.000 C 
ATOM      7  C   UNL     1       2.382   3.253  17.915  0.00  0.00    +0.000 C 
ENDROOT
BRANCH   6   8
ATOM      8  C   UNL     1       1.698   5.296  19.296  0.00  0.00    +0.000 A 
ATOM      9  C   UNL     1       1.299   5.852  20.516  0.00  0.00    +0.000 A 
ATOM     10  C   UNL     1       1.521   7.207  20.810  0.00  0.00    +0.000 A 
ATOM     11  C   UNL     1       2.139   8.020  19.878  0.00  0.00    +0.000 A 
ATOM     12  C   UNL     1       2.547   7.495  18.658  0.00  0.00    +0.000 A 
ATOM     13  C   UNL     1       2.328   6.146  18.367  0.00  0.00    +0.000 A 
ENDBRANCH   6   8
BRANCH   1  14
ATOM     14  N   UNL     1       4.819   2.979  17.572  0.00  0.00    +0.000 N 
ATOM     15  H   UNL     1       5.732   3.013  18.015  0.00  0.00    +0.000 HD
BRANCH  14  16
ATOM     16  C   UNL     1       4.763   3.666  16.285  0.00  0.00    +0.000 C 
BRANCH  16  17
ATOM     17  C   UNL     1       6.162   3.922  15.738  0.00  0.00    +0.000 C 
BRANCH  17  18
ATOM     18  C   UNL     1       6.387   5.410  15.463  0.00  0.00    +0.000 C 
BRANCH  18  19
ATOM     19  C   UNL     1       5.595   6.281  16.434  0.00  0.00    +0.000 C 
BRANCH  19  20
ATOM     20  C   UNL     1       6.530   7.120  17.304  0.00  0.00    +0.000 C 
BRANCH  20  22
ATOM     21  C   UNL     1       6.608   5.577  19.290  0.00  0.00    +0.000 C 
ATOM     22  C   UNL     1       7.413   6.232  18.180  0.00  0.00    +0.000 C 
ENDBRANCH  20  22
ENDBRANCH  19  20
ENDBRANCH  18  19
ENDBRANCH  17  18
ENDBRANCH  16  17
ENDBRANCH  14  16
ENDBRANCH   1  14
TORSDOF 8
ENDMDL
MODEL 6
REMARK VINA RESULT:      -6.7      1.626      3.254
REMARK  Name = 
REMARK  9 active torsions:
REMARK  status: ('A' for Active; 'I' for Inactive)
REMARK    1  A    between atoms: C_1  and  C_2
REMARK    2  A    between atoms: C_2  and  C_3
REMARK    3  A    between atoms: C_3  and  C_4
REMARK    4  A    between atoms: C_4  and  C_5
REMARK    5  A    between atoms: C_5  and  C_6
REMARK    6  A    between atoms: C_6  and  C_7
REMARK    7  A    between atoms: C_7  and  N_8
REMARK    8  A    between atoms: N_8  and  C_9
REMARK    9  A    between atoms: C_14  and  C_15
REMARK                            x       y       z     vdW  Elec       q    Type
REMARK                         _______ _______ _______ _____ _____    ______ ____
ROOT
ATOM      1  C   UNL     1       3.592   2.741  18.437  0.00  0.00    +0.000 C 
ATOM      2  C   UNL     1       3.794   2.494  19.741  0.00  0.00    +0.000 C 
ATOM      3  C   UNL     1       2.703   2.577  20.728  0.00  0.00    +0.000 C 
ATOM      4  O   UNL     1       2.963   2.402  21.920  0.00  0.00    +0.000 OA
ATOM      5  C   UNL     1       1.299   2.846  20.245  0.00  0.00    +0.000 C 
ATOM      6  C   UNL     1       1.288   3.716  18.978  0.00  0.00    +0.000 C 
ATOM      7  C   UNL     1       2.202   3.073  17.917  0.00  0.00    +0.000 C 
ENDROOT
BRANCH   6   8
ATOM      8  C   UNL     1       1.608   5.196  19.216  0.00  0.00    +0.000 A 
ATOM      9  C   UNL     1       1.341   5.800  20.450  0.00  0.00    +0.000 A 
ATOM     10  C   UNL     1       1.600   7.162  20.669  0.00  0.00    +0.000 A 
ATOM     11  C   UNL     1       2.123   7.935  19.650  0.00  0.00    +0.000 A 
ATOM     12  C   UNL     1       2.399   7.362  18.414  0.00  0.00    +0.000 A 
ATOM     13  C   UNL     1       2.144   6.006  18.196  0.00  0.00    +0.000 A 
ENDBRANCH   6   8
BRANCH   1  14
ATOM     14  N   UNL     1       4.620   2.729  17.505  0.00  0.00    +0.000 N 
ATOM     15  H   UNL     1       5.241   1.930  17.585  0.00  0.00    +0.000 HD
BRANCH  14  16
ATOM     16  C   UNL     1       5.272   3.933  16.997  0.00  0.00    +0.000 C 
BRANCH  16  17
ATOM     17  C   UNL     1       4.939   4.157  15.527  0.00  0.00    +0.000 C 
BRANCH  17  18
ATOM     18  C   UNL     1       6.190   4.057  14.653  0.00  0.00    +0.000 C 
BRANCH  18  19
ATOM     19  C   UNL     1       5.868   4.339  13.187  0.00  0.00    +0.000 C 
BRANCH  19  20
ATOM     20  C   UNL     1       6.455   3.258  12.281  0.00  0.00    +0.000 C 
BRANCH  20  22
ATOM     21  C   UNL     1       4.139   3.271  11.300  0.00  0.00    +0.000 C 
ATOM     22  C   UNL     1       5.352   2.421  11.635  0.00  0.00    +0.000 C 
ENDBRANCH  20  22
ENDBRANCH  19  20
ENDBRANCH  18  19
ENDBRANCH  17  18
ENDBRANCH  16  17
ENDBRANCH  14  16
ENDBRANCH   1  14
TORSDOF 8
ENDMDL
MODEL 7
REMARK VINA RESULT:      -6.7      1.734      5.582
REMARK  Name = 
REMARK  9 active torsions:
REMARK  status: ('A' for Active; 'I' for Inactive)
REMARK    1  A    between atoms: C_1  and  C_2
REMARK    2  A    between atoms: C_2  and  C_3
REMARK    3  A    between atoms: C_3  and  C_4
REMARK    4  A    between atoms: C_4  and  C_5
REMARK    5  A    between atoms: C_5  and  C_6
REMARK    6  A    between atoms: C_6  and  C_7
REMARK    7  A    between atoms: C_7  and  N_8
REMARK    8  A    between atoms: N_8  and  C_9
REMARK    9  A    between atoms: C_14  and  C_15
REMARK                            x       y       z     vdW  Elec       q    Type
REMARK                         _______ _______ _______ _____ _____    ______ ____
ROOT
ATOM      1  C   UNL     1       3.866   3.503  18.188  0.00  0.00    +0.000 C 
ATOM      2  C   UNL     1       4.934   3.653  18.987  0.00  0.00    +0.000 C 
ATOM      3  C   UNL     1       5.684   4.919  19.058  0.00  0.00    +0.000 C 
ATOM      4  O   UNL     1       6.694   4.975  19.762  0.00  0.00    +0.000 OA
ATOM      5  C   UNL     1       5.176   6.113  18.289  0.00  0.00    +0.000 C 
ATOM      6  C   UNL     1       4.447   5.695  17.001  0.00  0.00    +0.000 C 
ATOM      7  C   UNL     1       3.355   4.667  17.352  0.00  0.00    +0.000 C 
ENDROOT
BRANCH   6   8
ATOM      8  C   UNL     1       5.367   5.220  15.871  0.00  0.00    +0.000 A 
ATOM      9  C   UNL     1       6.701   5.640  15.806  0.00  0.00    +0.000 A 
ATOM     10  C   UNL     1       7.544   5.237  14.759  0.00  0.00    +0.000 A 
ATOM     11  C   UNL     1       7.056   4.415  13.760  0.00  0.00    +0.000 A 
ATOM     12  C   UNL     1       5.736   3.983  13.799  0.00  0.00    +0.000 A 
ATOM     13  C   UNL     1       4.897   4.381  14.843  0.00  0.00    +0.000 A 
ENDBRANCH   6   8
BRANCH   1  14
ATOM     14  N   UNL     1       3.188   2.300  18.062  0.00  0.00    +0.000 N 
ATOM     15  H   UNL     1       2.918   2.076  17.110  0.00  0.00    +0.000 HD
BRANCH  14  16
ATOM     16  C   UNL     1       2.278   1.768  19.073  0.00  0.00    +0.000 C 
BRANCH  16  17
ATOM     17  C   UNL     1       0.877   2.343  18.906  0.00  0.00    +0.000 C 
BRANCH  17  18
ATOM     18  C   UNL     1       0.620   3.477  19.900  0.00  0.00    +0.000 C 
BRANCH  18  19
ATOM     19  C   UNL     1       1.644   3.467  21.032  0.00  0.00    +0.000 C 
BRANCH  19  20
ATOM     20  C   UNL     1       2.273   4.848  21.212  0.00  0.00    +0.000 C 
BRANCH  20  22
ATOM     21  C   UNL     1       2.237   7.031  19.962  0.00  0.00    +0.000 C 
ATOM     22  C   UNL     1       1.396   5.937  20.596  0.00  0.00    +0.000 C 
ENDBRANCH  20  22
ENDBRANCH  19  20
ENDBRANCH  18  19
ENDBRANCH  17  18
ENDBRANCH  16  17
ENDBRANCH  14  16
ENDBRANCH   1  14
TORSDOF 8
ENDMDL
MODEL 8
REMARK VINA RESULT:      -6.7      1.787      3.266
REMARK  Name = 
REMARK  9 active torsions:
REMARK  status: ('A' for Active; 'I' for Inactive)
REMARK    1  A    between atoms: C_1  and  C_2
REMARK    2  A    between atoms: C_2  and  C_3
REMARK    3  A    between atoms: C_3  and  C_4
REMARK    4  A    between atoms: C_4  and  C_5
REMARK    5  A    between atoms: C_5  and  C_6
REMARK    6  A    between atoms: C_6  and  C_7
REMARK    7  A    between atoms: C_7  and  N_8
REMARK    8  A    between atoms: N_8  and  C_9
REMARK    9  A    between atoms: C_14  and  C_15
REMARK                            x       y       z     vdW  Elec       q    Type
REMARK                         _______ _______ _______ _____ _____    ______ ____
ROOT
ATOM      1  C   UNL     1       4.140   3.142  17.709  0.00  0.00    +0.000 C 
ATOM      2  C   UNL     1       4.582   2.792  18.927  0.00  0.00    +0.000 C 
ATOM      3  C   UNL     1       3.660   2.540  20.048  0.00  0.00    +0.000 C 
ATOM      4  O   UNL     1       4.129   2.285  21.159  0.00  0.00    +0.000 OA
ATOM      5  C   UNL     1       2.174   2.575  19.794  0.00  0.00    +0.000 C 
ATOM      6  C   UNL     1       1.809   3.564  18.676  0.00  0.00    +0.000 C 
ATOM      7  C   UNL     1       2.649   3.245  17.425  0.00  0.00    +0.000 C 
ENDROOT
BRANCH   6   8
ATOM      8  C   UNL     1       1.886   5.041  19.079  0.00  0.00    +0.000 A 
ATOM      9  C   UNL     1       2.335   6.011  18.175  0.00  0.00    +0.000 A 
ATOM     10  C   UNL     1       2.441   7.361  18.544  0.00  0.00    +0.000 A 
ATOM     11  C   UNL     1       2.105   7.753  19.827  0.00  0.00    +0.000 A 
ATOM     12  C   UNL     1       1.656   6.812  20.745  0.00  0.00    +0.000 A 
ATOM     13  C   UNL     1       1.548   5.468  20.378  0.00  0.00    +0.000 A 
ENDBRANCH   6   8
BRANCH   1  14
ATOM     14  N   UNL     1       4.997   3.445  16.660  0.00  0.00    +0.000 N 
ATOM     15  H   UNL     1       5.161   2.670  16.025  0.00  0.00    +0.000 HD
BRANCH  14  16
ATOM     16  C   UNL     1       6.123   4.367  16.768  0.00  0.00    +0.000 C 
BRANCH  16  17
ATOM     17  C   UNL     1       6.467   4.974  15.414  0.00  0.00    +0.000 C 
BRANCH  17  18
ATOM     18  C   UNL     1       5.550   4.435  14.315  0.00  0.00    +0.000 C 
BRANCH  18  19
ATOM     19  C   UNL     1       6.327   3.595  13.304  0.00  0.00    +0.000 C 
BRANCH  19  20
ATOM     20  C   UNL     1       5.489   3.330  12.054  0.00  0.00    +0.000 C 
BRANCH  20  22
ATOM     21  C   UNL     1       7.201   1.817  11.000  0.00  0.00    +0.000 C 
ATOM     22  C   UNL     1       5.768   1.938  11.490  0.00  0.00    +0.000 C 
ENDBRANCH  20  22
ENDBRANCH  19  20
ENDBRANCH  18  19
ENDBRANCH  17  18
ENDBRANCH  16  17
ENDBRANCH  14  16
ENDBRANCH   1  14
TORSDOF 8
ENDMDL
MODEL 9
REMARK VINA RESULT:      -6.6      1.342      2.308
REMARK  Name = 
REMARK  9 active torsions:
REMARK  status: ('A' for Active; 'I' for Inactive)
REMARK    1  A    between atoms: C_1  and  C_2
REMARK    2  A    between atoms: C_2  and  C_3
REMARK    3  A    between atoms: C_3  and  C_4
REMARK    4  A    between atoms: C_4  and  C_5
REMARK    5  A    between atoms: C_5  and  C_6
REMARK    6  A    between atoms: C_6  and  C_7
REMARK    7  A    between atoms: C_7  and  N_8
REMARK    8  A    between atoms: N_8  and  C_9
REMARK    9  A    between atoms: C_14  and  C_15
REMARK                            x       y       z     vdW  Elec       q    Type
REMARK                         _______ _______ _______ _____ _____    ______ ____
ROOT
ATOM      1  C   UNL     1       3.990   3.095  19.295  0.00  0.00    +0.000 C 
ATOM      2  C   UNL     1       3.593   2.786  20.539  0.00  0.00    +0.000 C 
ATOM      3  C   UNL     1       2.171   2.796  20.928  0.00  0.00    +0.000 C 
ATOM      4  O   UNL     1       1.873   2.566  22.102  0.00  0.00    +0.000 OA
ATOM      5  C   UNL     1       1.127   3.057  19.872  0.00  0.00    +0.000 C 
ATOM      6  C   UNL     1       1.651   3.990  18.767  0.00  0.00    +0.000 C 
ATOM      7  C   UNL     1       2.971   3.421  18.214  0.00  0.00    +0.000 C 
ENDROOT
BRANCH   6   8
ATOM      8  C   UNL     1       1.766   5.463  19.176  0.00  0.00    +0.000 A 
ATOM      9  C   UNL     1       1.367   5.889  20.448  0.00  0.00    +0.000 A 
ATOM     10  C   UNL     1       1.437   7.240  20.822  0.00  0.00    +0.000 A 
ATOM     11  C   UNL     1       1.902   8.180  19.922  0.00  0.00    +0.000 A 
ATOM     12  C   UNL     1       2.306   7.785  18.652  0.00  0.00    +0.000 A 
ATOM     13  C   UNL     1       2.239   6.440  18.280  0.00  0.00    +0.000 A 
ENDBRANCH   6   8
BRANCH   1  14
ATOM     14  N   UNL     1       5.328   3.153  18.929  0.00  0.00    +0.000 N 
ATOM     15  H   UNL     1       5.970   2.886  19.669  0.00  0.00    +0.000 HD
BRANCH  14  16
ATOM     16  C   UNL     1       5.876   4.136  18.000  0.00  0.00    +0.000 C 
BRANCH  16  17
ATOM     17  C   UNL     1       6.321   5.395  18.733  0.00  0.00    +0.000 C 
BRANCH  17  18
ATOM     18  C   UNL     1       7.828   5.615  18.594  0.00  0.00    +0.000 C 
BRANCH  18  19
ATOM     19  C   UNL     1       8.194   7.087  18.766  0.00  0.00    +0.000 C 
BRANCH  19  20
ATOM     20  C   UNL     1       7.702   7.915  17.579  0.00  0.00    +0.000 C 
BRANCH  20  22
ATOM     21  C   UNL     1       8.987   9.595  18.941  0.00  0.00    +0.000 C 
ATOM     22  C   UNL     1       8.087   9.385  17.735  0.00  0.00    +0.000 C 
ENDBRANCH  20  22
ENDBRANCH  19  20
ENDBRANCH  18  19
ENDBRANCH  17  18
ENDBRANCH  16  17
ENDBRANCH  14  16
ENDBRANCH   1  14
TORSDOF 8
ENDMDL
