MODEL 1
REMARK VINA RESULT:      -7.4      0.000      0.000
REMARK  Name = 
REMARK  10 active torsions:
REMARK  status: ('A' for Active; 'I' for Inactive)
REMARK    1  A    between atoms: C_1  and  C_2
REMARK    2  A    between atoms: C_2  and  O_3
REMARK    3  A    between atoms: O_3  and  C_4
REMARK    4  A    between atoms: C_4  and  C_5
REMARK    5  A    between atoms: C_9  and  S_10
REMARK    6  A    between atoms: S_10  and  N_13
REMARK    7  A    between atoms: C_19  and  O_20
REMARK    8  A    between atoms: O_20  and  C_21
REMARK    9  A    between atoms: C_23  and  O_24
REMARK   10  A    between atoms: O_24  and  C_25
REMARK                            x       y       z     vdW  Elec       q    Type
REMARK                         _______ _______ _______ _____ _____    ______ ____
ROOT
ATOM      1  N   UNL     1       3.495   5.227  19.886  0.00  0.00    +0.000 N 
ATOM      2  C   UNL     1       2.816   6.412  19.625  0.00  0.00    +0.000 C 
ATOM      3  O   UNL     1       2.834   6.895  18.504  0.00  0.00    +0.000 OA
ATOM      4  N   UNL     1       2.225   6.945  20.728  0.00  0.00    +0.000 N 
ATOM      5  C   UNL     1       1.498   8.123  20.685  0.00  0.00    +0.000 A 
ATOM      6  N   UNL     1       1.163   8.638  19.510  0.00  0.00    +0.000 NA
ATOM      7  C   UNL     1       0.489   9.786  19.491  0.00  0.00    +0.000 A 
ATOM      8  C   UNL     1       0.137  10.457  20.631  0.00  0.00    +0.000 A 
ATOM      9  C   UNL     1       0.524   9.842  21.799  0.00  0.00    +0.000 A 
ATOM     10  N   UNL     1       1.182   8.666  21.858  0.00  0.00    +0.000 NA
ATOM     11  H   UNL     1       3.693   4.896  20.819  0.00  0.00    +0.000 HD
ATOM     12  H   UNL     1       2.329   6.542  21.641  0.00  0.00    +0.000 HD
ENDROOT
BRANCH   1  13
ATOM     13  S   UNL     1       4.401   4.487  18.695  0.00  0.00    +0.000 S 
ATOM     14  O   UNL     1       3.610   4.378  17.495  0.00  0.00    +0.000 OA
ATOM     15  O   UNL     1       4.984   3.312  19.313  0.00  0.00    +0.000 OA
BRANCH  13  20
ATOM     16  C   UNL     1       6.032   6.481  17.303  0.00  0.00    +0.000 A 
ATOM     17  C   UNL     1       7.310   7.116  17.498  0.00  0.00    +0.000 A 
ATOM     18  C   UNL     1       7.969   6.668  18.616  0.00  0.00    +0.000 A 
ATOM     19  S   UNL     1       7.056   5.507  19.464  0.00  0.00    +0.000 S 
ATOM     20  C   UNL     1       5.779   5.564  18.316  0.00  0.00    +0.000 A 
BRANCH  16  21
ATOM     21  C   UNL     1       5.123   6.798  16.150  0.00  0.00    +0.000 C 
BRANCH  21  22
ATOM     22  O   UNL     1       5.038   5.664  15.281  0.00  0.00    +0.000 OA
BRANCH  22  24
ATOM     23  C   UNL     1       6.305   3.729  14.773  0.00  0.00    +0.000 C 
ATOM     24  C   UNL     1       6.308   5.246  14.801  0.00  0.00    +0.000 C 
ENDBRANCH  22  24
ENDBRANCH  21  22
ENDBRANCH  16  21
ENDBRANCH  13  20
ENDBRANCH   1  13
BRANCH   7  25
ATOM     25  O   UNL     1       0.136  10.318  18.269  0.00  0.00    +0.000 OA
ATOM     26  C   UNL     1      -1.280  10.518  18.157  0.00  0.00    +0.000 C 
ENDBRANCH   7  25
BRANCH   9  27
ATOM     27  O   UNL     1       0.217  10.500  22.976  0.00  0.00    +0.000 OA
ATOM     28  C   UNL     1      -1.069  11.118  22.944  0.00  0.00    +0.000 C 
ENDBRANCH   9  27
TORSDOF 7
ENDMDL
MODEL 2
REMARK VINA RESULT:      -7.3      0.996      1.107
REMARK  Name = 
REMARK  10 active torsions:
REMARK  status: ('A' for Active; 'I' for Inactive)
REMARK    1  A    between atoms: C_1  and  C_2
REMARK    2  A    between atoms: C_2  and  O_3
REMARK    3  A    between atoms: O_3  and  C_4
REMARK    4  A    between atoms: C_4  and  C_5
REMARK    5  A    between atoms: C_9  and  S_10
REMARK    6  A    between atoms: S_10  and  N_13
REMARK    7  A    between atoms: C_19  and  O_20
REMARK    8  A    between atoms: O_20  and  C_21
REMARK    9  A    between atoms: C_23  and  O_24
REMARK   10  A    between atoms: O_24  and  C_25
REMARK                            x       y       z     vdW  Elec       q    Type
REMARK                         _______ _______ _______ _____ _____    ______ ____
ROOT
ATOM      1  N   UNL     1       3.153   4.815  19.510  0.00  0.00    +0.000 N 
ATOM      2  C   UNL     1       2.729   6.132  19.368  0.00  0.00    +0.000 C 
ATOM      3  O   UNL     1       2.967   6.745  18.340  0.00  0.00    +0.000 OA
ATOM      4  N   UNL     1       2.111   6.618  20.478  0.00  0.00    +0.000 N 
ATOM      5  C   UNL     1       1.614   7.908  20.546  0.00  0.00    +0.000 A 
ATOM      6  N   UNL     1       1.519   8.627  19.436  0.00  0.00    +0.000 NA
ATOM      7  C   UNL     1       1.064   9.876  19.528  0.00  0.00    +0.000 A 
ATOM      8  C   UNL     1       0.700  10.446  20.717  0.00  0.00    +0.000 A 
ATOM      9  C   UNL     1       0.828   9.620  21.810  0.00  0.00    +0.000 A 
ATOM     10  N   UNL     1       1.258   8.342  21.752  0.00  0.00    +0.000 NA
ATOM     11  H   UNL     1       3.175   4.332  20.396  0.00  0.00    +0.000 HD
ATOM     12  H   UNL     1       2.032   6.085  21.325  0.00  0.00    +0.000 HD
ENDROOT
BRANCH   1  13
ATOM     13  S   UNL     1       4.053   4.078  18.312  0.00  0.00    +0.000 S 
ATOM     14  O   UNL     1       3.295   4.070  17.085  0.00  0.00    +0.000 OA
ATOM     15  O   UNL     1       4.548   2.844  18.890  0.00  0.00    +0.000 OA
BRANCH  13  20
ATOM     16  C   UNL     1       6.017   5.735  16.908  0.00  0.00    +0.000 A 
ATOM     17  C   UNL     1       7.216   6.457  17.244  0.00  0.00    +0.000 A 
ATOM     18  C   UNL     1       7.566   6.333  18.566  0.00  0.00    +0.000 A 
ATOM     19  S   UNL     1       6.449   5.379  19.429  0.00  0.00    +0.000 S 
ATOM     20  C   UNL     1       5.501   5.089  18.024  0.00  0.00    +0.000 A 
BRANCH  16  21
ATOM     21  C   UNL     1       5.431   5.712  15.525  0.00  0.00    +0.000 C 
BRANCH  21  22
ATOM     22  O   UNL     1       6.483   5.796  14.558  0.00  0.00    +0.000 OA
BRANCH  22  24
ATOM     23  C   UNL     1       7.492   4.841  12.639  0.00  0.00    +0.000 C 
ATOM     24  C   UNL     1       6.750   4.549  13.930  0.00  0.00    +0.000 C 
ENDBRANCH  22  24
ENDBRANCH  21  22
ENDBRANCH  16  21
ENDBRANCH  13  20
ENDBRANCH   1  13
BRANCH   7  25
ATOM     25  O   UNL     1       0.962  10.621  18.373  0.00  0.00    +0.000 OA
ATOM     26  C   UNL     1       2.035  11.565  18.244  0.00  0.00    +0.000 C 
ENDBRANCH   7  25
BRANCH   9  27
ATOM     27  O   UNL     1       0.501  10.164  23.038  0.00  0.00    +0.000 OA
ATOM     28  C   UNL     1      -0.821  10.701  23.070  0.00  0.00    +0.000 C 
ENDBRANCH   9  27
TORSDOF 7
ENDMDL
MODEL 3
REMARK VINA RESULT:      -7.3      5.182      7.096
REMARK  Name = 
REMARK  10 active torsions:
REMARK  status: ('A' for Active; 'I' for Inactive)
REMARK    1  A    between atoms: C_1  and  C_2
REMARK    2  A    between atoms: C_2  and  O_3
REMARK    3  A    between atoms: O_3  and  C_4
REMARK    4  A    between atoms: C_4  and  C_5
REMARK    5  A    between atoms: C_9  and  S_10
REMARK    6  A    between atoms: S_10  and  N_13
REMARK    7  A    between atoms: C_19  and  O_20
REMARK    8  A    between atoms: O_20  and  C_21
REMARK    9  A    between atoms: C_23  and  O_24
REMARK   10  A    between atoms: O_24  and  C_25
REMARK                            x       y       z     vdW  Elec       q    Type
REMARK                         _______ _______ _______ _____ _____    ______ ____
ROOT
ATOM      1  N   UNL     1       8.000   6.702  18.547  0.00  0.00    +0.000 N 
ATOM      2  C   UNL     1       8.113   8.045  18.206  0.00  0.00    +0.000 C 
ATOM      3  O   UNL     1       7.602   8.462  17.180  0.00  0.00    +0.000 OA
ATOM      4  N   UNL     1       8.869   8.758  19.084  0.00  0.00    +0.000 N 
ATOM      5  C   UNL     1       9.106  10.114  18.928  0.00  0.00    +0.000 A 
ATOM      6  N   UNL     1       8.401  10.799  18.038  0.00  0.00    +0.000 NA
ATOM      7  C   UNL     1       8.665  12.096  17.885  0.00  0.00    +0.000 A 
ATOM      8  C   UNL     1       9.636  12.744  18.599  0.00  0.00    +0.000 A 
ATOM      9  C   UNL     1      10.309  11.950  19.499  0.00  0.00    +0.000 A 
ATOM     10  N   UNL     1      10.050  10.642  19.703  0.00  0.00    +0.000 NA
ATOM     11  H   UNL     1       8.568   6.260  19.256  0.00  0.00    +0.000 HD
ATOM     12  H   UNL     1       9.338   8.330  19.860  0.00  0.00    +0.000 HD
ENDROOT
BRANCH   1  13
ATOM     13  S   UNL     1       7.229   5.628  17.528  0.00  0.00    +0.000 S 
ATOM     14  O   UNL     1       7.639   4.285  17.855  0.00  0.00    +0.000 OA
ATOM     15  O   UNL     1       7.405   6.156  16.189  0.00  0.00    +0.000 OA
BRANCH  13  20
ATOM     16  C   UNL     1       4.592   4.977  18.621  0.00  0.00    +0.000 A 
ATOM     17  C   UNL     1       3.265   5.533  18.568  0.00  0.00    +0.000 A 
ATOM     18  C   UNL     1       3.183   6.657  17.784  0.00  0.00    +0.000 A 
ATOM     19  S   UNL     1       4.697   7.080  17.127  0.00  0.00    +0.000 S 
ATOM     20  C   UNL     1       5.474   5.732  17.858  0.00  0.00    +0.000 A 
BRANCH  16  21
ATOM     21  C   UNL     1       4.937   3.745  19.410  0.00  0.00    +0.000 C 
BRANCH  21  22
ATOM     22  O   UNL     1       3.749   2.985  19.655  0.00  0.00    +0.000 OA
BRANCH  22  24
ATOM     23  C   UNL     1       2.614   2.036  17.806  0.00  0.00    +0.000 C 
ATOM     24  C   UNL     1       3.679   1.808  18.862  0.00  0.00    +0.000 C 
ENDBRANCH  22  24
ENDBRANCH  21  22
ENDBRANCH  16  21
ENDBRANCH  13  20
ENDBRANCH   1  13
BRANCH   7  25
ATOM     25  O   UNL     1       7.928  12.809  16.964  0.00  0.00    +0.000 OA
ATOM     26  C   UNL     1       7.258  13.928  17.560  0.00  0.00    +0.000 C 
ENDBRANCH   7  25
BRANCH   9  27
ATOM     27  O   UNL     1      11.321  12.555  20.222  0.00  0.00    +0.000 OA
ATOM     28  C   UNL     1      11.392  13.963  20.000  0.00  0.00    +0.000 C 
ENDBRANCH   9  27
TORSDOF 7
ENDMDL
MODEL 4
REMARK VINA RESULT:      -7.1      1.861      3.339
REMARK  Name = 
REMARK  10 active torsions:
REMARK  status: ('A' for Active; 'I' for Inactive)
REMARK    1  A    between atoms: C_1  and  C_2
REMARK    2  A    between atoms: C_2  and  O_3
REMARK    3  A    between atoms: O_3  and  C_4
REMARK    4  A    between atoms: C_4  and  C_5
REMARK    5  A    between atoms: C_9  and  S_10
REMARK    6  A    between atoms: S_10  and  N_13
REMARK    7  A    between atoms: C_19  and  O_20
REMARK    8  A    between atoms: O_20  and  C_21
REMARK    9  A    between atoms: C_23  and  O_24
REMARK   10  A    between atoms: O_24  and  C_25
REMARK                            x       y       z     vdW  Elec       q    Type
REMARK                         _______ _______ _______ _____ _____    ______ ____
ROOT
ATOM      1  N   UNL     1       3.449   6.955  17.930  0.00  0.00    +0.000 N 
ATOM      2  C   UNL     1       2.540   7.509  18.825  0.00  0.00    +0.000 C 
ATOM      3  O   UNL     1       2.208   6.891  19.824  0.00  0.00    +0.000 OA
ATOM      4  N   UNL     1       2.067   8.720  18.426  0.00  0.00    +0.000 N 
ATOM      5  C   UNL     1       1.152   9.442  19.174  0.00  0.00    +0.000 A 
ATOM      6  N   UNL     1       0.894   9.072  20.421  0.00  0.00    +0.000 NA
ATOM      7  C   UNL     1      -0.010   9.763  21.113  0.00  0.00    +0.000 A 
ATOM      8  C   UNL     1      -0.686  10.831  20.588  0.00  0.00    +0.000 A 
ATOM      9  C   UNL     1      -0.347  11.141  19.291  0.00  0.00    +0.000 A 
ATOM     10  N   UNL     1       0.583  10.483  18.569  0.00  0.00    +0.000 NA
ATOM     11  H   UNL     1       3.598   7.314  16.999  0.00  0.00    +0.000 HD
ATOM     12  H   UNL     1       2.314   9.130  17.544  0.00  0.00    +0.000 HD
ENDROOT
BRANCH   1  13
ATOM     13  S   UNL     1       4.043   5.413  18.168  0.00  0.00    +0.000 S 
ATOM     14  O   UNL     1       3.022   4.453  17.826  0.00  0.00    +0.000 OA
ATOM     15  O   UNL     1       4.648   5.419  19.485  0.00  0.00    +0.000 OA
BRANCH  13  20
ATOM     16  C   UNL     1       6.686   5.670  16.936  0.00  0.00    +0.000 A 
ATOM     17  C   UNL     1       7.380   5.106  15.807  0.00  0.00    +0.000 A 
ATOM     18  C   UNL     1       6.611   4.226  15.087  0.00  0.00    +0.000 A 
ATOM     19  S   UNL     1       5.061   4.038  15.769  0.00  0.00    +0.000 S 
ATOM     20  C   UNL     1       5.393   5.170  17.019  0.00  0.00    +0.000 A 
BRANCH  16  21
ATOM     21  C   UNL     1       7.313   6.661  17.875  0.00  0.00    +0.000 C 
BRANCH  21  22
ATOM     22  O   UNL     1       7.924   7.714  17.123  0.00  0.00    +0.000 OA
BRANCH  22  24
ATOM     23  C   UNL     1       8.751   9.429  18.532  0.00  0.00    +0.000 C 
ATOM     24  C   UNL     1       7.608   9.004  17.631  0.00  0.00    +0.000 C 
ENDBRANCH  22  24
ENDBRANCH  21  22
ENDBRANCH  16  21
ENDBRANCH  13  20
ENDBRANCH   1  13
BRANCH   7  25
ATOM     25  O   UNL     1      -0.273   9.380  22.411  0.00  0.00    +0.000 OA
ATOM     26  C   UNL     1      -0.942  10.411  23.151  0.00  0.00    +0.000 C 
ENDBRANCH   7  25
BRANCH   9  27
ATOM     27  O   UNL     1      -1.027  12.194  18.709  0.00  0.00    +0.000 OA
ATOM     28  C   UNL     1      -1.206  13.296  19.598  0.00  0.00    +0.000 C 
ENDBRANCH   9  27
TORSDOF 7
ENDMDL
MODEL 5
REMARK VINA RESULT:      -7.0      2.920      8.102
REMARK  Name = 
REMARK  10 active torsions:
REMARK  status: ('A' for Active; 'I' for Inactive)
REMARK    1  A    between atoms: C_1  and  C_2
REMARK    2  A    between atoms: C_2  and  O_3
REMARK    3  A    between atoms: O_3  and  C_4
REMARK    4  A    between atoms: C_4  and  C_5
REMARK    5  A    between atoms: C_9  and  S_10
REMARK    6  A    between atoms: S_10  and  N_13
REMARK    7  A    between atoms: C_19  and  O_20
REMARK    8  A    between atoms: O_20  and  C_21
REMARK    9  A    between atoms: C_23  and  O_24
REMARK   10  A    between atoms: O_24  and  C_25
REMARK                            x       y       z     vdW  Elec       q    Type
REMARK                         _______ _______ _______ _____ _____    ______ ____
ROOT
ATOM      1  N   UNL     1       1.242   9.010  20.044  0.00  0.00    +0.000 N 
ATOM      2  C   UNL     1       1.906   7.823  19.753  0.00  0.00    +0.000 C 
ATOM      3  O   UNL     1       1.892   6.901  20.551  0.00  0.00    +0.000 OA
ATOM      4  N   UNL     1       2.572   7.860  18.567  0.00  0.00    +0.000 N 
ATOM      5  C   UNL     1       3.297   6.781  18.089  0.00  0.00    +0.000 A 
ATOM      6  N   UNL     1       3.162   5.598  18.673  0.00  0.00    +0.000 NA
ATOM      7  C   UNL     1       3.890   4.580  18.215  0.00  0.00    +0.000 A 
ATOM      8  C   UNL     1       4.773   4.709  17.177  0.00  0.00    +0.000 A 
ATOM      9  C   UNL     1       4.838   5.971  16.635  0.00  0.00    +0.000 A 
ATOM     10  N   UNL     1       4.096   7.018  17.052  0.00  0.00    +0.000 NA
ATOM     11  H   UNL     1       1.391   9.868  19.533  0.00  0.00    +0.000 HD
ATOM     12  H   UNL     1       2.617   8.687  18.002  0.00  0.00    +0.000 HD
ENDROOT
BRANCH   1  13
ATOM     13  S   UNL     1       0.480   9.218  21.515  0.00  0.00    +0.000 S 
ATOM     14  O   UNL     1       1.475   9.356  22.550  0.00  0.00    +0.000 OA
ATOM     15  O   UNL     1      -0.532   8.181  21.588  0.00  0.00    +0.000 OA
BRANCH  13  20
ATOM     16  C   UNL     1      -0.673  11.683  20.435  0.00  0.00    +0.000 A 
ATOM     17  C   UNL     1      -1.500  12.758  20.920  0.00  0.00    +0.000 A 
ATOM     18  C   UNL     1      -1.831  12.626  22.246  0.00  0.00    +0.000 A 
ATOM     19  S   UNL     1      -1.185  11.201  22.920  0.00  0.00    +0.000 S 
ATOM     20  C   UNL     1      -0.419  10.763  21.445  0.00  0.00    +0.000 A 
BRANCH  16  21
ATOM     21  C   UNL     1      -0.177  11.602  19.020  0.00  0.00    +0.000 C 
BRANCH  21  22
ATOM     22  O   UNL     1      -0.873  10.560  18.327  0.00  0.00    +0.000 OA
BRANCH  22  24
ATOM     23  C   UNL     1      -2.818   9.807  17.204  0.00  0.00    +0.000 C 
ATOM     24  C   UNL     1      -2.048  11.026  17.676  0.00  0.00    +0.000 C 
ENDBRANCH  22  24
ENDBRANCH  21  22
ENDBRANCH  16  21
ENDBRANCH  13  20
ENDBRANCH   1  13
BRANCH   7  25
ATOM     25  O   UNL     1       3.746   3.349  18.819  0.00  0.00    +0.000 OA
ATOM     26  C   UNL     1       2.494   3.232  19.509  0.00  0.00    +0.000 C 
ENDBRANCH   7  25
BRANCH   9  27
ATOM     27  O   UNL     1       5.740   6.155  15.603  0.00  0.00    +0.000 OA
ATOM     28  C   UNL     1       6.714   5.116  15.529  0.00  0.00    +0.000 C 
ENDBRANCH   9  27
TORSDOF 7
ENDMDL
MODEL 6
REMARK VINA RESULT:      -7.0      1.983      2.939
REMARK  Name = 
REMARK  10 active torsions:
REMARK  status: ('A' for Active; 'I' for Inactive)
REMARK    1  A    between atoms: C_1  and  C_2
REMARK    2  A    between atoms: C_2  and  O_3
REMARK    3  A    between atoms: O_3  and  C_4
REMARK    4  A    between atoms: C_4  and  C_5
REMARK    5  A    between atoms: C_9  and  S_10
REMARK    6  A    between atoms: S_10  and  N_13
REMARK    7  A    between atoms: C_19  and  O_20
REMARK    8  A    between atoms: O_20  and  C_21
REMARK    9  A    between atoms: C_23  and  O_24
REMARK   10  A    between atoms: O_24  and  C_25
REMARK                            x       y       z     vdW  Elec       q    Type
REMARK                         _______ _______ _______ _____ _____    ______ ____
ROOT
ATOM      1  N   UNL     1       2.880   6.404  20.279  0.00  0.00    +0.000 N 
ATOM      2  C   UNL     1       2.110   7.534  20.022  0.00  0.00    +0.000 C 
ATOM      3  O   UNL     1       2.143   8.061  18.922  0.00  0.00    +0.000 OA
ATOM      4  N   UNL     1       1.414   7.966  21.108  0.00  0.00    +0.000 N 
ATOM      5  C   UNL     1       0.586   9.075  21.065  0.00  0.00    +0.000 A 
ATOM      6  N   UNL     1       0.269   9.605  19.892  0.00  0.00    +0.000 NA
ATOM      7  C   UNL     1      -0.506  10.688  19.875  0.00  0.00    +0.000 A 
ATOM      8  C   UNL     1      -0.979  11.278  21.016  0.00  0.00    +0.000 A 
ATOM      9  C   UNL     1      -0.600  10.654  22.182  0.00  0.00    +0.000 A 
ATOM     10  N   UNL     1       0.159   9.540  22.237  0.00  0.00    +0.000 NA
ATOM     11  H   UNL     1       3.057   6.055  21.209  0.00  0.00    +0.000 HD
ATOM     12  H   UNL     1       1.506   7.537  22.010  0.00  0.00    +0.000 HD
ENDROOT
BRANCH   1  13
ATOM     13  S   UNL     1       3.913   5.797  19.117  0.00  0.00    +0.000 S 
ATOM     14  O   UNL     1       5.176   5.468  19.729  0.00  0.00    +0.000 OA
ATOM     15  O   UNL     1       3.844   6.722  18.002  0.00  0.00    +0.000 OA
BRANCH  13  20
ATOM     16  C   UNL     1       3.595   3.346  17.547  0.00  0.00    +0.000 A 
ATOM     17  C   UNL     1       2.667   2.247  17.490  0.00  0.00    +0.000 A 
ATOM     18  C   UNL     1       1.633   2.368  18.385  0.00  0.00    +0.000 A 
ATOM     19  S   UNL     1       1.776   3.780  19.327  0.00  0.00    +0.000 S 
ATOM     20  C   UNL     1       3.210   4.266  18.514  0.00  0.00    +0.000 A 
BRANCH  16  21
ATOM     21  C   UNL     1       4.807   3.445  16.666  0.00  0.00    +0.000 C 
BRANCH  21  22
ATOM     22  O   UNL     1       4.721   4.627  15.863  0.00  0.00    +0.000 OA
BRANCH  22  24
ATOM     23  C   UNL     1       6.061   3.851  14.071  0.00  0.00    +0.000 C 
ATOM     24  C   UNL     1       5.925   4.900  15.159  0.00  0.00    +0.000 C 
ENDBRANCH  22  24
ENDBRANCH  21  22
ENDBRANCH  16  21
ENDBRANCH  13  20
ENDBRANCH   1  13
BRANCH   7  25
ATOM     25  O   UNL     1      -0.840  11.235  18.655  0.00  0.00    +0.000 OA
ATOM     26  C   UNL     1      -1.665  10.356  17.878  0.00  0.00    +0.000 C 
ENDBRANCH   7  25
BRANCH   9  27
ATOM     27  O   UNL     1      -1.029  11.233  23.362  0.00  0.00    +0.000 OA
ATOM     28  C   UNL     1      -2.273  11.918  23.221  0.00  0.00    +0.000 C 
ENDBRANCH   9  27
TORSDOF 7
ENDMDL
MODEL 7
REMARK VINA RESULT:      -6.9      5.277      6.951
REMARK  Name = 
REMARK  10 active torsions:
REMARK  status: ('A' for Active; 'I' for Inactive)
REMARK    1  A    between atoms: C_1  and  C_2
REMARK    2  A    between atoms: C_2  and  O_3
REMARK    3  A    between atoms: O_3  and  C_4
REMARK    4  A    between atoms: C_4  and  C_5
REMARK    5  A    between atoms: C_9  and  S_10
REMARK    6  A    between atoms: S_10  and  N_13
REMARK    7  A    between atoms: C_19  and  O_20
REMARK    8  A    between atoms: O_20  and  C_21
REMARK    9  A    between atoms: C_23  and  O_24
REMARK   10  A    between atoms: O_24  and  C_25
REMARK                            x       y       z     vdW  Elec       q    Type
REMARK                         _______ _______ _______ _____ _____    ______ ____
ROOT
ATOM      1  N   UNL     1       6.953   6.879  17.659  0.00  0.00    +0.000 N 
ATOM      2  C   UNL     1       7.817   7.882  18.085  0.00  0.00    +0.000 C 
ATOM      3  O   UNL     1       8.661   7.646  18.933  0.00  0.00    +0.000 OA
ATOM      4  N   UNL     1       7.563   9.087  17.506  0.00  0.00    +0.000 N 
ATOM      5  C   UNL     1       8.308  10.219  17.792  0.00  0.00    +0.000 A 
ATOM      6  N   UNL     1       9.444  10.097  18.465  0.00  0.00    +0.000 NA
ATOM      7  C   UNL     1      10.130  11.202  18.754  0.00  0.00    +0.000 A 
ATOM      8  C   UNL     1       9.707  12.452  18.392  0.00  0.00    +0.000 A 
ATOM      9  C   UNL     1       8.522  12.475  17.694  0.00  0.00    +0.000 A 
ATOM     10  N   UNL     1       7.814  11.377  17.358  0.00  0.00    +0.000 NA
ATOM     11  H   UNL     1       6.113   7.058  17.130  0.00  0.00    +0.000 HD
ATOM     12  H   UNL     1       6.790   9.232  16.884  0.00  0.00    +0.000 HD
ENDROOT
BRANCH   1  13
ATOM     13  S   UNL     1       7.010   5.360  18.351  0.00  0.00    +0.000 S 
ATOM     14  O   UNL     1       7.117   5.494  19.783  0.00  0.00    +0.000 OA
ATOM     15  O   UNL     1       8.000   4.617  17.596  0.00  0.00    +0.000 OA
BRANCH  13  20
ATOM     16  C   UNL     1       4.928   3.880  16.920  0.00  0.00    +0.000 A 
ATOM     17  C   UNL     1       3.605   3.386  17.203  0.00  0.00    +0.000 A 
ATOM     18  C   UNL     1       3.172   3.701  18.467  0.00  0.00    +0.000 A 
ATOM     19  S   UNL     1       4.354   4.561  19.343  0.00  0.00    +0.000 S 
ATOM     20  C   UNL     1       5.447   4.555  18.017  0.00  0.00    +0.000 A 
BRANCH  16  21
ATOM     21  C   UNL     1       5.621   3.667  15.604  0.00  0.00    +0.000 C 
BRANCH  21  22
ATOM     22  O   UNL     1       5.945   4.933  15.022  0.00  0.00    +0.000 OA
BRANCH  22  24
ATOM     23  C   UNL     1       6.320   3.803  12.976  0.00  0.00    +0.000 C 
ATOM     24  C   UNL     1       6.873   4.823  13.952  0.00  0.00    +0.000 C 
ENDBRANCH  22  24
ENDBRANCH  21  22
ENDBRANCH  16  21
ENDBRANCH  13  20
ENDBRANCH   1  13
BRANCH   7  25
ATOM     25  O   UNL     1      11.313  11.074  19.449  0.00  0.00    +0.000 OA
ATOM     26  C   UNL     1      11.612  12.244  20.224  0.00  0.00    +0.000 C 
ENDBRANCH   7  25
BRANCH   9  27
ATOM     27  O   UNL     1       8.040  13.720  17.334  0.00  0.00    +0.000 OA
ATOM     28  C   UNL     1       7.525  14.455  18.443  0.00  0.00    +0.000 C 
ENDBRANCH   9  27
TORSDOF 7
ENDMDL
MODEL 8
REMARK VINA RESULT:      -6.9      5.988      8.712
REMARK  Name = 
REMARK  10 active torsions:
REMARK  status: ('A' for Active; 'I' for Inactive)
REMARK    1  A    between atoms: C_1  and  C_2
REMARK    2  A    between atoms: C_2  and  O_3
REMARK    3  A    between atoms: O_3  and  C_4
REMARK    4  A    between atoms: C_4  and  C_5
REMARK    5  A    between atoms: C_9  and  S_10
REMARK    6  A    between atoms: S_10  and  N_13
REMARK    7  A    between atoms: C_19  and  O_20
REMARK    8  A    between atoms: O_20  and  C_21
REMARK    9  A    between atoms: C_23  and  O_24
REMARK   10  A    between atoms: O_24  and  C_25
REMARK                            x       y       z     vdW  Elec       q    Type
REMARK                         _______ _______ _______ _____ _____    ______ ____
ROOT
ATOM      1  N   UNL     1       9.281   9.681  19.131  0.00  0.00    +0.000 N 
ATOM      2  C   UNL     1       8.560   8.823  18.309  0.00  0.00    +0.000 C 
ATOM      3  O   UNL     1       8.214   9.186  17.196  0.00  0.00    +0.000 OA
ATOM      4  N   UNL     1       8.268   7.633  18.901  0.00  0.00    +0.000 N 
ATOM      5  C   UNL     1       7.557   6.637  18.254  0.00  0.00    +0.000 A 
ATOM      6  N   UNL     1       7.347   6.731  16.948  0.00  0.00    +0.000 NA
ATOM      7  C   UNL     1       6.636   5.776  16.351  0.00  0.00    +0.000 A 
ATOM      8  C   UNL     1       6.110   4.710  17.029  0.00  0.00    +0.000 A 
ATOM      9  C   UNL     1       6.386   4.698  18.377  0.00  0.00    +0.000 A 
ATOM     10  N   UNL     1       7.125   5.632  19.012  0.00  0.00    +0.000 NA
ATOM     11  H   UNL     1       9.410   9.523  20.120  0.00  0.00    +0.000 HD
ATOM     12  H   UNL     1       8.505   7.436  19.856  0.00  0.00    +0.000 HD
ENDROOT
BRANCH   1  13
ATOM     13  S   UNL     1       9.621  11.241  18.642  0.00  0.00    +0.000 S 
ATOM     14  O   UNL     1       8.547  11.721  17.808  0.00  0.00    +0.000 OA
ATOM     15  O   UNL     1      10.987  11.216  18.156  0.00  0.00    +0.000 OA
BRANCH  13  20
ATOM     16  C   UNL     1      10.149  13.539  20.377  0.00  0.00    +0.000 A 
ATOM     17  C   UNL     1       9.863  13.919  21.736  0.00  0.00    +0.000 A 
ATOM     18  C   UNL     1       9.180  12.953  22.432  0.00  0.00    +0.000 A 
ATOM     19  S   UNL     1       8.845  11.593  21.462  0.00  0.00    +0.000 S 
ATOM     20  C   UNL     1       9.649  12.272  20.103  0.00  0.00    +0.000 A 
BRANCH  16  21
ATOM     21  C   UNL     1      10.887  14.425  19.414  0.00  0.00    +0.000 C 
BRANCH  21  22
ATOM     22  O   UNL     1       9.962  15.004  18.488  0.00  0.00    +0.000 OA
BRANCH  22  24
ATOM     23  C   UNL     1      11.471  14.279  16.813  0.00  0.00    +0.000 C 
ATOM     24  C   UNL     1      10.583  15.417  17.278  0.00  0.00    +0.000 C 
ENDBRANCH  22  24
ENDBRANCH  21  22
ENDBRANCH  16  21
ENDBRANCH  13  20
ENDBRANCH   1  13
BRANCH   7  25
ATOM     25  O   UNL     1       6.423   5.872  14.992  0.00  0.00    +0.000 OA
ATOM     26  C   UNL     1       7.071   4.816  14.269  0.00  0.00    +0.000 C 
ENDBRANCH   7  25
BRANCH   9  27
ATOM     27  O   UNL     1       5.848   3.656  19.109  0.00  0.00    +0.000 OA
ATOM     28  C   UNL     1       4.429   3.566  18.983  0.00  0.00    +0.000 C 
ENDBRANCH   9  27
TORSDOF 7
ENDMDL
MODEL 9
REMARK VINA RESULT:      -6.9      3.110      8.120
REMARK  Name = 
REMARK  10 active torsions:
REMARK  status: ('A' for Active; 'I' for Inactive)
REMARK    1  A    between atoms: C_1  and  C_2
REMARK    2  A    between atoms: C_2  and  O_3
REMARK    3  A    between atoms: O_3  and  C_4
REMARK    4  A    between atoms: C_4  and  C_5
REMARK    5  A    between atoms: C_9  and  S_10
REMARK    6  A    between atoms: S_10  and  N_13
REMARK    7  A    between atoms: C_19  and  O_20
REMARK    8  A    between atoms: O_20  and  C_21
REMARK    9  A    between atoms: C_23  and  O_24
REMARK   10  A    between atoms: O_24  and  C_25
REMARK                            x       y       z     vdW  Elec       q    Type
REMARK                         _______ _______ _______ _____ _____    ______ ____
ROOT
ATOM      1  N   UNL     1       1.376   8.823  20.009  0.00  0.00    +0.000 N 
ATOM      2  C   UNL     1       1.882   7.529  20.077  0.00  0.00    +0.000 C 
ATOM      3  O   UNL     1       1.585   6.803  21.012  0.00  0.00    +0.000 OA
ATOM      4  N   UNL     1       2.736   7.235  19.059  0.00  0.00    +0.000 N 
ATOM      5  C   UNL     1       3.349   5.999  18.940  0.00  0.00    +0.000 A 
ATOM      6  N   UNL     1       2.930   4.990  19.692  0.00  0.00    +0.000 NA
ATOM      7  C   UNL     1       3.553   3.817  19.581  0.00  0.00    +0.000 A 
ATOM      8  C   UNL     1       4.608   3.616  18.733  0.00  0.00    +0.000 A 
ATOM      9  C   UNL     1       4.965   4.720  17.992  0.00  0.00    +0.000 A 
ATOM     10  N   UNL     1       4.340   5.914  18.056  0.00  0.00    +0.000 NA
ATOM     11  H   UNL     1       1.744   9.530  19.390  0.00  0.00    +0.000 HD
ATOM     12  H   UNL     1       3.008   7.913  18.373  0.00  0.00    +0.000 HD
ENDROOT
BRANCH   1  13
ATOM     13  S   UNL     1       0.419   9.426  21.237  0.00  0.00    +0.000 S 
ATOM     14  O   UNL     1       1.257   9.821  22.342  0.00  0.00    +0.000 OA
ATOM     15  O   UNL     1      -0.648   8.461  21.419  0.00  0.00    +0.000 OA
BRANCH  13  20
ATOM     16  C   UNL     1      -1.106  11.208  19.485  0.00  0.00    +0.000 A 
ATOM     17  C   UNL     1      -1.553  12.577  19.509  0.00  0.00    +0.000 A 
ATOM     18  C   UNL     1      -1.150  13.255  20.632  0.00  0.00    +0.000 A 
ATOM     19  S   UNL     1      -0.260  12.257  21.687  0.00  0.00    +0.000 S 
ATOM     20  C   UNL     1      -0.373  10.909  20.627  0.00  0.00    +0.000 A 
BRANCH  16  21
ATOM     21  C   UNL     1      -1.417  10.261  18.361  0.00  0.00    +0.000 C 
BRANCH  21  22
ATOM     22  O   UNL     1      -2.374  10.859  17.481  0.00  0.00    +0.000 OA
BRANCH  22  24
ATOM     23  C   UNL     1      -2.864  10.376  15.215  0.00  0.00    +0.000 C 
ATOM     24  C   UNL     1      -3.022   9.907  16.648  0.00  0.00    +0.000 C 
ENDBRANCH  22  24
ENDBRANCH  21  22
ENDBRANCH  16  21
ENDBRANCH  13  20
ENDBRANCH   1  13
BRANCH   7  25
ATOM     25  O   UNL     1       3.114   2.768  20.359  0.00  0.00    +0.000 OA
ATOM     26  C   UNL     1       1.769   2.385  20.038  0.00  0.00    +0.000 C 
ENDBRANCH   7  25
BRANCH   9  27
ATOM     27  O   UNL     1       6.046   4.571  17.143  0.00  0.00    +0.000 OA
ATOM     28  C   UNL     1       5.664   4.194  15.822  0.00  0.00    +0.000 C 
ENDBRANCH   9  27
TORSDOF 7
ENDMDL
