MODEL 1
REMARK VINA RESULT:      -7.8      0.000      0.000
REMARK  Name = 
REMARK  8 active torsions:
REMARK  status: ('A' for Active; 'I' for Inactive)
REMARK    1  A    between atoms: C_1  and  O_2
REMARK    2  A    between atoms: O_2  and  C_3
REMARK    3  A    between atoms: C_8  and  N_9
REMARK    4  A    between atoms: N_9  and  C_10
REMARK    5  A    between atoms: N_9  and  C_19
REMARK    6  A    between atoms: C_10  and  C_11
REMARK    7  A    between atoms: C_17  and  C_18
REMARK    8  A    between atoms: C_22  and  C_23
REMARK                            x       y       z     vdW  Elec       q    Type
REMARK                         _______ _______ _______ _____ _____    ______ ____
ROOT
ATOM      1  N   UNL     1       3.600   6.475  18.630  0.00  0.00    +0.000 N 
ENDROOT
BRANCH   1   7
ATOM      2  C   UNL     1       6.157   4.844  14.802  0.00  0.00    +0.000 C 
ATOM      3  O   UNL     1       5.286   4.322  14.118  0.00  0.00    +0.000 OA
ATOM      4  N   UNL     1       5.886   5.647  15.878  0.00  0.00    +0.000 N 
ATOM      5  C   UNL     1       6.847   6.332  16.706  0.00  0.00    +0.000 C 
ATOM      6  C   UNL     1       6.116   6.452  18.032  0.00  0.00    +0.000 C 
ATOM      7  C   UNL     1       4.660   6.746  17.612  0.00  0.00    +0.000 C 
ATOM      8  C   UNL     1       4.532   5.919  16.314  0.00  0.00    +0.000 C 
BRANCH   2  10
ATOM      9  C   UNL     1       7.957   5.108  13.322  0.00  0.00    +0.000 C 
ATOM     10  O   UNL     1       7.491   4.689  14.605  0.00  0.00    +0.000 OA
ENDBRANCH   2  10
ENDBRANCH   1   7
BRANCH   1  11
ATOM     11  C   UNL     1       2.637   7.473  18.842  0.00  0.00    +0.000 A 
ATOM     12  C   UNL     1       2.224   8.324  17.807  0.00  0.00    +0.000 A 
ATOM     13  C   UNL     1       1.312   9.366  18.014  0.00  0.00    +0.000 A 
ATOM     14  C   UNL     1       0.768   9.584  19.280  0.00  0.00    +0.000 A 
ATOM     15  C   UNL     1       1.123   8.727  20.318  0.00  0.00    +0.000 A 
ATOM     16 CL   UNL     1       0.491   8.910  21.918  0.00  0.00    +0.000 Cl
ATOM     17  C   UNL     1       2.032   7.681  20.094  0.00  0.00    +0.000 A 
BRANCH  14  18
ATOM     18  C   UNL     1      -0.133  10.675  19.471  0.00  0.00    +0.000 C 
ATOM     19  N   UNL     1      -0.883  11.550  19.589  0.00  0.00    +0.000 NA
ENDBRANCH  14  18
ENDBRANCH   1  11
BRANCH   1  20
ATOM     20  C   UNL     1       3.753   5.423  19.659  0.00  0.00    +0.000 C 
BRANCH  20  21
ATOM     21  C   UNL     1       3.181   4.047  19.326  0.00  0.00    +0.000 A 
ATOM     22  C   UNL     1       3.937   3.081  18.637  0.00  0.00    +0.000 A 
ATOM     23  C   UNL     1       3.359   1.907  18.176  0.00  0.00    +0.000 A 
ATOM     24  F   UNL     1       4.098   1.052  17.457  0.00  0.00    +0.000 F 
ATOM     25  C   UNL     1       2.029   1.623  18.425  0.00  0.00    +0.000 A 
ATOM     26  C   UNL     1       1.279   2.513  19.188  0.00  0.00    +0.000 A 
ATOM     27  C   UNL     1       1.843   3.716  19.661  0.00  0.00    +0.000 A 
ATOM     28  C   UNL     1       0.992   4.603  20.532  0.00  0.00    +0.000 C 
ENDBRANCH  20  21
ENDBRANCH   1  20
TORSDOF 6
ENDMDL
MODEL 2
REMARK VINA RESULT:      -7.4      0.990      1.600
REMARK  Name = 
REMARK  8 active torsions:
REMARK  status: ('A' for Active; 'I' for Inactive)
REMARK    1  A    between atoms: C_1  and  O_2
REMARK    2  A    between atoms: O_2  and  C_3
REMARK    3  A    between atoms: C_8  and  N_9
REMARK    4  A    between atoms: N_9  and  C_10
REMARK    5  A    between atoms: N_9  and  C_19
REMARK    6  A    between atoms: C_10  and  C_11
REMARK    7  A    between atoms: C_17  and  C_18
REMARK    8  A    between atoms: C_22  and  C_23
REMARK                            x       y       z     vdW  Elec       q    Type
REMARK                         _______ _______ _______ _____ _____    ______ ____
ROOT
ATOM      1  N   UNL     1       3.386   6.730  18.497  0.00  0.00    +0.000 N 
ENDROOT
BRANCH   1   7
ATOM      2  C   UNL     1       6.186   5.089  14.848  0.00  0.00    +0.000 C 
ATOM      3  O   UNL     1       5.402   4.387  14.221  0.00  0.00    +0.000 OA
ATOM      4  N   UNL     1       5.796   5.950  15.838  0.00  0.00    +0.000 N 
ATOM      5  C   UNL     1       6.645   6.839  16.591  0.00  0.00    +0.000 C 
ATOM      6  C   UNL     1       5.889   6.990  17.899  0.00  0.00    +0.000 C 
ATOM      7  C   UNL     1       4.412   7.040  17.455  0.00  0.00    +0.000 C 
ATOM      8  C   UNL     1       4.412   6.078  16.247  0.00  0.00    +0.000 C 
BRANCH   2  10
ATOM      9  C   UNL     1       7.947   5.275  13.311  0.00  0.00    +0.000 C 
ATOM     10  O   UNL     1       7.531   5.098  14.664  0.00  0.00    +0.000 OA
ENDBRANCH   2  10
ENDBRANCH   1   7
BRANCH   1  11
ATOM     11  C   UNL     1       2.437   7.723  18.786  0.00  0.00    +0.000 A 
ATOM     12  C   UNL     1       2.003   8.629  17.806  0.00  0.00    +0.000 A 
ATOM     13  C   UNL     1       1.106   9.665  18.092  0.00  0.00    +0.000 A 
ATOM     14  C   UNL     1       0.599   9.822  19.381  0.00  0.00    +0.000 A 
ATOM     15  C   UNL     1       0.975   8.910  20.364  0.00  0.00    +0.000 A 
ATOM     16 CL   UNL     1       0.387   9.016  21.988  0.00  0.00    +0.000 Cl
ATOM     17  C   UNL     1       1.868   7.871  20.063  0.00  0.00    +0.000 A 
BRANCH  14  18
ATOM     18  C   UNL     1      -0.288  10.908  19.652  0.00  0.00    +0.000 C 
ATOM     19  N   UNL     1      -1.014  11.793  19.830  0.00  0.00    +0.000 NA
ENDBRANCH  14  18
ENDBRANCH   1  11
BRANCH   1  20
ATOM     20  C   UNL     1       3.569   5.634  19.473  0.00  0.00    +0.000 C 
BRANCH  20  21
ATOM     21  C   UNL     1       3.073   4.251  19.055  0.00  0.00    +0.000 A 
ATOM     22  C   UNL     1       1.703   3.930  19.050  0.00  0.00    +0.000 A 
ATOM     23  C   UNL     1       1.269   2.627  18.849  0.00  0.00    +0.000 A 
ATOM     24  F   UNL     1      -0.040   2.354  18.930  0.00  0.00    +0.000 F 
ATOM     25  C   UNL     1       2.168   1.609  18.595  0.00  0.00    +0.000 A 
ATOM     26  C   UNL     1       3.524   1.912  18.497  0.00  0.00    +0.000 A 
ATOM     27  C   UNL     1       3.989   3.226  18.704  0.00  0.00    +0.000 A 
ATOM     28  C   UNL     1       5.460   3.494  18.523  0.00  0.00    +0.000 C 
ENDBRANCH  20  21
ENDBRANCH   1  20
TORSDOF 6
ENDMDL
MODEL 3
REMARK VINA RESULT:      -7.4      1.332      1.718
REMARK  Name = 
REMARK  8 active torsions:
REMARK  status: ('A' for Active; 'I' for Inactive)
REMARK    1  A    between atoms: C_1  and  O_2
REMARK    2  A    between atoms: O_2  and  C_3
REMARK    3  A    between atoms: C_8  and  N_9
REMARK    4  A    between atoms: N_9  and  C_10
REMARK    5  A    between atoms: N_9  and  C_19
REMARK    6  A    between atoms: C_10  and  C_11
REMARK    7  A    between atoms: C_17  and  C_18
REMARK    8  A    between atoms: C_22  and  C_23
REMARK                            x       y       z     vdW  Elec       q    Type
REMARK                         _______ _______ _______ _____ _____    ______ ____
ROOT
ATOM      1  N   UNL     1       3.817   6.305  18.481  0.00  0.00    +0.000 N 
ENDROOT
BRANCH   1   7
ATOM      2  C   UNL     1       6.391   4.893  14.579  0.00  0.00    +0.000 C 
ATOM      3  O   UNL     1       5.532   4.363  13.885  0.00  0.00    +0.000 OA
ATOM      4  N   UNL     1       6.103   5.650  15.683  0.00  0.00    +0.000 N 
ATOM      5  C   UNL     1       7.047   6.341  16.525  0.00  0.00    +0.000 C 
ATOM      6  C   UNL     1       6.326   6.391  17.861  0.00  0.00    +0.000 C 
ATOM      7  C   UNL     1       4.856   6.647  17.464  0.00  0.00    +0.000 C 
ATOM      8  C   UNL     1       4.744   5.859  16.140  0.00  0.00    +0.000 C 
BRANCH   2  10
ATOM      9  C   UNL     1       8.170   5.297  13.105  0.00  0.00    +0.000 C 
ATOM     10  O   UNL     1       7.728   4.793  14.365  0.00  0.00    +0.000 OA
ENDBRANCH   2  10
ENDBRANCH   1   7
BRANCH   1  11
ATOM     11  C   UNL     1       2.832   7.268  18.749  0.00  0.00    +0.000 A 
ATOM     12  C   UNL     1       2.362   8.134  17.750  0.00  0.00    +0.000 A 
ATOM     13  C   UNL     1       1.428   9.142  18.013  0.00  0.00    +0.000 A 
ATOM     14  C   UNL     1       0.919   9.312  19.300  0.00  0.00    +0.000 A 
ATOM     15  C   UNL     1       1.331   8.439  20.304  0.00  0.00    +0.000 A 
ATOM     16 CL   UNL     1       0.744   8.563  21.927  0.00  0.00    +0.000 Cl
ATOM     17  C   UNL     1       2.262   7.427  20.025  0.00  0.00    +0.000 A 
BRANCH  14  18
ATOM     18  C   UNL     1      -0.007  10.370  19.548  0.00  0.00    +0.000 C 
ATOM     19  N   UNL     1      -0.779  11.219  19.712  0.00  0.00    +0.000 NA
ENDBRANCH  14  18
ENDBRANCH   1  11
BRANCH   1  20
ATOM     20  C   UNL     1       4.009   5.213  19.460  0.00  0.00    +0.000 C 
BRANCH  20  21
ATOM     21  C   UNL     1       2.862   4.215  19.611  0.00  0.00    +0.000 A 
ATOM     22  C   UNL     1       2.243   3.986  20.853  0.00  0.00    +0.000 A 
ATOM     23  C   UNL     1       1.333   2.953  21.026  0.00  0.00    +0.000 A 
ATOM     24  F   UNL     1       0.827   2.724  22.245  0.00  0.00    +0.000 F 
ATOM     25  C   UNL     1       0.965   2.145  19.967  0.00  0.00    +0.000 A 
ATOM     26  C   UNL     1       1.486   2.407  18.703  0.00  0.00    +0.000 A 
ATOM     27  C   UNL     1       2.418   3.446  18.505  0.00  0.00    +0.000 A 
ATOM     28  C   UNL     1       2.894   3.713  17.100  0.00  0.00    +0.000 C 
ENDBRANCH  20  21
ENDBRANCH   1  20
TORSDOF 6
ENDMDL
MODEL 4
REMARK VINA RESULT:      -7.2      2.720      5.007
REMARK  Name = 
REMARK  8 active torsions:
REMARK  status: ('A' for Active; 'I' for Inactive)
REMARK    1  A    between atoms: C_1  and  O_2
REMARK    2  A    between atoms: O_2  and  C_3
REMARK    3  A    between atoms: C_8  and  N_9
REMARK    4  A    between atoms: N_9  and  C_10
REMARK    5  A    between atoms: N_9  and  C_19
REMARK    6  A    between atoms: C_10  and  C_11
REMARK    7  A    between atoms: C_17  and  C_18
REMARK    8  A    between atoms: C_22  and  C_23
REMARK                            x       y       z     vdW  Elec       q    Type
REMARK                         _______ _______ _______ _____ _____    ______ ____
ROOT
ATOM      1  N   UNL     1       3.754   6.776  17.985  0.00  0.00    +0.000 N 
ENDROOT
BRANCH   1   7
ATOM      2  C   UNL     1       1.133   3.168  19.976  0.00  0.00    +0.000 C 
ATOM      3  O   UNL     1      -0.015   3.555  19.791  0.00  0.00    +0.000 OA
ATOM      4  N   UNL     1       2.224   3.744  19.382  0.00  0.00    +0.000 N 
ATOM      5  C   UNL     1       3.597   3.325  19.511  0.00  0.00    +0.000 C 
ATOM      6  C   UNL     1       4.362   4.614  19.269  0.00  0.00    +0.000 C 
ATOM      7  C   UNL     1       3.553   5.304  18.150  0.00  0.00    +0.000 C 
ATOM      8  C   UNL     1       2.107   4.888  18.502  0.00  0.00    +0.000 C 
BRANCH   2  10
ATOM      9  C   UNL     1       1.559   2.486  22.179  0.00  0.00    +0.000 C 
ATOM     10  O   UNL     1       1.480   2.143  20.795  0.00  0.00    +0.000 OA
ENDBRANCH   2  10
ENDBRANCH   1   7
BRANCH   1  11
ATOM     11  C   UNL     1       2.736   7.624  18.447  0.00  0.00    +0.000 A 
ATOM     12  C   UNL     1       2.088   8.525  17.588  0.00  0.00    +0.000 A 
ATOM     13  C   UNL     1       1.115   9.423  18.044  0.00  0.00    +0.000 A 
ATOM     14  C   UNL     1       0.748   9.441  19.389  0.00  0.00    +0.000 A 
ATOM     15  C   UNL     1       1.340   8.527  20.257  0.00  0.00    +0.000 A 
ATOM     16 CL   UNL     1       0.938   8.464  21.938  0.00  0.00    +0.000 Cl
ATOM     17  C   UNL     1       2.307   7.626  19.785  0.00  0.00    +0.000 A 
BRANCH  14  18
ATOM     18  C   UNL     1      -0.222  10.390  19.833  0.00  0.00    +0.000 C 
ATOM     19  N   UNL     1      -0.986  11.192  20.173  0.00  0.00    +0.000 NA
ENDBRANCH  14  18
ENDBRANCH   1  11
BRANCH   1  20
ATOM     20  C   UNL     1       4.746   7.329  17.038  0.00  0.00    +0.000 C 
BRANCH  20  21
ATOM     21  C   UNL     1       5.614   6.322  16.284  0.00  0.00    +0.000 A 
ATOM     22  C   UNL     1       5.176   5.721  15.090  0.00  0.00    +0.000 A 
ATOM     23  C   UNL     1       5.881   4.677  14.508  0.00  0.00    +0.000 A 
ATOM     24  F   UNL     1       5.385   4.083  13.414  0.00  0.00    +0.000 F 
ATOM     25  C   UNL     1       7.067   4.226  15.056  0.00  0.00    +0.000 A 
ATOM     26  C   UNL     1       7.577   4.865  16.183  0.00  0.00    +0.000 A 
ATOM     27  C   UNL     1       6.875   5.923  16.795  0.00  0.00    +0.000 A 
ATOM     28  C   UNL     1       7.515   6.609  17.975  0.00  0.00    +0.000 C 
ENDBRANCH  20  21
ENDBRANCH   1  20
TORSDOF 6
ENDMDL
MODEL 5
REMARK VINA RESULT:      -7.0      3.792      6.676
REMARK  Name = 
REMARK  8 active torsions:
REMARK  status: ('A' for Active; 'I' for Inactive)
REMARK    1  A    between atoms: C_1  and  O_2
REMARK    2  A    between atoms: O_2  and  C_3
REMARK    3  A    between atoms: C_8  and  N_9
REMARK    4  A    between atoms: N_9  and  C_10
REMARK    5  A    between atoms: N_9  and  C_19
REMARK    6  A    between atoms: C_10  and  C_11
REMARK    7  A    between atoms: C_17  and  C_18
REMARK    8  A    between atoms: C_22  and  C_23
REMARK                            x       y       z     vdW  Elec       q    Type
REMARK                         _______ _______ _______ _____ _____    ______ ____
ROOT
ATOM      1  N   UNL     1       2.985   6.484  19.408  0.00  0.00    +0.000 N 
ENDROOT
BRANCH   1   7
ATOM      2  C   UNL     1      -0.319   9.553  21.281  0.00  0.00    +0.000 C 
ATOM      3  O   UNL     1      -0.531   9.059  22.382  0.00  0.00    +0.000 OA
ATOM      4  N   UNL     1       0.716   9.167  20.472  0.00  0.00    +0.000 N 
ATOM      5  C   UNL     1       1.059   9.725  19.187  0.00  0.00    +0.000 C 
ATOM      6  C   UNL     1       1.746   8.561  18.494  0.00  0.00    +0.000 C 
ATOM      7  C   UNL     1       2.558   7.898  19.627  0.00  0.00    +0.000 C 
ATOM      8  C   UNL     1       1.633   8.110  20.845  0.00  0.00    +0.000 C 
BRANCH   2  10
ATOM      9  C   UNL     1      -1.289  11.674  21.530  0.00  0.00    +0.000 C 
ATOM     10  O   UNL     1      -1.077  10.524  20.712  0.00  0.00    +0.000 OA
ENDBRANCH   2  10
ENDBRANCH   1   7
BRANCH   1  11
ATOM     11  C   UNL     1       3.985   6.249  18.452  0.00  0.00    +0.000 A 
ATOM     12  C   UNL     1       3.786   6.551  17.096  0.00  0.00    +0.000 A 
ATOM     13  C   UNL     1       4.747   6.265  16.118  0.00  0.00    +0.000 A 
ATOM     14  C   UNL     1       5.957   5.671  16.473  0.00  0.00    +0.000 A 
ATOM     15  C   UNL     1       6.203   5.402  17.818  0.00  0.00    +0.000 A 
ATOM     16 CL   UNL     1       7.680   4.679  18.355  0.00  0.00    +0.000 Cl
ATOM     17  C   UNL     1       5.235   5.701  18.789  0.00  0.00    +0.000 A 
BRANCH  14  18
ATOM     18  C   UNL     1       6.905   5.359  15.452  0.00  0.00    +0.000 C 
ATOM     19  N   UNL     1       7.683   5.149  14.619  0.00  0.00    +0.000 NA
ENDBRANCH  14  18
ENDBRANCH   1  11
BRANCH   1  20
ATOM     20  C   UNL     1       2.155   5.339  19.844  0.00  0.00    +0.000 C 
BRANCH  20  21
ATOM     21  C   UNL     1       2.602   3.952  19.388  0.00  0.00    +0.000 A 
ATOM     22  C   UNL     1       3.498   3.180  20.150  0.00  0.00    +0.000 A 
ATOM     23  C   UNL     1       4.044   2.006  19.651  0.00  0.00    +0.000 A 
ATOM     24  F   UNL     1       4.953   1.345  20.380  0.00  0.00    +0.000 F 
ATOM     25  C   UNL     1       3.684   1.528  18.405  0.00  0.00    +0.000 A 
ATOM     26  C   UNL     1       2.726   2.218  17.667  0.00  0.00    +0.000 A 
ATOM     27  C   UNL     1       2.163   3.416  18.151  0.00  0.00    +0.000 A 
ATOM     28  C   UNL     1       1.088   4.078  17.328  0.00  0.00    +0.000 C 
ENDBRANCH  20  21
ENDBRANCH   1  20
TORSDOF 6
ENDMDL
MODEL 6
REMARK VINA RESULT:      -7.0      3.962      6.888
REMARK  Name = 
REMARK  8 active torsions:
REMARK  status: ('A' for Active; 'I' for Inactive)
REMARK    1  A    between atoms: C_1  and  O_2
REMARK    2  A    between atoms: O_2  and  C_3
REMARK    3  A    between atoms: C_8  and  N_9
REMARK    4  A    between atoms: N_9  and  C_10
REMARK    5  A    between atoms: N_9  and  C_19
REMARK    6  A    between atoms: C_10  and  C_11
REMARK    7  A    between atoms: C_17  and  C_18
REMARK    8  A    between atoms: C_22  and  C_23
REMARK                            x       y       z     vdW  Elec       q    Type
REMARK                         _______ _______ _______ _____ _____    ______ ____
ROOT
ATOM      1  N   UNL     1       2.780   6.942  18.033  0.00  0.00    +0.000 N 
ENDROOT
BRANCH   1   7
ATOM      2  C   UNL     1      -0.109   9.863  20.673  0.00  0.00    +0.000 C 
ATOM      3  O   UNL     1      -0.183   9.256  21.735  0.00  0.00    +0.000 OA
ATOM      4  N   UNL     1       0.786   9.545  19.687  0.00  0.00    +0.000 N 
ATOM      5  C   UNL     1       0.967  10.231  18.432  0.00  0.00    +0.000 C 
ATOM      6  C   UNL     1       1.504   9.134  17.530  0.00  0.00    +0.000 C 
ATOM      7  C   UNL     1       2.442   8.334  18.458  0.00  0.00    +0.000 C 
ATOM      8  C   UNL     1       1.706   8.433  19.812  0.00  0.00    +0.000 C 
BRANCH   2  10
ATOM      9  C   UNL     1      -0.774  12.060  21.155  0.00  0.00    +0.000 C 
ATOM     10  O   UNL     1      -0.902  10.907  20.323  0.00  0.00    +0.000 OA
ENDBRANCH   2  10
ENDBRANCH   1   7
BRANCH   1  11
ATOM     11  C   UNL     1       2.438   5.898  18.907  0.00  0.00    +0.000 A 
ATOM     12  C   UNL     1       2.819   5.919  20.257  0.00  0.00    +0.000 A 
ATOM     13  C   UNL     1       2.543   4.858  21.128  0.00  0.00    +0.000 A 
ATOM     14  C   UNL     1       1.859   3.732  20.671  0.00  0.00    +0.000 A 
ATOM     15  C   UNL     1       1.427   3.701  19.347  0.00  0.00    +0.000 A 
ATOM     16 CL   UNL     1       0.560   2.354  18.694  0.00  0.00    +0.000 Cl
ATOM     17  C   UNL     1       1.703   4.776  18.487  0.00  0.00    +0.000 A 
BRANCH  14  18
ATOM     18  C   UNL     1       1.621   2.649  21.571  0.00  0.00    +0.000 C 
ATOM     19  N   UNL     1       1.463   1.782  22.323  0.00  0.00    +0.000 NA
ENDBRANCH  14  18
ENDBRANCH   1  11
BRANCH   1  20
ATOM     20  C   UNL     1       3.772   6.666  16.972  0.00  0.00    +0.000 C 
BRANCH  20  21
ATOM     21  C   UNL     1       5.116   6.094  17.418  0.00  0.00    +0.000 A 
ATOM     22  C   UNL     1       6.105   6.906  18.002  0.00  0.00    +0.000 A 
ATOM     23  C   UNL     1       7.386   6.426  18.237  0.00  0.00    +0.000 A 
ATOM     24  F   UNL     1       8.317   7.258  18.723  0.00  0.00    +0.000 F 
ATOM     25  C   UNL     1       7.718   5.115  17.951  0.00  0.00    +0.000 A 
ATOM     26  C   UNL     1       6.734   4.259  17.463  0.00  0.00    +0.000 A 
ATOM     27  C   UNL     1       5.429   4.726  17.210  0.00  0.00    +0.000 A 
ATOM     28  C   UNL     1       4.399   3.732  16.739  0.00  0.00    +0.000 C 
ENDBRANCH  20  21
ENDBRANCH   1  20
TORSDOF 6
ENDMDL
MODEL 7
REMARK VINA RESULT:      -7.0      1.317      1.561
REMARK  Name = 
REMARK  8 active torsions:
REMARK  status: ('A' for Active; 'I' for Inactive)
REMARK    1  A    between atoms: C_1  and  O_2
REMARK    2  A    between atoms: O_2  and  C_3
REMARK    3  A    between atoms: C_8  and  N_9
REMARK    4  A    between atoms: N_9  and  C_10
REMARK    5  A    between atoms: N_9  and  C_19
REMARK    6  A    between atoms: C_10  and  C_11
REMARK    7  A    between atoms: C_17  and  C_18
REMARK    8  A    between atoms: C_22  and  C_23
REMARK                            x       y       z     vdW  Elec       q    Type
REMARK                         _______ _______ _______ _____ _____    ______ ____
ROOT
ATOM      1  N   UNL     1       2.841   6.392  19.589  0.00  0.00    +0.000 N 
ENDROOT
BRANCH   1   7
ATOM      2  C   UNL     1       5.916   6.136  15.804  0.00  0.00    +0.000 C 
ATOM      3  O   UNL     1       5.233   6.581  14.890  0.00  0.00    +0.000 OA
ATOM      4  N   UNL     1       5.556   6.223  17.122  0.00  0.00    +0.000 N 
ATOM      5  C   UNL     1       6.319   5.766  18.256  0.00  0.00    +0.000 C 
ATOM      6  C   UNL     1       5.241   5.477  19.286  0.00  0.00    +0.000 C 
ATOM      7  C   UNL     1       4.223   6.617  19.068  0.00  0.00    +0.000 C 
ATOM      8  C   UNL     1       4.309   6.829  17.541  0.00  0.00    +0.000 C 
BRANCH   2  10
ATOM      9  C   UNL     1       7.148   4.613  14.514  0.00  0.00    +0.000 C 
ATOM     10  O   UNL     1       7.098   5.488  15.640  0.00  0.00    +0.000 OA
ENDBRANCH   2  10
ENDBRANCH   1   7
BRANCH   1  11
ATOM     11  C   UNL     1       2.021   7.518  19.756  0.00  0.00    +0.000 A 
ATOM     12  C   UNL     1       1.814   8.434  18.714  0.00  0.00    +0.000 A 
ATOM     13  C   UNL     1       1.052   9.597  18.880  0.00  0.00    +0.000 A 
ATOM     14  C   UNL     1       0.455   9.876  20.109  0.00  0.00    +0.000 A 
ATOM     15  C   UNL     1       0.603   8.963  21.150  0.00  0.00    +0.000 A 
ATOM     16 CL   UNL     1      -0.112   9.217  22.704  0.00  0.00    +0.000 Cl
ATOM     17  C   UNL     1       1.363   7.797  20.966  0.00  0.00    +0.000 A 
BRANCH  14  18
ATOM     18  C   UNL     1      -0.289  11.085  20.262  0.00  0.00    +0.000 C 
ATOM     19  N   UNL     1      -0.916  12.047  20.417  0.00  0.00    +0.000 NA
ENDBRANCH  14  18
ENDBRANCH   1  11
BRANCH   1  20
ATOM     20  C   UNL     1       2.460   5.143  20.284  0.00  0.00    +0.000 C 
BRANCH  20  21
ATOM     21  C   UNL     1       2.782   3.832  19.569  0.00  0.00    +0.000 A 
ATOM     22  C   UNL     1       3.630   2.868  20.144  0.00  0.00    +0.000 A 
ATOM     23  C   UNL     1       4.066   1.767  19.420  0.00  0.00    +0.000 A 
ATOM     24  F   UNL     1       4.934   0.916  19.982  0.00  0.00    +0.000 F 
ATOM     25  C   UNL     1       3.638   1.554  18.123  0.00  0.00    +0.000 A 
ATOM     26  C   UNL     1       2.722   2.438  17.559  0.00  0.00    +0.000 A 
ATOM     27  C   UNL     1       2.271   3.567  18.272  0.00  0.00    +0.000 A 
ATOM     28  C   UNL     1       1.234   4.447  17.624  0.00  0.00    +0.000 C 
ENDBRANCH  20  21
ENDBRANCH   1  20
TORSDOF 6
ENDMDL
MODEL 8
REMARK VINA RESULT:      -6.9      4.083      6.980
REMARK  Name = 
REMARK  8 active torsions:
REMARK  status: ('A' for Active; 'I' for Inactive)
REMARK    1  A    between atoms: C_1  and  O_2
REMARK    2  A    between atoms: O_2  and  C_3
REMARK    3  A    between atoms: C_8  and  N_9
REMARK    4  A    between atoms: N_9  and  C_10
REMARK    5  A    between atoms: N_9  and  C_19
REMARK    6  A    between atoms: C_10  and  C_11
REMARK    7  A    between atoms: C_17  and  C_18
REMARK    8  A    between atoms: C_22  and  C_23
REMARK                            x       y       z     vdW  Elec       q    Type
REMARK                         _______ _______ _______ _____ _____    ______ ____
ROOT
ATOM      1  N   UNL     1       2.167   6.794  19.778  0.00  0.00    +0.000 N 
ENDROOT
BRANCH   1   7
ATOM      2  C   UNL     1      -0.017  10.541  22.022  0.00  0.00    +0.000 C 
ATOM      3  O   UNL     1      -0.056  10.155  23.184  0.00  0.00    +0.000 OA
ATOM      4  N   UNL     1       0.718   9.920  21.049  0.00  0.00    +0.000 N 
ATOM      5  C   UNL     1       0.852  10.332  19.674  0.00  0.00    +0.000 C 
ATOM      6  C   UNL     1       1.142   9.023  18.961  0.00  0.00    +0.000 C 
ATOM      7  C   UNL     1       2.061   8.274  19.950  0.00  0.00    +0.000 C 
ATOM      8  C   UNL     1       1.493   8.725  21.313  0.00  0.00    +0.000 C 
BRANCH   2  10
ATOM      9  C   UNL     1      -0.307  12.867  22.091  0.00  0.00    +0.000 C 
ATOM     10  O   UNL     1      -0.700  11.610  21.541  0.00  0.00    +0.000 OA
ENDBRANCH   2  10
ENDBRANCH   1   7
BRANCH   1  11
ATOM     11  C   UNL     1       3.303   6.297  19.121  0.00  0.00    +0.000 A 
ATOM     12  C   UNL     1       4.207   5.441  19.768  0.00  0.00    +0.000 A 
ATOM     13  C   UNL     1       5.379   4.988  19.151  0.00  0.00    +0.000 A 
ATOM     14  C   UNL     1       5.682   5.373  17.845  0.00  0.00    +0.000 A 
ATOM     15  C   UNL     1       4.780   6.185  17.160  0.00  0.00    +0.000 A 
ATOM     16 CL   UNL     1       5.063   6.702  15.534  0.00  0.00    +0.000 Cl
ATOM     17  C   UNL     1       3.605   6.625  17.788  0.00  0.00    +0.000 A 
BRANCH  14  18
ATOM     18  C   UNL     1       6.900   4.923  17.251  0.00  0.00    +0.000 C 
ATOM     19  N   UNL     1       7.884   4.521  16.791  0.00  0.00    +0.000 NA
ENDBRANCH  14  18
ENDBRANCH   1  11
BRANCH   1  20
ATOM     20  C   UNL     1       0.991   5.905  19.904  0.00  0.00    +0.000 C 
BRANCH  20  21
ATOM     21  C   UNL     1       1.261   4.402  19.903  0.00  0.00    +0.000 A 
ATOM     22  C   UNL     1       1.429   3.682  21.100  0.00  0.00    +0.000 A 
ATOM     23  C   UNL     1       1.854   2.361  21.094  0.00  0.00    +0.000 A 
ATOM     24  F   UNL     1       2.075   1.740  22.260  0.00  0.00    +0.000 F 
ATOM     25  C   UNL     1       2.077   1.691  19.906  0.00  0.00    +0.000 A 
ATOM     26  C   UNL     1       1.826   2.346  18.703  0.00  0.00    +0.000 A 
ATOM     27  C   UNL     1       1.401   3.689  18.684  0.00  0.00    +0.000 A 
ATOM     28  C   UNL     1       1.090   4.316  17.350  0.00  0.00    +0.000 C 
ENDBRANCH  20  21
ENDBRANCH   1  20
TORSDOF 6
ENDMDL
MODEL 9
REMARK VINA RESULT:      -6.8      3.885      6.830
REMARK  Name = 
REMARK  8 active torsions:
REMARK  status: ('A' for Active; 'I' for Inactive)
REMARK    1  A    between atoms: C_1  and  O_2
REMARK    2  A    between atoms: O_2  and  C_3
REMARK    3  A    between atoms: C_8  and  N_9
REMARK    4  A    between atoms: N_9  and  C_10
REMARK    5  A    between atoms: N_9  and  C_19
REMARK    6  A    between atoms: C_10  and  C_11
REMARK    7  A    between atoms: C_17  and  C_18
REMARK    8  A    between atoms: C_22  and  C_23
REMARK                            x       y       z     vdW  Elec       q    Type
REMARK                         _______ _______ _______ _____ _____    ______ ____
ROOT
ATOM      1  N   UNL     1       2.562   6.596  18.600  0.00  0.00    +0.000 N 
ENDROOT
BRANCH   1   7
ATOM      2  C   UNL     1      -0.156   9.493  21.440  0.00  0.00    +0.000 C 
ATOM      3  O   UNL     1      -0.434   8.748  22.372  0.00  0.00    +0.000 OA
ATOM      4  N   UNL     1       0.788   9.193  20.495  0.00  0.00    +0.000 N 
ATOM      5  C   UNL     1       1.204  10.029  19.396  0.00  0.00    +0.000 C 
ATOM      6  C   UNL     1       1.677   9.015  18.369  0.00  0.00    +0.000 C 
ATOM      7  C   UNL     1       2.381   7.941  19.225  0.00  0.00    +0.000 C 
ATOM      8  C   UNL     1       1.520   7.943  20.507  0.00  0.00    +0.000 C 
BRANCH   2  10
ATOM      9  C   UNL     1      -0.688  11.610  22.296  0.00  0.00    +0.000 C 
ATOM     10  O   UNL     1      -0.749  10.692  21.206  0.00  0.00    +0.000 OA
ENDBRANCH   2  10
ENDBRANCH   1   7
BRANCH   1  11
ATOM     11  C   UNL     1       3.717   6.390  17.829  0.00  0.00    +0.000 A 
ATOM     12  C   UNL     1       3.812   6.863  16.512  0.00  0.00    +0.000 A 
ATOM     13  C   UNL     1       4.929   6.612  15.706  0.00  0.00    +0.000 A 
ATOM     14  C   UNL     1       6.006   5.880  16.204  0.00  0.00    +0.000 A 
ATOM     15  C   UNL     1       5.961   5.436  17.524  0.00  0.00    +0.000 A 
ATOM     16 CL   UNL     1       7.255   4.533  18.234  0.00  0.00    +0.000 Cl
ATOM     17  C   UNL     1       4.839   5.702  18.323  0.00  0.00    +0.000 A 
BRANCH  14  18
ATOM     18  C   UNL     1       7.118   5.609  15.351  0.00  0.00    +0.000 C 
ATOM     19  N   UNL     1       8.000   5.354  14.644  0.00  0.00    +0.000 NA
ENDBRANCH  14  18
ENDBRANCH   1  11
BRANCH   1  20
ATOM     20  C   UNL     1       1.435   5.652  18.433  0.00  0.00    +0.000 C 
BRANCH  20  21
ATOM     21  C   UNL     1       1.571   4.291  19.113  0.00  0.00    +0.000 A 
ATOM     22  C   UNL     1       1.138   4.081  20.435  0.00  0.00    +0.000 A 
ATOM     23  C   UNL     1       1.427   2.904  21.111  0.00  0.00    +0.000 A 
ATOM     24  F   UNL     1       1.063   2.779  22.393  0.00  0.00    +0.000 F 
ATOM     25  C   UNL     1       2.107   1.875  20.487  0.00  0.00    +0.000 A 
ATOM     26  C   UNL     1       2.464   2.014  19.148  0.00  0.00    +0.000 A 
ATOM     27  C   UNL     1       2.187   3.203  18.444  0.00  0.00    +0.000 A 
ATOM     28  C   UNL     1       2.547   3.261  16.982  0.00  0.00    +0.000 C 
ENDBRANCH  20  21
ENDBRANCH   1  20
TORSDOF 6
ENDMDL
