MODEL 1
REMARK VINA RESULT:      -6.4      0.000      0.000
REMARK  Name = 
REMARK  7 active torsions:
REMARK  status: ('A' for Active; 'I' for Inactive)
REMARK    1  A    between atoms: C_1  and  C_2
REMARK    2  A    between atoms: C_8  and  O_9
REMARK    3  A    between atoms: C_11  and  C_12
REMARK    4  A    between atoms: C_12  and  C_13
REMARK    5  A    between atoms: C_13  and  N_14
REMARK    6  A    between atoms: N_14  and  C_15
REMARK    7  A    between atoms: N_14  and  C_16
REMARK                            x       y       z     vdW  Elec       q    Type
REMARK                         _______ _______ _______ _____ _____    ______ ____
ROOT
ATOM      1  C   UNL     1       2.838   8.203  17.804  0.00  0.00    +0.000 C 
ATOM      2  C   UNL     1       2.959   6.846  18.400  0.00  0.00    +0.000 A 
ATOM      3  N   UNL     1       2.278   6.507  19.538  0.00  0.00    +0.000 N 
ATOM      4  C   UNL     1       2.568   5.219  19.914  0.00  0.00    +0.000 A 
ATOM      5  C   UNL     1       2.099   4.486  21.011  0.00  0.00    +0.000 A 
ATOM      6  C   UNL     1       2.556   3.176  21.165  0.00  0.00    +0.000 A 
ATOM      7  C   UNL     1       3.459   2.624  20.262  0.00  0.00    +0.000 A 
ATOM      8  C   UNL     1       3.928   3.379  19.178  0.00  0.00    +0.000 A 
ATOM      9  C   UNL     1       3.471   4.705  18.979  0.00  0.00    +0.000 A 
ATOM     10  C   UNL     1       3.708   5.744  18.007  0.00  0.00    +0.000 A 
ATOM     11  H   UNL     1       1.658   7.121  20.048  0.00  0.00    +0.000 HD
ENDROOT
BRANCH   8  12
ATOM     12  O   UNL     1       4.839   2.817  18.318  0.00  0.00    +0.000 OA
ATOM     13  H   UNL     1       4.354   2.324  17.639  0.00  0.00    +0.000 HD
ENDBRANCH   8  12
BRANCH  10  14
ATOM     14  C   UNL     1       4.625   5.688  16.813  0.00  0.00    +0.000 C 
BRANCH  14  15
ATOM     15  C   UNL     1       6.004   6.327  17.059  0.00  0.00    +0.000 C 
BRANCH  15  16
ATOM     16  N   UNL     1       7.168   5.476  16.707  0.00  0.00    +0.000 NA
ATOM     17  C   UNL     1       7.649   4.695  17.849  0.00  0.00    +0.000 C 
ATOM     18  C   UNL     1       6.785   4.569  15.622  0.00  0.00    +0.000 C 
ENDBRANCH  15  16
ENDBRANCH  14  15
ENDBRANCH  10  14
TORSDOF 4
ENDMDL
MODEL 2
REMARK VINA RESULT:      -6.4      0.806      1.216
REMARK  Name = 
REMARK  7 active torsions:
REMARK  status: ('A' for Active; 'I' for Inactive)
REMARK    1  A    between atoms: C_1  and  C_2
REMARK    2  A    between atoms: C_8  and  O_9
REMARK    3  A    between atoms: C_11  and  C_12
REMARK    4  A    between atoms: C_12  and  C_13
REMARK    5  A    between atoms: C_13  and  N_14
REMARK    6  A    between atoms: N_14  and  C_15
REMARK    7  A    between atoms: N_14  and  C_16
REMARK                            x       y       z     vdW  Elec       q    Type
REMARK                         _______ _______ _______ _____ _____    ______ ____
ROOT
ATOM      1  C   UNL     1       2.750   8.190  18.006  0.00  0.00    +0.000 C 
ATOM      2  C   UNL     1       2.899   6.837  18.603  0.00  0.00    +0.000 A 
ATOM      3  N   UNL     1       1.977   6.345  19.488  0.00  0.00    +0.000 N 
ATOM      4  C   UNL     1       2.341   5.095  19.926  0.00  0.00    +0.000 A 
ATOM      5  C   UNL     1       1.691   4.247  20.831  0.00  0.00    +0.000 A 
ATOM      6  C   UNL     1       2.279   3.011  21.106  0.00  0.00    +0.000 A 
ATOM      7  C   UNL     1       3.480   2.644  20.508  0.00  0.00    +0.000 A 
ATOM      8  C   UNL     1       4.122   3.513  19.615  0.00  0.00    +0.000 A 
ATOM      9  C   UNL     1       3.544   4.766  19.297  0.00  0.00    +0.000 A 
ATOM     10  C   UNL     1       3.890   5.877  18.443  0.00  0.00    +0.000 A 
ATOM     11  H   UNL     1       1.149   6.835  19.795  0.00  0.00    +0.000 HD
ENDROOT
BRANCH   8  12
ATOM     12  O   UNL     1       5.320   3.135  19.059  0.00  0.00    +0.000 OA
ATOM     13  H   UNL     1       5.255   3.236  18.097  0.00  0.00    +0.000 HD
ENDBRANCH   8  12
BRANCH  10  14
ATOM     14  C   UNL     1       5.113   6.016  17.573  0.00  0.00    +0.000 C 
BRANCH  14  15
ATOM     15  C   UNL     1       5.019   5.248  16.242  0.00  0.00    +0.000 C 
BRANCH  15  16
ATOM     16  N   UNL     1       6.011   4.158  16.068  0.00  0.00    +0.000 NA
ATOM     17  C   UNL     1       6.247   3.843  14.657  0.00  0.00    +0.000 C 
ATOM     18  C   UNL     1       7.273   4.557  16.696  0.00  0.00    +0.000 C 
ENDBRANCH  15  16
ENDBRANCH  14  15
ENDBRANCH  10  14
TORSDOF 4
ENDMDL
MODEL 3
REMARK VINA RESULT:      -6.3      0.654      1.052
REMARK  Name = 
REMARK  7 active torsions:
REMARK  status: ('A' for Active; 'I' for Inactive)
REMARK    1  A    between atoms: C_1  and  C_2
REMARK    2  A    between atoms: C_8  and  O_9
REMARK    3  A    between atoms: C_11  and  C_12
REMARK    4  A    between atoms: C_12  and  C_13
REMARK    5  A    between atoms: C_13  and  N_14
REMARK    6  A    between atoms: N_14  and  C_15
REMARK    7  A    between atoms: N_14  and  C_16
REMARK                            x       y       z     vdW  Elec       q    Type
REMARK                         _______ _______ _______ _____ _____    ______ ____
ROOT
ATOM      1  C   UNL     1       2.507   8.198  18.134  0.00  0.00    +0.000 C 
ATOM      2  C   UNL     1       2.701   6.832  18.687  0.00  0.00    +0.000 A 
ATOM      3  N   UNL     1       2.029   6.415  19.805  0.00  0.00    +0.000 N 
ATOM      4  C   UNL     1       2.392   5.134  20.142  0.00  0.00    +0.000 A 
ATOM      5  C   UNL     1       1.954   4.339  21.209  0.00  0.00    +0.000 A 
ATOM      6  C   UNL     1       2.487   3.054  21.327  0.00  0.00    +0.000 A 
ATOM      7  C   UNL     1       3.432   2.588  20.419  0.00  0.00    +0.000 A 
ATOM      8  C   UNL     1       3.868   3.405  19.367  0.00  0.00    +0.000 A 
ATOM      9  C   UNL     1       3.334   4.706  19.204  0.00  0.00    +0.000 A 
ATOM     10  C   UNL     1       3.519   5.790  18.269  0.00  0.00    +0.000 A 
ATOM     11  H   UNL     1       1.367   6.973  20.326  0.00  0.00    +0.000 HD
ENDROOT
BRANCH   8  12
ATOM     12  O   UNL     1       4.821   2.927  18.501  0.00  0.00    +0.000 OA
ATOM     13  H   UNL     1       4.746   3.413  17.666  0.00  0.00    +0.000 HD
ENDBRANCH   8  12
BRANCH  10  14
ATOM     14  C   UNL     1       4.453   5.828  17.087  0.00  0.00    +0.000 C 
BRANCH  14  15
ATOM     15  C   UNL     1       5.864   6.341  17.426  0.00  0.00    +0.000 C 
BRANCH  15  16
ATOM     16  N   UNL     1       6.772   5.339  18.039  0.00  0.00    +0.000 NA
ATOM     17  C   UNL     1       7.486   4.550  17.032  0.00  0.00    +0.000 C 
ATOM     18  C   UNL     1       7.740   6.031  18.892  0.00  0.00    +0.000 C 
ENDBRANCH  15  16
ENDBRANCH  14  15
ENDBRANCH  10  14
TORSDOF 4
ENDMDL
MODEL 4
REMARK VINA RESULT:      -6.3      1.038      1.478
REMARK  Name = 
REMARK  7 active torsions:
REMARK  status: ('A' for Active; 'I' for Inactive)
REMARK    1  A    between atoms: C_1  and  C_2
REMARK    2  A    between atoms: C_8  and  O_9
REMARK    3  A    between atoms: C_11  and  C_12
REMARK    4  A    between atoms: C_12  and  C_13
REMARK    5  A    between atoms: C_13  and  N_14
REMARK    6  A    between atoms: N_14  and  C_15
REMARK    7  A    between atoms: N_14  and  C_16
REMARK                            x       y       z     vdW  Elec       q    Type
REMARK                         _______ _______ _______ _____ _____    ______ ____
ROOT
ATOM      1  C   UNL     1       3.772   7.088  17.356  0.00  0.00    +0.000 C 
ATOM      2  C   UNL     1       3.544   5.944  18.277  0.00  0.00    +0.000 A 
ATOM      3  N   UNL     1       2.544   5.972  19.212  0.00  0.00    +0.000 N 
ATOM      4  C   UNL     1       2.547   4.822  19.963  0.00  0.00    +0.000 A 
ATOM      5  C   UNL     1       1.707   4.450  21.019  0.00  0.00    +0.000 A 
ATOM      6  C   UNL     1       1.925   3.209  21.621  0.00  0.00    +0.000 A 
ATOM      7  C   UNL     1       2.954   2.378  21.191  0.00  0.00    +0.000 A 
ATOM      8  C   UNL     1       3.794   2.777  20.141  0.00  0.00    +0.000 A 
ATOM      9  C   UNL     1       3.590   4.020  19.494  0.00  0.00    +0.000 A 
ATOM     10  C   UNL     1       4.216   4.735  18.409  0.00  0.00    +0.000 A 
ATOM     11  H   UNL     1       1.898   6.737  19.348  0.00  0.00    +0.000 HD
ENDROOT
BRANCH   8  12
ATOM     12  O   UNL     1       4.819   1.948  19.755  0.00  0.00    +0.000 OA
ATOM     13  H   UNL     1       4.439   1.197  19.272  0.00  0.00    +0.000 HD
ENDBRANCH   8  12
BRANCH  10  14
ATOM     14  C   UNL     1       5.405   4.298  17.591  0.00  0.00    +0.000 C 
BRANCH  14  15
ATOM     15  C   UNL     1       6.742   4.884  18.079  0.00  0.00    +0.000 C 
BRANCH  15  16
ATOM     16  N   UNL     1       7.514   5.636  17.058  0.00  0.00    +0.000 NA
ATOM     17  C   UNL     1       6.972   5.454  15.709  0.00  0.00    +0.000 C 
ATOM     18  C   UNL     1       7.497   7.060  17.401  0.00  0.00    +0.000 C 
ENDBRANCH  15  16
ENDBRANCH  14  15
ENDBRANCH  10  14
TORSDOF 4
ENDMDL
MODEL 5
REMARK VINA RESULT:      -6.3      1.348      1.444
REMARK  Name = 
REMARK  7 active torsions:
REMARK  status: ('A' for Active; 'I' for Inactive)
REMARK    1  A    between atoms: C_1  and  C_2
REMARK    2  A    between atoms: C_8  and  O_9
REMARK    3  A    between atoms: C_11  and  C_12
REMARK    4  A    between atoms: C_12  and  C_13
REMARK    5  A    between atoms: C_13  and  N_14
REMARK    6  A    between atoms: N_14  and  C_15
REMARK    7  A    between atoms: N_14  and  C_16
REMARK                            x       y       z     vdW  Elec       q    Type
REMARK                         _______ _______ _______ _____ _____    ______ ____
ROOT
ATOM      1  C   UNL     1       3.819   7.283  17.430  0.00  0.00    +0.000 C 
ATOM      2  C   UNL     1       3.247   6.057  18.047  0.00  0.00    +0.000 A 
ATOM      3  N   UNL     1       2.552   6.113  19.225  0.00  0.00    +0.000 N 
ATOM      4  C   UNL     1       2.148   4.859  19.612  0.00  0.00    +0.000 A 
ATOM      5  C   UNL     1       1.426   4.469  20.747  0.00  0.00    +0.000 A 
ATOM      6  C   UNL     1       1.141   3.111  20.905  0.00  0.00    +0.000 A 
ATOM      7  C   UNL     1       1.574   2.178  19.969  0.00  0.00    +0.000 A 
ATOM      8  C   UNL     1       2.308   2.587  18.847  0.00  0.00    +0.000 A 
ATOM      9  C   UNL     1       2.599   3.958  18.644  0.00  0.00    +0.000 A 
ATOM     10  C   UNL     1       3.289   4.730  17.639  0.00  0.00    +0.000 A 
ATOM     11  H   UNL     1       2.371   6.955  19.753  0.00  0.00    +0.000 HD
ENDROOT
BRANCH   8  12
ATOM     12  O   UNL     1       2.745   1.640  17.953  0.00  0.00    +0.000 OA
ATOM     13  H   UNL     1       2.178   1.678  17.167  0.00  0.00    +0.000 HD
ENDBRANCH   8  12
BRANCH  10  14
ATOM     14  C   UNL     1       3.977   4.214  16.402  0.00  0.00    +0.000 C 
BRANCH  14  15
ATOM     15  C   UNL     1       5.418   3.731  16.648  0.00  0.00    +0.000 C 
BRANCH  15  16
ATOM     16  N   UNL     1       6.460   4.786  16.580  0.00  0.00    +0.000 NA
ATOM     17  C   UNL     1       7.502   4.602  17.593  0.00  0.00    +0.000 C 
ATOM     18  C   UNL     1       7.068   4.770  15.247  0.00  0.00    +0.000 C 
ENDBRANCH  15  16
ENDBRANCH  14  15
ENDBRANCH  10  14
TORSDOF 4
ENDMDL
MODEL 6
REMARK VINA RESULT:      -6.3      2.220      2.910
REMARK  Name = 
REMARK  7 active torsions:
REMARK  status: ('A' for Active; 'I' for Inactive)
REMARK    1  A    between atoms: C_1  and  C_2
REMARK    2  A    between atoms: C_8  and  O_9
REMARK    3  A    between atoms: C_11  and  C_12
REMARK    4  A    between atoms: C_12  and  C_13
REMARK    5  A    between atoms: C_13  and  N_14
REMARK    6  A    between atoms: N_14  and  C_15
REMARK    7  A    between atoms: N_14  and  C_16
REMARK                            x       y       z     vdW  Elec       q    Type
REMARK                         _______ _______ _______ _____ _____    ______ ____
ROOT
ATOM      1  C   UNL     1       4.986   4.006  15.829  0.00  0.00    +0.000 C 
ATOM      2  C   UNL     1       4.046   3.962  16.980  0.00  0.00    +0.000 A 
ATOM      3  N   UNL     1       3.034   3.042  17.036  0.00  0.00    +0.000 N 
ATOM      4  C   UNL     1       2.281   3.213  18.172  0.00  0.00    +0.000 A 
ATOM      5  C   UNL     1       1.160   2.499  18.610  0.00  0.00    +0.000 A 
ATOM      6  C   UNL     1       0.574   2.880  19.819  0.00  0.00    +0.000 A 
ATOM      7  C   UNL     1       1.083   3.946  20.553  0.00  0.00    +0.000 A 
ATOM      8  C   UNL     1       2.198   4.658  20.089  0.00  0.00    +0.000 A 
ATOM      9  C   UNL     1       2.830   4.287  18.878  0.00  0.00    +0.000 A 
ATOM     10  C   UNL     1       3.965   4.754  18.119  0.00  0.00    +0.000 A 
ATOM     11  H   UNL     1       2.849   2.340  16.334  0.00  0.00    +0.000 HD
ENDROOT
BRANCH   8  12
ATOM     12  O   UNL     1       2.663   5.723  20.822  0.00  0.00    +0.000 OA
ATOM     13  H   UNL     1       3.254   5.383  21.513  0.00  0.00    +0.000 HD
ENDBRANCH   8  12
BRANCH  10  14
ATOM     14  C   UNL     1       4.875   5.909  18.450  0.00  0.00    +0.000 C 
BRANCH  14  15
ATOM     15  C   UNL     1       6.121   5.506  19.260  0.00  0.00    +0.000 C 
BRANCH  15  16
ATOM     16  N   UNL     1       7.417   5.699  18.564  0.00  0.00    +0.000 NA
ATOM     17  C   UNL     1       7.833   4.505  17.825  0.00  0.00    +0.000 C 
ATOM     18  C   UNL     1       7.297   6.828  17.638  0.00  0.00    +0.000 C 
ENDBRANCH  15  16
ENDBRANCH  14  15
ENDBRANCH  10  14
TORSDOF 4
ENDMDL
MODEL 7
REMARK VINA RESULT:      -6.2      1.481      1.878
REMARK  Name = 
REMARK  7 active torsions:
REMARK  status: ('A' for Active; 'I' for Inactive)
REMARK    1  A    between atoms: C_1  and  C_2
REMARK    2  A    between atoms: C_8  and  O_9
REMARK    3  A    between atoms: C_11  and  C_12
REMARK    4  A    between atoms: C_12  and  C_13
REMARK    5  A    between atoms: C_13  and  N_14
REMARK    6  A    between atoms: N_14  and  C_15
REMARK    7  A    between atoms: N_14  and  C_16
REMARK                            x       y       z     vdW  Elec       q    Type
REMARK                         _______ _______ _______ _____ _____    ______ ____
ROOT
ATOM      1  C   UNL     1       3.759   7.532  17.622  0.00  0.00    +0.000 C 
ATOM      2  C   UNL     1       3.490   6.123  18.013  0.00  0.00    +0.000 A 
ATOM      3  N   UNL     1       2.238   5.582  17.904  0.00  0.00    +0.000 N 
ATOM      4  C   UNL     1       2.227   4.284  18.351  0.00  0.00    +0.000 A 
ATOM      5  C   UNL     1       1.163   3.377  18.419  0.00  0.00    +0.000 A 
ATOM      6  C   UNL     1       1.424   2.100  18.920  0.00  0.00    +0.000 A 
ATOM      7  C   UNL     1       2.700   1.749  19.349  0.00  0.00    +0.000 A 
ATOM      8  C   UNL     1       3.749   2.676  19.285  0.00  0.00    +0.000 A 
ATOM      9  C   UNL     1       3.525   3.974  18.764  0.00  0.00    +0.000 A 
ATOM     10  C   UNL     1       4.331   5.148  18.535  0.00  0.00    +0.000 A 
ATOM     11  H   UNL     1       1.423   6.069  17.558  0.00  0.00    +0.000 HD
ENDROOT
BRANCH   8  12
ATOM     12  O   UNL     1       4.992   2.310  19.739  0.00  0.00    +0.000 OA
ATOM     13  H   UNL     1       5.040   1.342  19.750  0.00  0.00    +0.000 HD
ENDBRANCH   8  12
BRANCH  10  14
ATOM     14  C   UNL     1       5.797   5.326  18.841  0.00  0.00    +0.000 C 
BRANCH  14  15
ATOM     15  C   UNL     1       6.728   4.557  17.886  0.00  0.00    +0.000 C 
BRANCH  15  16
ATOM     16  N   UNL     1       7.441   5.392  16.888  0.00  0.00    +0.000 NA
ATOM     17  C   UNL     1       6.901   5.223  15.537  0.00  0.00    +0.000 C 
ATOM     18  C   UNL     1       7.337   6.799  17.282  0.00  0.00    +0.000 C 
ENDBRANCH  15  16
ENDBRANCH  14  15
ENDBRANCH  10  14
TORSDOF 4
ENDMDL
MODEL 8
REMARK VINA RESULT:      -6.2      1.302      1.386
REMARK  Name = 
REMARK  7 active torsions:
REMARK  status: ('A' for Active; 'I' for Inactive)
REMARK    1  A    between atoms: C_1  and  C_2
REMARK    2  A    between atoms: C_8  and  O_9
REMARK    3  A    between atoms: C_11  and  C_12
REMARK    4  A    between atoms: C_12  and  C_13
REMARK    5  A    between atoms: C_13  and  N_14
REMARK    6  A    between atoms: N_14  and  C_15
REMARK    7  A    between atoms: N_14  and  C_16
REMARK                            x       y       z     vdW  Elec       q    Type
REMARK                         _______ _______ _______ _____ _____    ______ ____
ROOT
ATOM      1  C   UNL     1       3.036   7.917  17.767  0.00  0.00    +0.000 C 
ATOM      2  C   UNL     1       3.032   6.456  18.044  0.00  0.00    +0.000 A 
ATOM      3  N   UNL     1       1.869   5.735  18.034  0.00  0.00    +0.000 N 
ATOM      4  C   UNL     1       2.109   4.419  18.345  0.00  0.00    +0.000 A 
ATOM      5  C   UNL     1       1.207   3.353  18.451  0.00  0.00    +0.000 A 
ATOM      6  C   UNL     1       1.718   2.096  18.785  0.00  0.00    +0.000 A 
ATOM      7  C   UNL     1       3.078   1.918  19.017  0.00  0.00    +0.000 A 
ATOM      8  C   UNL     1       3.961   3.001  18.920  0.00  0.00    +0.000 A 
ATOM      9  C   UNL     1       3.482   4.285  18.564  0.00  0.00    +0.000 A 
ATOM     10  C   UNL     1       4.069   5.587  18.358  0.00  0.00    +0.000 A 
ATOM     11  H   UNL     1       0.952   6.114  17.841  0.00  0.00    +0.000 HD
ENDROOT
BRANCH   8  12
ATOM     12  O   UNL     1       5.295   2.801  19.180  0.00  0.00    +0.000 OA
ATOM     13  H   UNL     1       5.677   3.640  19.482  0.00  0.00    +0.000 HD
ENDBRANCH   8  12
BRANCH  10  14
ATOM     14  C   UNL     1       5.521   5.969  18.499  0.00  0.00    +0.000 C 
BRANCH  14  15
ATOM     15  C   UNL     1       6.190   6.368  17.171  0.00  0.00    +0.000 C 
BRANCH  15  16
ATOM     16  N   UNL     1       7.295   5.481  16.729  0.00  0.00    +0.000 NA
ATOM     17  C   UNL     1       7.762   4.600  17.802  0.00  0.00    +0.000 C 
ATOM     18  C   UNL     1       6.832   4.671  15.600  0.00  0.00    +0.000 C 
ENDBRANCH  15  16
ENDBRANCH  14  15
ENDBRANCH  10  14
TORSDOF 4
ENDMDL
MODEL 9
REMARK VINA RESULT:      -6.2      2.004      2.530
REMARK  Name = 
REMARK  7 active torsions:
REMARK  status: ('A' for Active; 'I' for Inactive)
REMARK    1  A    between atoms: C_1  and  C_2
REMARK    2  A    between atoms: C_8  and  O_9
REMARK    3  A    between atoms: C_11  and  C_12
REMARK    4  A    between atoms: C_12  and  C_13
REMARK    5  A    between atoms: C_13  and  N_14
REMARK    6  A    between atoms: N_14  and  C_15
REMARK    7  A    between atoms: N_14  and  C_16
REMARK                            x       y       z     vdW  Elec       q    Type
REMARK                         _______ _______ _______ _____ _____    ______ ____
ROOT
ATOM      1  C   UNL     1       6.220   5.815  18.541  0.00  0.00    +0.000 C 
ATOM      2  C   UNL     1       4.912   5.138  18.749  0.00  0.00    +0.000 A 
ATOM      3  N   UNL     1       4.073   5.510  19.764  0.00  0.00    +0.000 N 
ATOM      4  C   UNL     1       2.945   4.727  19.775  0.00  0.00    +0.000 A 
ATOM      5  C   UNL     1       1.846   4.765  20.642  0.00  0.00    +0.000 A 
ATOM      6  C   UNL     1       0.816   3.847  20.432  0.00  0.00    +0.000 A 
ATOM      7  C   UNL     1       0.889   2.916  19.400  0.00  0.00    +0.000 A 
ATOM      8  C   UNL     1       2.005   2.886  18.552  0.00  0.00    +0.000 A 
ATOM      9  C   UNL     1       3.059   3.815  18.723  0.00  0.00    +0.000 A 
ATOM     10  C   UNL     1       4.312   4.090  18.062  0.00  0.00    +0.000 A 
ATOM     11  H   UNL     1       4.259   6.247  20.430  0.00  0.00    +0.000 HD
ENDROOT
BRANCH   8  12
ATOM     12  O   UNL     1       2.062   1.940  17.558  0.00  0.00    +0.000 OA
ATOM     13  H   UNL     1       2.150   1.067  17.972  0.00  0.00    +0.000 HD
ENDBRANCH   8  12
BRANCH  10  14
ATOM     14  C   UNL     1       4.903   3.361  16.883  0.00  0.00    +0.000 C 
BRANCH  14  15
ATOM     15  C   UNL     1       5.095   4.248  15.638  0.00  0.00    +0.000 C 
BRANCH  15  16
ATOM     16  N   UNL     1       6.286   3.928  14.812  0.00  0.00    +0.000 NA
ATOM     17  C   UNL     1       5.948   3.751  13.397  0.00  0.00    +0.000 C 
ATOM     18  C   UNL     1       7.264   5.010  14.947  0.00  0.00    +0.000 C 
ENDBRANCH  15  16
ENDBRANCH  14  15
ENDBRANCH  10  14
TORSDOF 4
ENDMDL
