MODEL 1
REMARK VINA RESULT:      -7.6      0.000      0.000
REMARK  Name = 
REMARK  10 active torsions:
REMARK  status: ('A' for Active; 'I' for Inactive)
REMARK    1  A    between atoms: C_1  and  C_2
REMARK    2  A    between atoms: C_2  and  C_4
REMARK    3  A    between atoms: C_5  and  C_6
REMARK    4  A    between atoms: C_8  and  C_9
REMARK    5  A    between atoms: C_9  and  C_11
REMARK    6  A    between atoms: C_11  and  O_12
REMARK    7  A    between atoms: O_12  and  C_13
REMARK    8  A    between atoms: C_13  and  C_15
REMARK    9  A    between atoms: C_20  and  N_21
REMARK   10  A    between atoms: C_22  and  C_23
REMARK                            x       y       z     vdW  Elec       q    Type
REMARK                         _______ _______ _______ _____ _____    ______ ____
ROOT
ATOM      1  C   UNL     1       6.663   5.002  18.929  0.00  0.00    +0.000 C 
ATOM      2  O   UNL     1       7.024   5.556  19.970  0.00  0.00    +0.000 OA
ENDROOT
BRANCH   1   7
ATOM      3  C   UNL     1       3.117   3.854  18.621  0.00  0.00    +0.000 A 
ATOM      4  C   UNL     1       3.830   2.667  18.735  0.00  0.00    +0.000 A 
ATOM      5  C   UNL     1       3.384   1.243  18.743  0.00  0.00    +0.000 C 
ATOM      6  N   UNL     1       5.162   2.977  18.846  0.00  0.00    +0.000 N 
ATOM      7  C   UNL     1       5.360   4.339  18.799  0.00  0.00    +0.000 A 
ATOM      8  C   UNL     1       4.099   4.917  18.629  0.00  0.00    +0.000 A 
ATOM      9  C   UNL     1       3.800   6.378  18.521  0.00  0.00    +0.000 C 
ATOM     10  H   UNL     1       5.886   2.280  18.957  0.00  0.00    +0.000 HD
BRANCH   3  12
ATOM     11  C   UNL     1       0.812   3.827  19.775  0.00  0.00    +0.000 C 
ATOM     12  C   UNL     1       1.646   3.935  18.524  0.00  0.00    +0.000 C 
ATOM     13  O   UNL     1       1.082   4.097  17.440  0.00  0.00    +0.000 OA
ENDBRANCH   3  12
ENDBRANCH   1   7
BRANCH   1  14
ATOM     14  C   UNL     1       7.621   4.951  17.730  0.00  0.00    +0.000 C 
BRANCH  14  15
ATOM     15  O   UNL     1       7.016   4.394  16.558  0.00  0.00    +0.000 OA
BRANCH  15  16
ATOM     16  C   UNL     1       6.651   5.310  15.620  0.00  0.00    +0.000 C 
ATOM     17  O   UNL     1       6.389   6.484  15.849  0.00  0.00    +0.000 OA
BRANCH  16  18
ATOM     18  C   UNL     1       6.606   4.679  14.271  0.00  0.00    +0.000 A 
ATOM     19  N   UNL     1       5.573   3.815  14.022  0.00  0.00    +0.000 NA
ATOM     20  C   UNL     1       5.548   3.294  12.777  0.00  0.00    +0.000 A 
ATOM     21  C   UNL     1       6.488   3.625  11.816  0.00  0.00    +0.000 A 
ATOM     22  N   UNL     1       7.501   4.490  12.056  0.00  0.00    +0.000 NA
ATOM     23  C   UNL     1       7.559   5.026  13.299  0.00  0.00    +0.000 A 
BRANCH  23  24
ATOM     24  N   UNL     1       8.671   5.828  13.527  0.00  0.00    +0.000 N 
ATOM     25  H   UNL     1       9.362   5.304  14.056  0.00  0.00    +0.000 HD
ATOM     26  H   UNL     1       9.033   6.263  12.680  0.00  0.00    +0.000 HD
ENDBRANCH  23  24
ENDBRANCH  16  18
ENDBRANCH  15  16
ENDBRANCH  14  15
ENDBRANCH   1  14
TORSDOF 7
ENDMDL
MODEL 2
REMARK VINA RESULT:      -7.5      1.812      6.117
REMARK  Name = 
REMARK  10 active torsions:
REMARK  status: ('A' for Active; 'I' for Inactive)
REMARK    1  A    between atoms: C_1  and  C_2
REMARK    2  A    between atoms: C_2  and  C_4
REMARK    3  A    between atoms: C_5  and  C_6
REMARK    4  A    between atoms: C_8  and  C_9
REMARK    5  A    between atoms: C_9  and  C_11
REMARK    6  A    between atoms: C_11  and  O_12
REMARK    7  A    between atoms: O_12  and  C_13
REMARK    8  A    between atoms: C_13  and  C_15
REMARK    9  A    between atoms: C_20  and  N_21
REMARK   10  A    between atoms: C_22  and  C_23
REMARK                            x       y       z     vdW  Elec       q    Type
REMARK                         _______ _______ _______ _____ _____    ______ ____
ROOT
ATOM      1  C   UNL     1       7.367   4.998  16.914  0.00  0.00    +0.000 C 
ATOM      2  O   UNL     1       8.174   4.313  17.546  0.00  0.00    +0.000 OA
ENDROOT
BRANCH   1   7
ATOM      3  C   UNL     1       6.336   4.031  13.452  0.00  0.00    +0.000 A 
ATOM      4  C   UNL     1       7.328   4.980  13.238  0.00  0.00    +0.000 A 
ATOM      5  C   UNL     1       7.906   5.540  11.982  0.00  0.00    +0.000 C 
ATOM      6  N   UNL     1       7.776   5.414  14.460  0.00  0.00    +0.000 N 
ATOM      7  C   UNL     1       7.102   4.788  15.485  0.00  0.00    +0.000 A 
ATOM      8  C   UNL     1       6.171   3.935  14.886  0.00  0.00    +0.000 A 
ATOM      9  C   UNL     1       5.204   3.041  15.593  0.00  0.00    +0.000 C 
ATOM     10  H   UNL     1       8.513   6.097  14.570  0.00  0.00    +0.000 HD
BRANCH   3  12
ATOM     11  C   UNL     1       6.355   2.195  11.643  0.00  0.00    +0.000 C 
ATOM     12  C   UNL     1       5.639   3.300  12.375  0.00  0.00    +0.000 C 
ATOM     13  O   UNL     1       4.476   3.569  12.066  0.00  0.00    +0.000 OA
ENDBRANCH   3  12
ENDBRANCH   1   7
BRANCH   1  14
ATOM     14  C   UNL     1       6.640   6.152  17.620  0.00  0.00    +0.000 C 
BRANCH  14  15
ATOM     15  O   UNL     1       5.279   5.840  17.937  0.00  0.00    +0.000 OA
BRANCH  15  16
ATOM     16  C   UNL     1       5.126   4.974  18.975  0.00  0.00    +0.000 C 
ATOM     17  O   UNL     1       5.876   4.890  19.938  0.00  0.00    +0.000 OA
BRANCH  16  18
ATOM     18  C   UNL     1       3.914   4.130  18.769  0.00  0.00    +0.000 A 
ATOM     19  N   UNL     1       2.828   4.730  18.191  0.00  0.00    +0.000 NA
ATOM     20  C   UNL     1       1.766   3.923  17.988  0.00  0.00    +0.000 A 
ATOM     21  C   UNL     1       1.782   2.580  18.324  0.00  0.00    +0.000 A 
ATOM     22  N   UNL     1       2.859   1.982  18.883  0.00  0.00    +0.000 NA
ATOM     23  C   UNL     1       3.941   2.766  19.106  0.00  0.00    +0.000 A 
BRANCH  23  24
ATOM     24  N   UNL     1       4.983   2.132  19.771  0.00  0.00    +0.000 N 
ATOM     25  H   UNL     1       4.828   1.128  19.762  0.00  0.00    +0.000 HD
ATOM     26  H   UNL     1       5.903   2.418  19.440  0.00  0.00    +0.000 HD
ENDBRANCH  23  24
ENDBRANCH  16  18
ENDBRANCH  15  16
ENDBRANCH  14  15
ENDBRANCH   1  14
TORSDOF 7
ENDMDL
MODEL 3
REMARK VINA RESULT:      -7.4      2.002      6.488
REMARK  Name = 
REMARK  10 active torsions:
REMARK  status: ('A' for Active; 'I' for Inactive)
REMARK    1  A    between atoms: C_1  and  C_2
REMARK    2  A    between atoms: C_2  and  C_4
REMARK    3  A    between atoms: C_5  and  C_6
REMARK    4  A    between atoms: C_8  and  C_9
REMARK    5  A    between atoms: C_9  and  C_11
REMARK    6  A    between atoms: C_11  and  O_12
REMARK    7  A    between atoms: O_12  and  C_13
REMARK    8  A    between atoms: C_13  and  C_15
REMARK    9  A    between atoms: C_20  and  N_21
REMARK   10  A    between atoms: C_22  and  C_23
REMARK                            x       y       z     vdW  Elec       q    Type
REMARK                         _______ _______ _______ _____ _____    ______ ____
ROOT
ATOM      1  C   UNL     1       7.209   4.993  17.197  0.00  0.00    +0.000 C 
ATOM      2  O   UNL     1       8.050   4.360  17.840  0.00  0.00    +0.000 OA
ENDROOT
BRANCH   1   7
ATOM      3  C   UNL     1       6.304   4.072  13.687  0.00  0.00    +0.000 A 
ATOM      4  C   UNL     1       7.343   4.980  13.524  0.00  0.00    +0.000 A 
ATOM      5  C   UNL     1       8.001   5.518  12.297  0.00  0.00    +0.000 C 
ATOM      6  N   UNL     1       7.749   5.394  14.767  0.00  0.00    +0.000 N 
ATOM      7  C   UNL     1       7.004   4.795  15.757  0.00  0.00    +0.000 A 
ATOM      8  C   UNL     1       6.069   3.981  15.112  0.00  0.00    +0.000 A 
ATOM      9  C   UNL     1       5.034   3.126  15.770  0.00  0.00    +0.000 C 
ATOM     10  H   UNL     1       8.507   6.048  14.914  0.00  0.00    +0.000 HD
BRANCH   3  12
ATOM     11  C   UNL     1       6.375   2.315  11.803  0.00  0.00    +0.000 C 
ATOM     12  C   UNL     1       5.630   3.370  12.577  0.00  0.00    +0.000 C 
ATOM     13  O   UNL     1       4.462   3.624  12.273  0.00  0.00    +0.000 OA
ENDBRANCH   3  12
ENDBRANCH   1   7
BRANCH   1  14
ATOM     14  C   UNL     1       6.372   6.068  17.904  0.00  0.00    +0.000 C 
BRANCH  14  15
ATOM     15  O   UNL     1       5.535   5.533  18.936  0.00  0.00    +0.000 OA
BRANCH  15  16
ATOM     16  C   UNL     1       4.225   5.406  18.591  0.00  0.00    +0.000 C 
ATOM     17  O   UNL     1       3.707   5.905  17.601  0.00  0.00    +0.000 OA
BRANCH  16  18
ATOM     18  C   UNL     1       3.504   4.577  19.598  0.00  0.00    +0.000 A 
ATOM     19  N   UNL     1       2.382   5.121  20.164  0.00  0.00    +0.000 NA
ATOM     20  C   UNL     1       1.738   4.325  21.043  0.00  0.00    +0.000 A 
ATOM     21  C   UNL     1       2.171   3.043  21.336  0.00  0.00    +0.000 A 
ATOM     22  N   UNL     1       3.272   2.498  20.767  0.00  0.00    +0.000 NA
ATOM     23  C   UNL     1       3.945   3.275  19.885  0.00  0.00    +0.000 A 
BRANCH  23  24
ATOM     24  N   UNL     1       5.121   2.711  19.404  0.00  0.00    +0.000 N 
ATOM     25  H   UNL     1       5.284   1.823  19.870  0.00  0.00    +0.000 HD
ATOM     26  H   UNL     1       5.157   2.664  18.388  0.00  0.00    +0.000 HD
ENDBRANCH  23  24
ENDBRANCH  16  18
ENDBRANCH  15  16
ENDBRANCH  14  15
ENDBRANCH   1  14
TORSDOF 7
ENDMDL
MODEL 4
REMARK VINA RESULT:      -7.3      0.960      1.834
REMARK  Name = 
REMARK  10 active torsions:
REMARK  status: ('A' for Active; 'I' for Inactive)
REMARK    1  A    between atoms: C_1  and  C_2
REMARK    2  A    between atoms: C_2  and  C_4
REMARK    3  A    between atoms: C_5  and  C_6
REMARK    4  A    between atoms: C_8  and  C_9
REMARK    5  A    between atoms: C_9  and  C_11
REMARK    6  A    between atoms: C_11  and  O_12
REMARK    7  A    between atoms: O_12  and  C_13
REMARK    8  A    between atoms: C_13  and  C_15
REMARK    9  A    between atoms: C_20  and  N_21
REMARK   10  A    between atoms: C_22  and  C_23
REMARK                            x       y       z     vdW  Elec       q    Type
REMARK                         _______ _______ _______ _____ _____    ______ ____
ROOT
ATOM      1  C   UNL     1       6.721   5.097  18.912  0.00  0.00    +0.000 C 
ATOM      2  O   UNL     1       7.303   5.162  19.997  0.00  0.00    +0.000 OA
ENDROOT
BRANCH   1   7
ATOM      3  C   UNL     1       3.004   4.729  18.736  0.00  0.00    +0.000 A 
ATOM      4  C   UNL     1       3.218   6.034  18.311  0.00  0.00    +0.000 A 
ATOM      5  C   UNL     1       2.269   7.100  17.875  0.00  0.00    +0.000 C 
ATOM      6  N   UNL     1       4.567   6.280  18.347  0.00  0.00    +0.000 N 
ATOM      7  C   UNL     1       5.260   5.178  18.794  0.00  0.00    +0.000 A 
ATOM      8  C   UNL     1       4.306   4.196  19.074  0.00  0.00    +0.000 A 
ATOM      9  C   UNL     1       4.575   2.818  19.588  0.00  0.00    +0.000 C 
ATOM     10  H   UNL     1       4.978   7.161  18.067  0.00  0.00    +0.000 HD
BRANCH   3  12
ATOM     11  C   UNL     1       0.988   3.917  20.123  0.00  0.00    +0.000 C 
ATOM     12  C   UNL     1       1.679   4.080  18.794  0.00  0.00    +0.000 C 
ATOM     13  O   UNL     1       1.119   3.673  17.773  0.00  0.00    +0.000 OA
ENDBRANCH   3  12
ENDBRANCH   1   7
BRANCH   1  14
ATOM     14  C   UNL     1       7.537   4.871  17.631  0.00  0.00    +0.000 C 
BRANCH  14  15
ATOM     15  O   UNL     1       6.742   4.387  16.543  0.00  0.00    +0.000 OA
BRANCH  15  16
ATOM     16  C   UNL     1       6.489   5.310  15.575  0.00  0.00    +0.000 C 
ATOM     17  O   UNL     1       6.267   6.496  15.776  0.00  0.00    +0.000 OA
BRANCH  16  18
ATOM     18  C   UNL     1       6.511   4.667  14.230  0.00  0.00    +0.000 A 
ATOM     19  N   UNL     1       5.498   3.793  13.941  0.00  0.00    +0.000 NA
ATOM     20  C   UNL     1       5.534   3.262  12.700  0.00  0.00    +0.000 A 
ATOM     21  C   UNL     1       6.515   3.592  11.782  0.00  0.00    +0.000 A 
ATOM     22  N   UNL     1       7.510   4.467  12.061  0.00  0.00    +0.000 NA
ATOM     23  C   UNL     1       7.506   5.014  13.301  0.00  0.00    +0.000 A 
BRANCH  23  24
ATOM     24  N   UNL     1       8.600   5.826  13.574  0.00  0.00    +0.000 N 
ATOM     25  H   UNL     1       9.264   5.316  14.149  0.00  0.00    +0.000 HD
ATOM     26  H   UNL     1       9.006   6.246  12.739  0.00  0.00    +0.000 HD
ENDBRANCH  23  24
ENDBRANCH  16  18
ENDBRANCH  15  16
ENDBRANCH  14  15
ENDBRANCH   1  14
TORSDOF 7
ENDMDL
MODEL 5
REMARK VINA RESULT:      -7.2      1.932      6.541
REMARK  Name = 
REMARK  10 active torsions:
REMARK  status: ('A' for Active; 'I' for Inactive)
REMARK    1  A    between atoms: C_1  and  C_2
REMARK    2  A    between atoms: C_2  and  C_4
REMARK    3  A    between atoms: C_5  and  C_6
REMARK    4  A    between atoms: C_8  and  C_9
REMARK    5  A    between atoms: C_9  and  C_11
REMARK    6  A    between atoms: C_11  and  O_12
REMARK    7  A    between atoms: O_12  and  C_13
REMARK    8  A    between atoms: C_13  and  C_15
REMARK    9  A    between atoms: C_20  and  N_21
REMARK   10  A    between atoms: C_22  and  C_23
REMARK                            x       y       z     vdW  Elec       q    Type
REMARK                         _______ _______ _______ _____ _____    ______ ____
ROOT
ATOM      1  C   UNL     1       7.260   5.058  16.750  0.00  0.00    +0.000 C 
ATOM      2  O   UNL     1       8.112   4.455  17.406  0.00  0.00    +0.000 OA
ENDROOT
BRANCH   1   7
ATOM      3  C   UNL     1       6.384   3.973  13.279  0.00  0.00    +0.000 A 
ATOM      4  C   UNL     1       7.311   4.988  13.075  0.00  0.00    +0.000 A 
ATOM      5  C   UNL     1       7.877   5.572  11.823  0.00  0.00    +0.000 C 
ATOM      6  N   UNL     1       7.696   5.469  14.300  0.00  0.00    +0.000 N 
ATOM      7  C   UNL     1       7.045   4.810  15.318  0.00  0.00    +0.000 A 
ATOM      8  C   UNL     1       6.193   3.884  14.711  0.00  0.00    +0.000 A 
ATOM      9  C   UNL     1       5.276   2.931  15.408  0.00  0.00    +0.000 C 
ATOM     10  H   UNL     1       8.379   6.206  14.417  0.00  0.00    +0.000 HD
BRANCH   3  12
ATOM     11  C   UNL     1       4.364   3.494  11.752  0.00  0.00    +0.000 C 
ATOM     12  C   UNL     1       5.768   3.179  12.198  0.00  0.00    +0.000 C 
ATOM     13  O   UNL     1       6.382   2.264  11.644  0.00  0.00    +0.000 OA
ENDBRANCH   3  12
ENDBRANCH   1   7
BRANCH   1  14
ATOM     14  C   UNL     1       6.417   6.147  17.428  0.00  0.00    +0.000 C 
BRANCH  14  15
ATOM     15  O   UNL     1       5.180   5.650  17.949  0.00  0.00    +0.000 OA
BRANCH  15  16
ATOM     16  C   UNL     1       5.266   5.127  19.203  0.00  0.00    +0.000 C 
ATOM     17  O   UNL     1       6.271   5.136  19.901  0.00  0.00    +0.000 OA
BRANCH  16  18
ATOM     18  C   UNL     1       3.960   4.530  19.604  0.00  0.00    +0.000 A 
ATOM     19  N   UNL     1       2.901   5.386  19.747  0.00  0.00    +0.000 NA
ATOM     20  C   UNL     1       1.730   4.800  20.075  0.00  0.00    +0.000 A 
ATOM     21  C   UNL     1       1.606   3.432  20.237  0.00  0.00    +0.000 A 
ATOM     22  N   UNL     1       2.649   2.582  20.083  0.00  0.00    +0.000 NA
ATOM     23  C   UNL     1       3.841   3.138  19.760  0.00  0.00    +0.000 A 
BRANCH  23  24
ATOM     24  N   UNL     1       4.900   2.240  19.712  0.00  0.00    +0.000 N 
ATOM     25  H   UNL     1       4.612   1.357  20.123  0.00  0.00    +0.000 HD
ATOM     26  H   UNL     1       5.313   2.155  18.785  0.00  0.00    +0.000 HD
ENDBRANCH  23  24
ENDBRANCH  16  18
ENDBRANCH  15  16
ENDBRANCH  14  15
ENDBRANCH   1  14
TORSDOF 7
ENDMDL
MODEL 6
REMARK VINA RESULT:      -7.0      1.218      2.389
REMARK  Name = 
REMARK  10 active torsions:
REMARK  status: ('A' for Active; 'I' for Inactive)
REMARK    1  A    between atoms: C_1  and  C_2
REMARK    2  A    between atoms: C_2  and  C_4
REMARK    3  A    between atoms: C_5  and  C_6
REMARK    4  A    between atoms: C_8  and  C_9
REMARK    5  A    between atoms: C_9  and  C_11
REMARK    6  A    between atoms: C_11  and  O_12
REMARK    7  A    between atoms: O_12  and  C_13
REMARK    8  A    between atoms: C_13  and  C_15
REMARK    9  A    between atoms: C_20  and  N_21
REMARK   10  A    between atoms: C_22  and  C_23
REMARK                            x       y       z     vdW  Elec       q    Type
REMARK                         _______ _______ _______ _____ _____    ______ ____
ROOT
ATOM      1  C   UNL     1       6.608   5.052  19.025  0.00  0.00    +0.000 C 
ATOM      2  O   UNL     1       7.231   5.362  20.043  0.00  0.00    +0.000 OA
ENDROOT
BRANCH   1   7
ATOM      3  C   UNL     1       2.895   4.615  18.928  0.00  0.00    +0.000 A 
ATOM      4  C   UNL     1       3.073   5.941  18.555  0.00  0.00    +0.000 A 
ATOM      5  C   UNL     1       2.092   7.005  18.190  0.00  0.00    +0.000 C 
ATOM      6  N   UNL     1       4.417   6.214  18.567  0.00  0.00    +0.000 N 
ATOM      7  C   UNL     1       5.143   5.107  18.947  0.00  0.00    +0.000 A 
ATOM      8  C   UNL     1       4.216   4.095  19.209  0.00  0.00    +0.000 A 
ATOM      9  C   UNL     1       4.526   2.702  19.655  0.00  0.00    +0.000 C 
ATOM     10  H   UNL     1       4.803   7.114  18.315  0.00  0.00    +0.000 HD
BRANCH   3  12
ATOM     11  C   UNL     1       0.942   3.686  20.331  0.00  0.00    +0.000 C 
ATOM     12  C   UNL     1       1.586   3.936  18.992  0.00  0.00    +0.000 C 
ATOM     13  O   UNL     1       1.001   3.575  17.968  0.00  0.00    +0.000 OA
ENDBRANCH   3  12
ENDBRANCH   1   7
BRANCH   1  14
ATOM     14  C   UNL     1       7.377   4.538  17.798  0.00  0.00    +0.000 C 
BRANCH  14  15
ATOM     15  O   UNL     1       7.831   5.594  16.944  0.00  0.00    +0.000 OA
BRANCH  15  16
ATOM     16  C   UNL     1       6.874   6.104  16.121  0.00  0.00    +0.000 C 
ATOM     17  O   UNL     1       6.178   7.078  16.370  0.00  0.00    +0.000 OA
BRANCH  16  18
ATOM     18  C   UNL     1       6.787   5.298  14.869  0.00  0.00    +0.000 A 
ATOM     19  N   UNL     1       7.773   5.486  13.937  0.00  0.00    +0.000 NA
ATOM     20  C   UNL     1       7.677   4.712  12.836  0.00  0.00    +0.000 A 
ATOM     21  C   UNL     1       6.666   3.782  12.670  0.00  0.00    +0.000 A 
ATOM     22  N   UNL     1       5.699   3.584  13.597  0.00  0.00    +0.000 NA
ATOM     23  C   UNL     1       5.762   4.351  14.712  0.00  0.00    +0.000 A 
BRANCH  23  24
ATOM     24  N   UNL     1       4.694   4.183  15.585  0.00  0.00    +0.000 N 
ATOM     25  H   UNL     1       4.160   5.046  15.635  0.00  0.00    +0.000 HD
ATOM     26  H   UNL     1       4.135   3.357  15.382  0.00  0.00    +0.000 HD
ENDBRANCH  23  24
ENDBRANCH  16  18
ENDBRANCH  15  16
ENDBRANCH  14  15
ENDBRANCH   1  14
TORSDOF 7
ENDMDL
MODEL 7
REMARK VINA RESULT:      -7.0      1.452      1.898
REMARK  Name = 
REMARK  10 active torsions:
REMARK  status: ('A' for Active; 'I' for Inactive)
REMARK    1  A    between atoms: C_1  and  C_2
REMARK    2  A    between atoms: C_2  and  C_4
REMARK    3  A    between atoms: C_5  and  C_6
REMARK    4  A    between atoms: C_8  and  C_9
REMARK    5  A    between atoms: C_9  and  C_11
REMARK    6  A    between atoms: C_11  and  O_12
REMARK    7  A    between atoms: O_12  and  C_13
REMARK    8  A    between atoms: C_13  and  C_15
REMARK    9  A    between atoms: C_20  and  N_21
REMARK   10  A    between atoms: C_22  and  C_23
REMARK                            x       y       z     vdW  Elec       q    Type
REMARK                         _______ _______ _______ _____ _____    ______ ____
ROOT
ATOM      1  C   UNL     1       4.920   6.403  16.754  0.00  0.00    +0.000 C 
ATOM      2  O   UNL     1       4.404   7.099  15.875  0.00  0.00    +0.000 OA
ENDROOT
BRANCH   1   7
ATOM      3  C   UNL     1       2.836   4.204  18.946  0.00  0.00    +0.000 A 
ATOM      4  C   UNL     1       3.500   3.302  18.124  0.00  0.00    +0.000 A 
ATOM      5  C   UNL     1       3.458   1.812  18.055  0.00  0.00    +0.000 C 
ATOM      6  N   UNL     1       4.296   4.013  17.263  0.00  0.00    +0.000 N 
ATOM      7  C   UNL     1       4.175   5.368  17.480  0.00  0.00    +0.000 A 
ATOM      8  C   UNL     1       3.244   5.522  18.511  0.00  0.00    +0.000 A 
ATOM      9  C   UNL     1       2.780   6.815  19.100  0.00  0.00    +0.000 C 
ATOM     10  H   UNL     1       4.894   3.579  16.572  0.00  0.00    +0.000 HD
BRANCH   3  12
ATOM     11  C   UNL     1       2.475   3.211  21.297  0.00  0.00    +0.000 C 
ATOM     12  C   UNL     1       1.918   3.817  20.036  0.00  0.00    +0.000 C 
ATOM     13  O   UNL     1       0.700   3.986  19.939  0.00  0.00    +0.000 OA
ENDBRANCH   3  12
ENDBRANCH   1   7
BRANCH   1  14
ATOM     14  C   UNL     1       6.382   6.652  17.150  0.00  0.00    +0.000 C 
BRANCH  14  15
ATOM     15  O   UNL     1       7.306   6.322  16.106  0.00  0.00    +0.000 OA
BRANCH  15  16
ATOM     16  C   UNL     1       7.514   4.987  15.939  0.00  0.00    +0.000 C 
ATOM     17  O   UNL     1       7.999   4.240  16.778  0.00  0.00    +0.000 OA
BRANCH  16  18
ATOM     18  C   UNL     1       7.077   4.563  14.578  0.00  0.00    +0.000 A 
ATOM     19  N   UNL     1       6.019   3.697  14.506  0.00  0.00    +0.000 NA
ATOM     20  C   UNL     1       5.631   3.367  13.256  0.00  0.00    +0.000 A 
ATOM     21  C   UNL     1       6.248   3.882  12.129  0.00  0.00    +0.000 A 
ATOM     22  N   UNL     1       7.286   4.749  12.199  0.00  0.00    +0.000 NA
ATOM     23  C   UNL     1       7.704   5.096  13.439  0.00  0.00    +0.000 A 
BRANCH  23  24
ATOM     24  N   UNL     1       8.832   5.906  13.460  0.00  0.00    +0.000 N 
ATOM     25  H   UNL     1       8.710   6.671  12.802  0.00  0.00    +0.000 HD
ATOM     26  H   UNL     1       9.099   6.199  14.398  0.00  0.00    +0.000 HD
ENDBRANCH  23  24
ENDBRANCH  16  18
ENDBRANCH  15  16
ENDBRANCH  14  15
ENDBRANCH   1  14
TORSDOF 7
ENDMDL
MODEL 8
REMARK VINA RESULT:      -7.0      1.708      2.430
REMARK  Name = 
REMARK  10 active torsions:
REMARK  status: ('A' for Active; 'I' for Inactive)
REMARK    1  A    between atoms: C_1  and  C_2
REMARK    2  A    between atoms: C_2  and  C_4
REMARK    3  A    between atoms: C_5  and  C_6
REMARK    4  A    between atoms: C_8  and  C_9
REMARK    5  A    between atoms: C_9  and  C_11
REMARK    6  A    between atoms: C_11  and  O_12
REMARK    7  A    between atoms: O_12  and  C_13
REMARK    8  A    between atoms: C_13  and  C_15
REMARK    9  A    between atoms: C_20  and  N_21
REMARK   10  A    between atoms: C_22  and  C_23
REMARK                            x       y       z     vdW  Elec       q    Type
REMARK                         _______ _______ _______ _____ _____    ______ ____
ROOT
ATOM      1  C   UNL     1       5.012   6.402  17.628  0.00  0.00    +0.000 C 
ATOM      2  O   UNL     1       4.339   7.088  16.856  0.00  0.00    +0.000 OA
ENDROOT
BRANCH   1   7
ATOM      3  C   UNL     1       3.128   4.135  19.931  0.00  0.00    +0.000 A 
ATOM      4  C   UNL     1       4.208   3.359  19.529  0.00  0.00    +0.000 A 
ATOM      5  C   UNL     1       4.603   1.962  19.872  0.00  0.00    +0.000 C 
ATOM      6  N   UNL     1       4.969   4.102  18.662  0.00  0.00    +0.000 N 
ATOM      7  C   UNL     1       4.423   5.350  18.467  0.00  0.00    +0.000 A 
ATOM      8  C   UNL     1       3.251   5.393  19.227  0.00  0.00    +0.000 A 
ATOM      9  C   UNL     1       2.307   6.548  19.337  0.00  0.00    +0.000 C 
ATOM     10  H   UNL     1       5.823   3.760  18.241  0.00  0.00    +0.000 HD
BRANCH   3  12
ATOM     11  C   UNL     1       0.745   3.275  20.404  0.00  0.00    +0.000 C 
ATOM     12  C   UNL     1       2.104   3.697  20.900  0.00  0.00    +0.000 C 
ATOM     13  O   UNL     1       2.339   3.661  22.110  0.00  0.00    +0.000 OA
ENDBRANCH   3  12
ENDBRANCH   1   7
BRANCH   1  14
ATOM     14  C   UNL     1       6.516   6.678  17.768  0.00  0.00    +0.000 C 
BRANCH  14  15
ATOM     15  O   UNL     1       7.237   6.459  16.550  0.00  0.00    +0.000 OA
BRANCH  15  16
ATOM     16  C   UNL     1       7.496   5.151  16.276  0.00  0.00    +0.000 C 
ATOM     17  O   UNL     1       7.905   4.330  17.086  0.00  0.00    +0.000 OA
BRANCH  16  18
ATOM     18  C   UNL     1       7.221   4.860  14.840  0.00  0.00    +0.000 A 
ATOM     19  N   UNL     1       8.012   5.488  13.915  0.00  0.00    +0.000 NA
ATOM     20  C   UNL     1       7.754   5.169  12.629  0.00  0.00    +0.000 A 
ATOM     21  C   UNL     1       6.775   4.259  12.273  0.00  0.00    +0.000 A 
ATOM     22  N   UNL     1       6.001   3.627  13.187  0.00  0.00    +0.000 NA
ATOM     23  C   UNL     1       6.230   3.930  14.488  0.00  0.00    +0.000 A 
BRANCH  23  24
ATOM     24  N   UNL     1       5.347   3.333  15.380  0.00  0.00    +0.000 N 
ATOM     25  H   UNL     1       5.771   3.299  16.302  0.00  0.00    +0.000 HD
ATOM     26  H   UNL     1       4.417   3.748  15.361  0.00  0.00    +0.000 HD
ENDBRANCH  23  24
ENDBRANCH  16  18
ENDBRANCH  15  16
ENDBRANCH  14  15
ENDBRANCH   1  14
TORSDOF 7
ENDMDL
MODEL 9
REMARK VINA RESULT:      -7.0      2.054      6.424
REMARK  Name = 
REMARK  10 active torsions:
REMARK  status: ('A' for Active; 'I' for Inactive)
REMARK    1  A    between atoms: C_1  and  C_2
REMARK    2  A    between atoms: C_2  and  C_4
REMARK    3  A    between atoms: C_5  and  C_6
REMARK    4  A    between atoms: C_8  and  C_9
REMARK    5  A    between atoms: C_9  and  C_11
REMARK    6  A    between atoms: C_11  and  O_12
REMARK    7  A    between atoms: O_12  and  C_13
REMARK    8  A    between atoms: C_13  and  C_15
REMARK    9  A    between atoms: C_20  and  N_21
REMARK   10  A    between atoms: C_22  and  C_23
REMARK                            x       y       z     vdW  Elec       q    Type
REMARK                         _______ _______ _______ _____ _____    ______ ____
ROOT
ATOM      1  C   UNL     1       7.333   5.046  16.794  0.00  0.00    +0.000 C 
ATOM      2  O   UNL     1       8.137   4.381  17.451  0.00  0.00    +0.000 OA
ENDROOT
BRANCH   1   7
ATOM      3  C   UNL     1       6.391   4.001  13.329  0.00  0.00    +0.000 A 
ATOM      4  C   UNL     1       7.343   4.991  13.118  0.00  0.00    +0.000 A 
ATOM      5  C   UNL     1       7.911   5.565  11.863  0.00  0.00    +0.000 C 
ATOM      6  N   UNL     1       7.754   5.457  14.341  0.00  0.00    +0.000 N 
ATOM      7  C   UNL     1       7.097   4.811  15.364  0.00  0.00    +0.000 A 
ATOM      8  C   UNL     1       6.213   3.911  14.762  0.00  0.00    +0.000 A 
ATOM      9  C   UNL     1       5.278   2.980  15.465  0.00  0.00    +0.000 C 
ATOM     10  H   UNL     1       8.458   6.174  14.454  0.00  0.00    +0.000 HD
BRANCH   3  12
ATOM     11  C   UNL     1       4.356   3.605  11.798  0.00  0.00    +0.000 C 
ATOM     12  C   UNL     1       5.742   3.228  12.251  0.00  0.00    +0.000 C 
ATOM     13  O   UNL     1       6.315   2.282  11.706  0.00  0.00    +0.000 OA
ENDBRANCH   3  12
ENDBRANCH   1   7
BRANCH   1  14
ATOM     14  C   UNL     1       6.580   6.201  17.469  0.00  0.00    +0.000 C 
BRANCH  14  15
ATOM     15  O   UNL     1       5.306   5.806  17.991  0.00  0.00    +0.000 OA
BRANCH  15  16
ATOM     16  C   UNL     1       5.368   5.098  19.151  0.00  0.00    +0.000 C 
ATOM     17  O   UNL     1       6.307   5.112  19.936  0.00  0.00    +0.000 OA
BRANCH  16  18
ATOM     18  C   UNL     1       4.128   4.289  19.329  0.00  0.00    +0.000 A 
ATOM     19  N   UNL     1       4.209   2.953  19.036  0.00  0.00    +0.000 NA
ATOM     20  C   UNL     1       3.075   2.250  19.246  0.00  0.00    +0.000 A 
ATOM     21  C   UNL     1       1.922   2.835  19.738  0.00  0.00    +0.000 A 
ATOM     22  N   UNL     1       1.844   4.152  20.040  0.00  0.00    +0.000 NA
ATOM     23  C   UNL     1       2.963   4.888  19.835  0.00  0.00    +0.000 A 
BRANCH  23  24
ATOM     24  N   UNL     1       2.805   6.249  20.064  0.00  0.00    +0.000 N 
ATOM     25  H   UNL     1       3.303   6.772  19.349  0.00  0.00    +0.000 HD
ATOM     26  H   UNL     1       1.832   6.526  20.184  0.00  0.00    +0.000 HD
ENDBRANCH  23  24
ENDBRANCH  16  18
ENDBRANCH  15  16
ENDBRANCH  14  15
ENDBRANCH   1  14
TORSDOF 7
ENDMDL
