MODEL 1
REMARK VINA RESULT:      -6.0      0.000      0.000
REMARK  Name = 
REMARK  9 active torsions:
REMARK  status: ('A' for Active; 'I' for Inactive)
REMARK    1  A    between atoms: C_1  and  O_2
REMARK    2  A    between atoms: O_2  and  C_3
REMARK    3  A    between atoms: C_3  and  C_4
REMARK    4  A    between atoms: C_4  and  O_5
REMARK    5  A    between atoms: O_5  and  C_6
REMARK    6  A    between atoms: C_6  and  C_7
REMARK    7  A    between atoms: N_9  and  C_10
REMARK    8  A    between atoms: C_10  and  C_11
REMARK    9  A    between atoms: C_10  and  C_12
REMARK                            x       y       z     vdW  Elec       q    Type
REMARK                         _______ _______ _______ _____ _____    ______ ____
ROOT
ATOM      1  C   UNL     1       5.912   4.668  17.652  0.00  0.00    +0.000 C 
ATOM      2  O   UNL     1       6.409   4.664  18.770  0.00  0.00    +0.000 OA
ATOM      3  N   UNL     1       4.700   5.252  17.347  0.00  0.00    +0.000 N 
ATOM      4  H   UNL     1       4.285   5.042  16.448  0.00  0.00    +0.000 HD
ENDROOT
BRANCH   3   5
ATOM      5  C   UNL     1       3.900   5.917  18.359  0.00  0.00    +0.000 C 
ATOM      6  C   UNL     1       3.312   7.220  17.819  0.00  0.00    +0.000 C 
BRANCH   5   7
ATOM      7  C   UNL     1       2.814   4.998  18.882  0.00  0.00    +0.000 A 
ATOM      8  C   UNL     1       2.226   4.058  18.024  0.00  0.00    +0.000 A 
ATOM      9  C   UNL     1       1.220   3.207  18.484  0.00  0.00    +0.000 A 
ATOM     10  C   UNL     1       0.788   3.289  19.805  0.00  0.00    +0.000 A 
ATOM     11  C   UNL     1       1.364   4.217  20.670  0.00  0.00    +0.000 A 
ATOM     12  C   UNL     1       2.371   5.068  20.212  0.00  0.00    +0.000 A 
ENDBRANCH   5   7
ENDBRANCH   3   5
BRANCH   1  13
ATOM     13  C   UNL     1       6.632   4.079  16.436  0.00  0.00    +0.000 C 
BRANCH  13  14
ATOM     14  O   UNL     1       7.377   5.047  15.700  0.00  0.00    +0.000 OA
BRANCH  14  15
ATOM     15  C   UNL     1       7.008   5.060  14.316  0.00  0.00    +0.000 C 
BRANCH  15  16
ATOM     16  C   UNL     1       6.019   3.932  14.051  0.00  0.00    +0.000 C 
BRANCH  16  18
ATOM     17  C   UNL     1       7.173   4.183  12.019  0.00  0.00    +0.000 C 
ATOM     18  O   UNL     1       6.254   3.387  12.754  0.00  0.00    +0.000 OA
ENDBRANCH  16  18
ENDBRANCH  15  16
ENDBRANCH  14  15
ENDBRANCH  13  14
ENDBRANCH   1  13
TORSDOF 7
ENDMDL
MODEL 2
REMARK VINA RESULT:      -6.0      1.587      2.245
REMARK  Name = 
REMARK  9 active torsions:
REMARK  status: ('A' for Active; 'I' for Inactive)
REMARK    1  A    between atoms: C_1  and  O_2
REMARK    2  A    between atoms: O_2  and  C_3
REMARK    3  A    between atoms: C_3  and  C_4
REMARK    4  A    between atoms: C_4  and  O_5
REMARK    5  A    between atoms: O_5  and  C_6
REMARK    6  A    between atoms: C_6  and  C_7
REMARK    7  A    between atoms: N_9  and  C_10
REMARK    8  A    between atoms: C_10  and  C_11
REMARK    9  A    between atoms: C_10  and  C_12
REMARK                            x       y       z     vdW  Elec       q    Type
REMARK                         _______ _______ _______ _____ _____    ______ ____
ROOT
ATOM      1  C   UNL     1       6.881   4.421  16.109  0.00  0.00    +0.000 C 
ATOM      2  O   UNL     1       7.863   4.404  16.841  0.00  0.00    +0.000 OA
ATOM      3  N   UNL     1       5.579   4.369  16.560  0.00  0.00    +0.000 N 
ATOM      4  H   UNL     1       4.848   4.199  15.882  0.00  0.00    +0.000 HD
ENDROOT
BRANCH   3   5
ATOM      5  C   UNL     1       5.268   4.281  17.975  0.00  0.00    +0.000 C 
ATOM      6  C   UNL     1       5.444   5.638  18.657  0.00  0.00    +0.000 C 
BRANCH   5   7
ATOM      7  C   UNL     1       3.870   3.734  18.190  0.00  0.00    +0.000 A 
ATOM      8  C   UNL     1       2.759   4.492  17.794  0.00  0.00    +0.000 A 
ATOM      9  C   UNL     1       1.464   4.009  17.988  0.00  0.00    +0.000 A 
ATOM     10  C   UNL     1       1.265   2.767  18.585  0.00  0.00    +0.000 A 
ATOM     11  C   UNL     1       2.360   2.002  18.982  0.00  0.00    +0.000 A 
ATOM     12  C   UNL     1       3.656   2.483  18.787  0.00  0.00    +0.000 A 
ENDBRANCH   5   7
ENDBRANCH   3   5
BRANCH   1  13
ATOM     13  C   UNL     1       6.998   4.581  14.591  0.00  0.00    +0.000 C 
BRANCH  13  14
ATOM     14  O   UNL     1       6.017   3.839  13.869  0.00  0.00    +0.000 OA
BRANCH  14  15
ATOM     15  C   UNL     1       6.406   3.630  12.507  0.00  0.00    +0.000 C 
BRANCH  15  16
ATOM     16  C   UNL     1       5.254   2.981  11.751  0.00  0.00    +0.000 C 
BRANCH  16  18
ATOM     17  C   UNL     1       7.001   1.562  11.073  0.00  0.00    +0.000 C 
ATOM     18  O   UNL     1       5.616   1.653  11.379  0.00  0.00    +0.000 OA
ENDBRANCH  16  18
ENDBRANCH  15  16
ENDBRANCH  14  15
ENDBRANCH  13  14
ENDBRANCH   1  13
TORSDOF 7
ENDMDL
MODEL 3
REMARK VINA RESULT:      -6.0      0.835      1.525
REMARK  Name = 
REMARK  9 active torsions:
REMARK  status: ('A' for Active; 'I' for Inactive)
REMARK    1  A    between atoms: C_1  and  O_2
REMARK    2  A    between atoms: O_2  and  C_3
REMARK    3  A    between atoms: C_3  and  C_4
REMARK    4  A    between atoms: C_4  and  O_5
REMARK    5  A    between atoms: O_5  and  C_6
REMARK    6  A    between atoms: C_6  and  C_7
REMARK    7  A    between atoms: N_9  and  C_10
REMARK    8  A    between atoms: C_10  and  C_11
REMARK    9  A    between atoms: C_10  and  C_12
REMARK                            x       y       z     vdW  Elec       q    Type
REMARK                         _______ _______ _______ _____ _____    ______ ____
ROOT
ATOM      1  C   UNL     1       5.718   4.850  17.940  0.00  0.00    +0.000 C 
ATOM      2  O   UNL     1       6.060   4.652  19.099  0.00  0.00    +0.000 OA
ATOM      3  N   UNL     1       4.564   5.514  17.577  0.00  0.00    +0.000 N 
ATOM      4  H   UNL     1       4.273   5.464  16.610  0.00  0.00    +0.000 HD
ENDROOT
BRANCH   3   5
ATOM      5  C   UNL     1       3.643   6.036  18.571  0.00  0.00    +0.000 C 
ATOM      6  C   UNL     1       2.939   7.291  18.055  0.00  0.00    +0.000 C 
BRANCH   5   7
ATOM      7  C   UNL     1       2.643   4.976  18.991  0.00  0.00    +0.000 A 
ATOM      8  C   UNL     1       2.280   4.859  20.340  0.00  0.00    +0.000 A 
ATOM      9  C   UNL     1       1.365   3.887  20.747  0.00  0.00    +0.000 A 
ATOM     10  C   UNL     1       0.809   3.018  19.813  0.00  0.00    +0.000 A 
ATOM     11  C   UNL     1       1.159   3.123  18.469  0.00  0.00    +0.000 A 
ATOM     12  C   UNL     1       2.072   4.097  18.059  0.00  0.00    +0.000 A 
ENDBRANCH   5   7
ENDBRANCH   3   5
BRANCH   1  13
ATOM     13  C   UNL     1       6.589   4.440  16.750  0.00  0.00    +0.000 C 
BRANCH  13  14
ATOM     14  O   UNL     1       5.918   3.579  15.832  0.00  0.00    +0.000 OA
BRANCH  14  15
ATOM     15  C   UNL     1       6.244   3.894  14.474  0.00  0.00    +0.000 C 
BRANCH  15  16
ATOM     16  C   UNL     1       7.281   5.010  14.454  0.00  0.00    +0.000 C 
BRANCH  16  18
ATOM     17  C   UNL     1       7.136   4.336  12.207  0.00  0.00    +0.000 C 
ATOM     18  O   UNL     1       7.613   5.329  13.105  0.00  0.00    +0.000 OA
ENDBRANCH  16  18
ENDBRANCH  15  16
ENDBRANCH  14  15
ENDBRANCH  13  14
ENDBRANCH   1  13
TORSDOF 7
ENDMDL
MODEL 4
REMARK VINA RESULT:      -5.9      2.637      6.431
REMARK  Name = 
REMARK  9 active torsions:
REMARK  status: ('A' for Active; 'I' for Inactive)
REMARK    1  A    between atoms: C_1  and  O_2
REMARK    2  A    between atoms: O_2  and  C_3
REMARK    3  A    between atoms: C_3  and  C_4
REMARK    4  A    between atoms: C_4  and  O_5
REMARK    5  A    between atoms: O_5  and  C_6
REMARK    6  A    between atoms: C_6  and  C_7
REMARK    7  A    between atoms: N_9  and  C_10
REMARK    8  A    between atoms: C_10  and  C_11
REMARK    9  A    between atoms: C_10  and  C_12
REMARK                            x       y       z     vdW  Elec       q    Type
REMARK                         _______ _______ _______ _____ _____    ______ ____
ROOT
ATOM      1  C   UNL     1       3.472   3.467  17.413  0.00  0.00    +0.000 C 
ATOM      2  O   UNL     1       3.946   2.396  17.771  0.00  0.00    +0.000 OA
ATOM      3  N   UNL     1       4.180   4.440  16.739  0.00  0.00    +0.000 N 
ATOM      4  H   UNL     1       3.762   5.357  16.654  0.00  0.00    +0.000 HD
ENDROOT
BRANCH   3   5
ATOM      5  C   UNL     1       5.580   4.263  16.400  0.00  0.00    +0.000 C 
ATOM      6  C   UNL     1       5.801   4.424  14.896  0.00  0.00    +0.000 C 
BRANCH   5   7
ATOM      7  C   UNL     1       6.453   5.219  17.190  0.00  0.00    +0.000 A 
ATOM      8  C   UNL     1       6.685   6.514  16.702  0.00  0.00    +0.000 A 
ATOM      9  C   UNL     1       7.490   7.406  17.411  0.00  0.00    +0.000 A 
ATOM     10  C   UNL     1       8.077   7.014  18.610  0.00  0.00    +0.000 A 
ATOM     11  C   UNL     1       7.856   5.732  19.107  0.00  0.00    +0.000 A 
ATOM     12  C   UNL     1       7.049   4.838  18.401  0.00  0.00    +0.000 A 
ENDBRANCH   5   7
ENDBRANCH   3   5
BRANCH   1  13
ATOM     13  C   UNL     1       1.994   3.813  17.615  0.00  0.00    +0.000 C 
BRANCH  13  14
ATOM     14  O   UNL     1       1.230   2.732  18.146  0.00  0.00    +0.000 OA
BRANCH  14  15
ATOM     15  C   UNL     1       0.726   3.031  19.452  0.00  0.00    +0.000 C 
BRANCH  15  16
ATOM     16  C   UNL     1       1.706   2.516  20.497  0.00  0.00    +0.000 C 
BRANCH  16  18
ATOM     17  C   UNL     1       2.248   4.731  21.067  0.00  0.00    +0.000 C 
ATOM     18  O   UNL     1       1.820   3.467  21.555  0.00  0.00    +0.000 OA
ENDBRANCH  16  18
ENDBRANCH  15  16
ENDBRANCH  14  15
ENDBRANCH  13  14
ENDBRANCH   1  13
TORSDOF 7
ENDMDL
MODEL 5
REMARK VINA RESULT:      -5.9      0.757      1.436
REMARK  Name = 
REMARK  9 active torsions:
REMARK  status: ('A' for Active; 'I' for Inactive)
REMARK    1  A    between atoms: C_1  and  O_2
REMARK    2  A    between atoms: O_2  and  C_3
REMARK    3  A    between atoms: C_3  and  C_4
REMARK    4  A    between atoms: C_4  and  O_5
REMARK    5  A    between atoms: O_5  and  C_6
REMARK    6  A    between atoms: C_6  and  C_7
REMARK    7  A    between atoms: N_9  and  C_10
REMARK    8  A    between atoms: C_10  and  C_11
REMARK    9  A    between atoms: C_10  and  C_12
REMARK                            x       y       z     vdW  Elec       q    Type
REMARK                         _______ _______ _______ _____ _____    ______ ____
ROOT
ATOM      1  C   UNL     1       5.884   4.821  17.805  0.00  0.00    +0.000 C 
ATOM      2  O   UNL     1       6.325   4.760  18.946  0.00  0.00    +0.000 OA
ATOM      3  N   UNL     1       4.659   5.362  17.477  0.00  0.00    +0.000 N 
ATOM      4  H   UNL     1       4.303   5.199  16.545  0.00  0.00    +0.000 HD
ENDROOT
BRANCH   3   5
ATOM      5  C   UNL     1       3.774   5.909  18.489  0.00  0.00    +0.000 C 
ATOM      6  C   UNL     1       3.138   7.214  18.010  0.00  0.00    +0.000 C 
BRANCH   5   7
ATOM      7  C   UNL     1       2.718   4.897  18.890  0.00  0.00    +0.000 A 
ATOM      8  C   UNL     1       2.135   4.968  20.163  0.00  0.00    +0.000 A 
ATOM      9  C   UNL     1       1.165   4.042  20.552  0.00  0.00    +0.000 A 
ATOM     10  C   UNL     1       0.774   3.033  19.677  0.00  0.00    +0.000 A 
ATOM     11  C   UNL     1       1.344   2.951  18.409  0.00  0.00    +0.000 A 
ATOM     12  C   UNL     1       2.312   3.877  18.016  0.00  0.00    +0.000 A 
ENDBRANCH   5   7
ENDBRANCH   3   5
BRANCH   1  13
ATOM     13  C   UNL     1       6.696   4.362  16.591  0.00  0.00    +0.000 C 
BRANCH  13  14
ATOM     14  O   UNL     1       6.282   4.975  15.372  0.00  0.00    +0.000 OA
BRANCH  14  15
ATOM     15  C   UNL     1       5.882   4.004  14.399  0.00  0.00    +0.000 C 
BRANCH  15  16
ATOM     16  C   UNL     1       6.719   4.183  13.139  0.00  0.00    +0.000 C 
BRANCH  16  18
ATOM     17  C   UNL     1       4.951   3.253  11.901  0.00  0.00    +0.000 C 
ATOM     18  O   UNL     1       6.344   3.202  12.174  0.00  0.00    +0.000 OA
ENDBRANCH  16  18
ENDBRANCH  15  16
ENDBRANCH  14  15
ENDBRANCH  13  14
ENDBRANCH   1  13
TORSDOF 7
ENDMDL
MODEL 6
REMARK VINA RESULT:      -5.8      2.689      6.342
REMARK  Name = 
REMARK  9 active torsions:
REMARK  status: ('A' for Active; 'I' for Inactive)
REMARK    1  A    between atoms: C_1  and  O_2
REMARK    2  A    between atoms: O_2  and  C_3
REMARK    3  A    between atoms: C_3  and  C_4
REMARK    4  A    between atoms: C_4  and  O_5
REMARK    5  A    between atoms: O_5  and  C_6
REMARK    6  A    between atoms: C_6  and  C_7
REMARK    7  A    between atoms: N_9  and  C_10
REMARK    8  A    between atoms: C_10  and  C_11
REMARK    9  A    between atoms: C_10  and  C_12
REMARK                            x       y       z     vdW  Elec       q    Type
REMARK                         _______ _______ _______ _____ _____    ______ ____
ROOT
ATOM      1  C   UNL     1       4.172   3.775  17.149  0.00  0.00    +0.000 C 
ATOM      2  O   UNL     1       3.832   4.948  17.054  0.00  0.00    +0.000 OA
ATOM      3  N   UNL     1       5.356   3.270  16.653  0.00  0.00    +0.000 N 
ATOM      4  H   UNL     1       5.462   2.265  16.611  0.00  0.00    +0.000 HD
ENDROOT
BRANCH   3   5
ATOM      5  C   UNL     1       6.309   4.115  15.957  0.00  0.00    +0.000 C 
ATOM      6  C   UNL     1       5.656   4.799  14.757  0.00  0.00    +0.000 C 
BRANCH   5   7
ATOM      7  C   UNL     1       6.925   5.129  16.901  0.00  0.00    +0.000 A 
ATOM      8  C   UNL     1       7.492   4.699  18.110  0.00  0.00    +0.000 A 
ATOM      9  C   UNL     1       8.058   5.617  18.995  0.00  0.00    +0.000 A 
ATOM     10  C   UNL     1       8.058   6.975  18.686  0.00  0.00    +0.000 A 
ATOM     11  C   UNL     1       7.500   7.416  17.489  0.00  0.00    +0.000 A 
ATOM     12  C   UNL     1       6.935   6.499  16.601  0.00  0.00    +0.000 A 
ENDBRANCH   5   7
ENDBRANCH   3   5
BRANCH   1  13
ATOM     13  C   UNL     1       3.336   2.742  17.909  0.00  0.00    +0.000 C 
BRANCH  13  14
ATOM     14  O   UNL     1       1.960   2.742  17.530  0.00  0.00    +0.000 OA
BRANCH  14  15
ATOM     15  C   UNL     1       1.111   2.356  18.617  0.00  0.00    +0.000 C 
BRANCH  15  16
ATOM     16  C   UNL     1       1.902   2.420  19.917  0.00  0.00    +0.000 C 
BRANCH  16  18
ATOM     17  C   UNL     1       1.343   4.602  20.590  0.00  0.00    +0.000 C 
ATOM     18  O   UNL     1       1.195   3.216  20.867  0.00  0.00    +0.000 OA
ENDBRANCH  16  18
ENDBRANCH  15  16
ENDBRANCH  14  15
ENDBRANCH  13  14
ENDBRANCH   1  13
TORSDOF 7
ENDMDL
MODEL 7
REMARK VINA RESULT:      -5.8      2.130      3.681
REMARK  Name = 
REMARK  9 active torsions:
REMARK  status: ('A' for Active; 'I' for Inactive)
REMARK    1  A    between atoms: C_1  and  O_2
REMARK    2  A    between atoms: O_2  and  C_3
REMARK    3  A    between atoms: C_3  and  C_4
REMARK    4  A    between atoms: C_4  and  O_5
REMARK    5  A    between atoms: O_5  and  C_6
REMARK    6  A    between atoms: C_6  and  C_7
REMARK    7  A    between atoms: N_9  and  C_10
REMARK    8  A    between atoms: C_10  and  C_11
REMARK    9  A    between atoms: C_10  and  C_12
REMARK                            x       y       z     vdW  Elec       q    Type
REMARK                         _______ _______ _______ _____ _____    ______ ____
ROOT
ATOM      1  C   UNL     1       5.725   4.103  16.854  0.00  0.00    +0.000 C 
ATOM      2  O   UNL     1       5.160   4.266  15.780  0.00  0.00    +0.000 OA
ATOM      3  N   UNL     1       5.134   3.524  17.958  0.00  0.00    +0.000 N 
ATOM      4  H   UNL     1       5.610   3.604  18.847  0.00  0.00    +0.000 HD
ENDROOT
BRANCH   3   5
ATOM      5  C   UNL     1       3.760   3.058  17.928  0.00  0.00    +0.000 C 
ATOM      6  C   UNL     1       3.686   1.561  18.230  0.00  0.00    +0.000 C 
BRANCH   5   7
ATOM      7  C   UNL     1       2.896   3.856  18.885  0.00  0.00    +0.000 A 
ATOM      8  C   UNL     1       1.896   3.208  19.624  0.00  0.00    +0.000 A 
ATOM      9  C   UNL     1       1.086   3.925  20.505  0.00  0.00    +0.000 A 
ATOM     10  C   UNL     1       1.262   5.299  20.653  0.00  0.00    +0.000 A 
ATOM     11  C   UNL     1       2.252   5.956  19.926  0.00  0.00    +0.000 A 
ATOM     12  C   UNL     1       3.065   5.239  19.045  0.00  0.00    +0.000 A 
ENDBRANCH   5   7
ENDBRANCH   3   5
BRANCH   1  13
ATOM     13  C   UNL     1       7.197   4.465  17.066  0.00  0.00    +0.000 C 
BRANCH  13  14
ATOM     14  O   UNL     1       7.500   4.826  18.412  0.00  0.00    +0.000 OA
BRANCH  14  15
ATOM     15  C   UNL     1       7.694   6.238  18.552  0.00  0.00    +0.000 C 
BRANCH  15  16
ATOM     16  C   UNL     1       7.041   6.951  17.375  0.00  0.00    +0.000 C 
BRANCH  16  18
ATOM     17  C   UNL     1       8.369   8.669  18.275  0.00  0.00    +0.000 C 
ATOM     18  O   UNL     1       7.741   8.164  17.105  0.00  0.00    +0.000 OA
ENDBRANCH  16  18
ENDBRANCH  15  16
ENDBRANCH  14  15
ENDBRANCH  13  14
ENDBRANCH   1  13
TORSDOF 7
ENDMDL
MODEL 8
REMARK VINA RESULT:      -5.7      1.566      2.175
REMARK  Name = 
REMARK  9 active torsions:
REMARK  status: ('A' for Active; 'I' for Inactive)
REMARK    1  A    between atoms: C_1  and  O_2
REMARK    2  A    between atoms: O_2  and  C_3
REMARK    3  A    between atoms: C_3  and  C_4
REMARK    4  A    between atoms: C_4  and  O_5
REMARK    5  A    between atoms: O_5  and  C_6
REMARK    6  A    between atoms: C_6  and  C_7
REMARK    7  A    between atoms: N_9  and  C_10
REMARK    8  A    between atoms: C_10  and  C_11
REMARK    9  A    between atoms: C_10  and  C_12
REMARK                            x       y       z     vdW  Elec       q    Type
REMARK                         _______ _______ _______ _____ _____    ______ ____
ROOT
ATOM      1  C   UNL     1       6.484   5.103  18.806  0.00  0.00    +0.000 C 
ATOM      2  O   UNL     1       6.784   5.414  19.951  0.00  0.00    +0.000 OA
ATOM      3  N   UNL     1       5.188   5.018  18.341  0.00  0.00    +0.000 N 
ATOM      4  H   UNL     1       5.034   4.574  17.446  0.00  0.00    +0.000 HD
ENDROOT
BRANCH   3   5
ATOM      5  C   UNL     1       4.053   5.293  19.202  0.00  0.00    +0.000 C 
ATOM      6  C   UNL     1       3.472   6.676  18.912  0.00  0.00    +0.000 C 
BRANCH   5   7
ATOM      7  C   UNL     1       2.997   4.213  19.068  0.00  0.00    +0.000 A 
ATOM      8  C   UNL     1       1.881   4.222  19.918  0.00  0.00    +0.000 A 
ATOM      9  C   UNL     1       0.901   3.234  19.814  0.00  0.00    +0.000 A 
ATOM     10  C   UNL     1       1.028   2.223  18.865  0.00  0.00    +0.000 A 
ATOM     11  C   UNL     1       2.130   2.202  18.013  0.00  0.00    +0.000 A 
ATOM     12  C   UNL     1       3.110   3.191  18.114  0.00  0.00    +0.000 A 
ENDBRANCH   5   7
ENDBRANCH   3   5
BRANCH   1  13
ATOM     13  C   UNL     1       7.540   4.843  17.728  0.00  0.00    +0.000 C 
BRANCH  13  14
ATOM     14  O   UNL     1       7.057   4.048  16.647  0.00  0.00    +0.000 OA
BRANCH  14  15
ATOM     15  C   UNL     1       7.176   4.730  15.393  0.00  0.00    +0.000 C 
BRANCH  15  16
ATOM     16  C   UNL     1       5.831   4.704  14.679  0.00  0.00    +0.000 C 
BRANCH  16  18
ATOM     17  C   UNL     1       5.110   6.776  15.524  0.00  0.00    +0.000 C 
ATOM     18  O   UNL     1       4.856   5.379  15.473  0.00  0.00    +0.000 OA
ENDBRANCH  16  18
ENDBRANCH  15  16
ENDBRANCH  14  15
ENDBRANCH  13  14
ENDBRANCH   1  13
TORSDOF 7
ENDMDL
MODEL 9
REMARK VINA RESULT:      -5.7      2.519      6.333
REMARK  Name = 
REMARK  9 active torsions:
REMARK  status: ('A' for Active; 'I' for Inactive)
REMARK    1  A    between atoms: C_1  and  O_2
REMARK    2  A    between atoms: O_2  and  C_3
REMARK    3  A    between atoms: C_3  and  C_4
REMARK    4  A    between atoms: C_4  and  O_5
REMARK    5  A    between atoms: O_5  and  C_6
REMARK    6  A    between atoms: C_6  and  C_7
REMARK    7  A    between atoms: N_9  and  C_10
REMARK    8  A    between atoms: C_10  and  C_11
REMARK    9  A    between atoms: C_10  and  C_12
REMARK                            x       y       z     vdW  Elec       q    Type
REMARK                         _______ _______ _______ _____ _____    ______ ____
ROOT
ATOM      1  C   UNL     1       3.716   3.531  17.926  0.00  0.00    +0.000 C 
ATOM      2  O   UNL     1       4.386   2.855  18.695  0.00  0.00    +0.000 OA
ATOM      3  N   UNL     1       4.220   4.152  16.802  0.00  0.00    +0.000 N 
ATOM      4  H   UNL     1       3.639   4.837  16.337  0.00  0.00    +0.000 HD
ENDROOT
BRANCH   3   5
ATOM      5  C   UNL     1       5.623   4.051  16.443  0.00  0.00    +0.000 C 
ATOM      6  C   UNL     1       5.804   4.131  14.927  0.00  0.00    +0.000 C 
BRANCH   5   7
ATOM      7  C   UNL     1       6.442   5.112  17.152  0.00  0.00    +0.000 A 
ATOM      8  C   UNL     1       6.387   6.442  16.712  0.00  0.00    +0.000 A 
ATOM      9  C   UNL     1       7.137   7.432  17.348  0.00  0.00    +0.000 A 
ATOM     10  C   UNL     1       7.955   7.103  18.425  0.00  0.00    +0.000 A 
ATOM     11  C   UNL     1       8.019   5.786  18.874  0.00  0.00    +0.000 A 
ATOM     12  C   UNL     1       7.267   4.794  18.241  0.00  0.00    +0.000 A 
ENDBRANCH   5   7
ENDBRANCH   3   5
BRANCH   1  13
ATOM     13  C   UNL     1       2.204   3.701  18.092  0.00  0.00    +0.000 C 
BRANCH  13  14
ATOM     14  O   UNL     1       1.684   3.025  19.236  0.00  0.00    +0.000 OA
BRANCH  14  15
ATOM     15  C   UNL     1       0.952   3.913  20.089  0.00  0.00    +0.000 C 
BRANCH  15  16
ATOM     16  C   UNL     1       1.930   4.815  20.830  0.00  0.00    +0.000 C 
BRANCH  16  18
ATOM     17  C   UNL     1       2.349   6.898  19.825  0.00  0.00    +0.000 C 
ATOM     18  O   UNL     1       1.509   6.173  20.712  0.00  0.00    +0.000 OA
ENDBRANCH  16  18
ENDBRANCH  15  16
ENDBRANCH  14  15
ENDBRANCH  13  14
ENDBRANCH   1  13
TORSDOF 7
ENDMDL
