MODEL 1
REMARK VINA RESULT:      -8.1      0.000      0.000
REMARK  Name = 
REMARK  6 active torsions:
REMARK  status: ('A' for Active; 'I' for Inactive)
REMARK    1  A    between atoms: C_1  and  O_2
REMARK    2  A    between atoms: O_2  and  C_3
REMARK    3  A    between atoms: C_7  and  C_8
REMARK    4  A    between atoms: C_15  and  C_16
REMARK    5  A    between atoms: C_19  and  S_20
REMARK    6  A    between atoms: S_20  and  N_21
REMARK                            x       y       z     vdW  Elec       q    Type
REMARK                         _______ _______ _______ _____ _____    ______ ____
ROOT
ATOM      1  C   UNL     1       3.198   4.403  18.928  0.00  0.00    +0.000 A 
ATOM      2  C   UNL     1       3.098   2.986  18.893  0.00  0.00    +0.000 A 
ATOM      3  C   UNL     1       2.019   2.315  19.449  0.00  0.00    +0.000 A 
ATOM      4  F   UNL     1       1.969   0.974  19.385  0.00  0.00    +0.000 F 
ATOM      5  C   UNL     1       1.005   3.017  20.068  0.00  0.00    +0.000 A 
ATOM      6  F   UNL     1      -0.043   2.375  20.604  0.00  0.00    +0.000 F 
ATOM      7  C   UNL     1       1.059   4.403  20.131  0.00  0.00    +0.000 A 
ATOM      8  C   UNL     1       2.133   5.132  19.562  0.00  0.00    +0.000 A 
ENDROOT
BRANCH   1  13
ATOM      9  C   UNL     1       6.657   6.491  17.288  0.00  0.00    +0.000 A 
ATOM     10  C   UNL     1       5.495   6.317  16.528  0.00  0.00    +0.000 A 
ATOM     11 CL   UNL     1       5.211   7.016  14.971  0.00  0.00    +0.000 Cl
ATOM     12  C   UNL     1       4.430   5.536  17.020  0.00  0.00    +0.000 A 
ATOM     13  C   UNL     1       4.413   5.022  18.324  0.00  0.00    +0.000 A 
ATOM     14  C   UNL     1       5.597   5.166  19.062  0.00  0.00    +0.000 A 
ATOM     15  C   UNL     1       6.702   5.860  18.545  0.00  0.00    +0.000 A 
ATOM     16 CL   UNL     1       8.117   5.938  19.545  0.00  0.00    +0.000 Cl
BRANCH   9  18
ATOM     17  C   UNL     1       8.060   8.452  17.419  0.00  0.00    +0.000 C 
ATOM     18  O   UNL     1       7.808   7.143  16.931  0.00  0.00    +0.000 OA
ENDBRANCH   9  18
ENDBRANCH   1  13
BRANCH   8  19
ATOM     19  C   UNL     1       2.038   6.620  19.598  0.00  0.00    +0.000 A 
ATOM     20  C   UNL     1       2.246   7.423  18.463  0.00  0.00    +0.000 A 
ATOM     21  C   UNL     1       1.865   8.769  18.449  0.00  0.00    +0.000 A 
ATOM     22  C   UNL     1       1.357   9.347  19.610  0.00  0.00    +0.000 A 
ATOM     23  C   UNL     1       1.308   8.627  20.800  0.00  0.00    +0.000 A 
ATOM     24  C   UNL     1       1.628   7.269  20.784  0.00  0.00    +0.000 A 
BRANCH  22  25
ATOM     25  S   UNL     1       0.666  10.973  19.565  0.00  0.00    +0.000 S 
ATOM     26  O   UNL     1      -0.740  10.882  19.250  0.00  0.00    +0.000 OA
ATOM     27  O   UNL     1       1.172  11.742  20.677  0.00  0.00    +0.000 OA
BRANCH  25  28
ATOM     28  N   UNL     1       1.418  11.587  18.194  0.00  0.00    +0.000 NA
ATOM     29  H   UNL     1       2.206  11.003  17.920  0.00  0.00    +0.000 HD
ATOM     30  H   UNL     1       0.738  11.760  17.454  0.00  0.00    +0.000 HD
ENDBRANCH  25  28
ENDBRANCH  22  25
ENDBRANCH   8  19
TORSDOF 5
ENDMDL
MODEL 2
REMARK VINA RESULT:      -7.6      1.198      2.063
REMARK  Name = 
REMARK  6 active torsions:
REMARK  status: ('A' for Active; 'I' for Inactive)
REMARK    1  A    between atoms: C_1  and  O_2
REMARK    2  A    between atoms: O_2  and  C_3
REMARK    3  A    between atoms: C_7  and  C_8
REMARK    4  A    between atoms: C_15  and  C_16
REMARK    5  A    between atoms: C_19  and  S_20
REMARK    6  A    between atoms: S_20  and  N_21
REMARK                            x       y       z     vdW  Elec       q    Type
REMARK                         _______ _______ _______ _____ _____    ______ ____
ROOT
ATOM      1  C   UNL     1       3.270   4.342  18.863  0.00  0.00    +0.000 A 
ATOM      2  C   UNL     1       3.184   2.938  19.061  0.00  0.00    +0.000 A 
ATOM      3  C   UNL     1       2.250   2.377  19.920  0.00  0.00    +0.000 A 
ATOM      4  F   UNL     1       2.205   1.042  20.069  0.00  0.00    +0.000 F 
ATOM      5  C   UNL     1       1.376   3.181  20.622  0.00  0.00    +0.000 A 
ATOM      6  F   UNL     1       0.469   2.645  21.451  0.00  0.00    +0.000 F 
ATOM      7  C   UNL     1       1.424   4.560  20.466  0.00  0.00    +0.000 A 
ATOM      8  C   UNL     1       2.349   5.177  19.587  0.00  0.00    +0.000 A 
ENDROOT
BRANCH   1  13
ATOM      9  C   UNL     1       6.522   5.534  16.213  0.00  0.00    +0.000 A 
ATOM     10  C   UNL     1       6.503   5.934  17.554  0.00  0.00    +0.000 A 
ATOM     11 CL   UNL     1       7.784   6.773  18.359  0.00  0.00    +0.000 Cl
ATOM     12  C   UNL     1       5.389   5.648  18.370  0.00  0.00    +0.000 A 
ATOM     13  C   UNL     1       4.327   4.842  17.938  0.00  0.00    +0.000 A 
ATOM     14  C   UNL     1       4.335   4.481  16.583  0.00  0.00    +0.000 A 
ATOM     15  C   UNL     1       5.394   4.843  15.735  0.00  0.00    +0.000 A 
ATOM     16 CL   UNL     1       5.266   4.362  14.073  0.00  0.00    +0.000 Cl
BRANCH   9  18
ATOM     17  C   UNL     1       7.506   5.049  14.063  0.00  0.00    +0.000 C 
ATOM     18  O   UNL     1       7.478   5.798  15.268  0.00  0.00    +0.000 OA
ENDBRANCH   9  18
ENDBRANCH   1  13
BRANCH   8  19
ATOM     19  C   UNL     1       2.245   6.655  19.420  0.00  0.00    +0.000 A 
ATOM     20  C   UNL     1       2.351   7.288  18.169  0.00  0.00    +0.000 A 
ATOM     21  C   UNL     1       1.958   8.620  17.997  0.00  0.00    +0.000 A 
ATOM     22  C   UNL     1       1.544   9.359  19.102  0.00  0.00    +0.000 A 
ATOM     23  C   UNL     1       1.600   8.815  20.383  0.00  0.00    +0.000 A 
ATOM     24  C   UNL     1       1.930   7.467  20.532  0.00  0.00    +0.000 A 
BRANCH  22  25
ATOM     25  S   UNL     1       0.838  10.965  18.886  0.00  0.00    +0.000 S 
ATOM     26  O   UNL     1      -0.407  10.841  18.166  0.00  0.00    +0.000 OA
ATOM     27  O   UNL     1       0.963  11.715  20.113  0.00  0.00    +0.000 OA
BRANCH  25  28
ATOM     28  N   UNL     1       1.940  11.641  17.812  0.00  0.00    +0.000 NA
ATOM     29  H   UNL     1       2.081  12.629  18.013  0.00  0.00    +0.000 HD
ATOM     30  H   UNL     1       2.795  11.087  17.774  0.00  0.00    +0.000 HD
ENDBRANCH  25  28
ENDBRANCH  22  25
ENDBRANCH   8  19
TORSDOF 5
ENDMDL
MODEL 3
REMARK VINA RESULT:      -7.4      6.321      9.688
REMARK  Name = 
REMARK  6 active torsions:
REMARK  status: ('A' for Active; 'I' for Inactive)
REMARK    1  A    between atoms: C_1  and  O_2
REMARK    2  A    between atoms: O_2  and  C_3
REMARK    3  A    between atoms: C_7  and  C_8
REMARK    4  A    between atoms: C_15  and  C_16
REMARK    5  A    between atoms: C_19  and  S_20
REMARK    6  A    between atoms: S_20  and  N_21
REMARK                            x       y       z     vdW  Elec       q    Type
REMARK                         _______ _______ _______ _____ _____    ______ ____
ROOT
ATOM      1  C   UNL     1      -0.013  12.882  18.745  0.00  0.00    +0.000 A 
ATOM      2  C   UNL     1       0.078  14.298  18.691  0.00  0.00    +0.000 A 
ATOM      3  C   UNL     1       1.293  14.957  18.799  0.00  0.00    +0.000 A 
ATOM      4  F   UNL     1       1.328  16.299  18.736  0.00  0.00    +0.000 F 
ATOM      5  C   UNL     1       2.461  14.243  18.973  0.00  0.00    +0.000 A 
ATOM      6  F   UNL     1       3.640  14.873  19.074  0.00  0.00    +0.000 F 
ATOM      7  C   UNL     1       2.423  12.857  19.036  0.00  0.00    +0.000 A 
ATOM      8  C   UNL     1       1.207  12.139  18.914  0.00  0.00    +0.000 A 
ENDROOT
BRANCH   1  13
ATOM      9  C   UNL     1      -4.081  11.375  18.300  0.00  0.00    +0.000 A 
ATOM     10  C   UNL     1      -3.689  12.056  19.458  0.00  0.00    +0.000 A 
ATOM     11 CL   UNL     1      -4.749  12.526  20.742  0.00  0.00    +0.000 Cl
ATOM     12  C   UNL     1      -2.343  12.431  19.645  0.00  0.00    +0.000 A 
ATOM     13  C   UNL     1      -1.373  12.276  18.646  0.00  0.00    +0.000 A 
ATOM     14  C   UNL     1      -1.764  11.556  17.508  0.00  0.00    +0.000 A 
ATOM     15  C   UNL     1      -3.080  11.092  17.353  0.00  0.00    +0.000 A 
ATOM     16 CL   UNL     1      -3.428  10.186  15.915  0.00  0.00    +0.000 Cl
BRANCH   9  18
ATOM     17  C   UNL     1      -6.391  11.750  17.708  0.00  0.00    +0.000 C 
ATOM     18  O   UNL     1      -5.318  10.868  17.998  0.00  0.00    +0.000 OA
ENDBRANCH   9  18
ENDBRANCH   1  13
BRANCH   8  19
ATOM     19  C   UNL     1       1.295  10.651  18.893  0.00  0.00    +0.000 A 
ATOM     20  C   UNL     1       1.738   9.931  17.769  0.00  0.00    +0.000 A 
ATOM     21  C   UNL     1       2.093   8.581  17.869  0.00  0.00    +0.000 A 
ATOM     22  C   UNL     1       1.914   7.915  19.079  0.00  0.00    +0.000 A 
ATOM     23  C   UNL     1       1.309   8.553  20.159  0.00  0.00    +0.000 A 
ATOM     24  C   UNL     1       1.022   9.915  20.068  0.00  0.00    +0.000 A 
BRANCH  22  25
ATOM     25  S   UNL     1       2.552   6.282  19.299  0.00  0.00    +0.000 S 
ATOM     26  O   UNL     1       1.831   5.371  18.442  0.00  0.00    +0.000 OA
ATOM     27  O   UNL     1       3.994   6.332  19.352  0.00  0.00    +0.000 OA
BRANCH  25  28
ATOM     28  N   UNL     1       2.040   5.962  20.867  0.00  0.00    +0.000 NA
ATOM     29  H   UNL     1       2.466   5.108  21.220  0.00  0.00    +0.000 HD
ATOM     30  H   UNL     1       2.166   6.780  21.463  0.00  0.00    +0.000 HD
ENDBRANCH  25  28
ENDBRANCH  22  25
ENDBRANCH   8  19
TORSDOF 5
ENDMDL
MODEL 4
REMARK VINA RESULT:      -7.3      0.425      1.781
REMARK  Name = 
REMARK  6 active torsions:
REMARK  status: ('A' for Active; 'I' for Inactive)
REMARK    1  A    between atoms: C_1  and  O_2
REMARK    2  A    between atoms: O_2  and  C_3
REMARK    3  A    between atoms: C_7  and  C_8
REMARK    4  A    between atoms: C_15  and  C_16
REMARK    5  A    between atoms: C_19  and  S_20
REMARK    6  A    between atoms: S_20  and  N_21
REMARK                            x       y       z     vdW  Elec       q    Type
REMARK                         _______ _______ _______ _____ _____    ______ ____
ROOT
ATOM      1  C   UNL     1       3.118   4.603  19.149  0.00  0.00    +0.000 A 
ATOM      2  C   UNL     1       3.066   3.189  19.018  0.00  0.00    +0.000 A 
ATOM      3  C   UNL     1       2.005   2.447  19.518  0.00  0.00    +0.000 A 
ATOM      4  F   UNL     1       2.000   1.112  19.364  0.00  0.00    +0.000 F 
ATOM      5  C   UNL     1       0.963   3.072  20.172  0.00  0.00    +0.000 A 
ATOM      6  F   UNL     1      -0.067   2.362  20.653  0.00  0.00    +0.000 F 
ATOM      7  C   UNL     1       0.970   4.452  20.327  0.00  0.00    +0.000 A 
ATOM      8  C   UNL     1       2.023   5.253  19.820  0.00  0.00    +0.000 A 
ENDROOT
BRANCH   1  13
ATOM      9  C   UNL     1       6.708   6.364  17.410  0.00  0.00    +0.000 A 
ATOM     10  C   UNL     1       6.711   5.866  18.718  0.00  0.00    +0.000 A 
ATOM     11 CL   UNL     1       8.111   5.728  19.725  0.00  0.00    +0.000 Cl
ATOM     12  C   UNL     1       5.517   5.412  19.313  0.00  0.00    +0.000 A 
ATOM     13  C   UNL     1       4.316   5.300  18.600  0.00  0.00    +0.000 A 
ATOM     14  C   UNL     1       4.312   5.839  17.305  0.00  0.00    +0.000 A 
ATOM     15  C   UNL     1       5.473   6.384  16.735  0.00  0.00    +0.000 A 
ATOM     16 CL   UNL     1       5.327   7.048  15.139  0.00  0.00    +0.000 Cl
BRANCH   9  18
ATOM     17  C   UNL     1       8.261   8.185  17.096  0.00  0.00    +0.000 C 
ATOM     18  O   UNL     1       7.751   6.917  16.715  0.00  0.00    +0.000 OA
ENDBRANCH   9  18
ENDBRANCH   1  13
BRANCH   8  19
ATOM     19  C   UNL     1       1.879   6.731  19.954  0.00  0.00    +0.000 A 
ATOM     20  C   UNL     1       2.110   7.617  18.887  0.00  0.00    +0.000 A 
ATOM     21  C   UNL     1       1.686   8.949  18.949  0.00  0.00    +0.000 A 
ATOM     22  C   UNL     1       1.110   9.429  20.122  0.00  0.00    +0.000 A 
ATOM     23  C   UNL     1       1.032   8.626  21.257  0.00  0.00    +0.000 A 
ATOM     24  C   UNL     1       1.397   7.282  21.161  0.00  0.00    +0.000 A 
BRANCH  22  25
ATOM     25  S   UNL     1       0.369  11.033  20.158  0.00  0.00    +0.000 S 
ATOM     26  O   UNL     1      -1.068  10.892  20.143  0.00  0.00    +0.000 OA
ATOM     27  O   UNL     1       1.065  11.864  21.112  0.00  0.00    +0.000 OA
BRANCH  25  28
ATOM     28  N   UNL     1       0.803  11.605  18.639  0.00  0.00    +0.000 NA
ATOM     29  H   UNL     1       1.304  12.488  18.714  0.00  0.00    +0.000 HD
ATOM     30  H   UNL     1       1.288  10.884  18.106  0.00  0.00    +0.000 HD
ENDBRANCH  25  28
ENDBRANCH  22  25
ENDBRANCH   8  19
TORSDOF 5
ENDMDL
MODEL 5
REMARK VINA RESULT:      -7.2      1.242      1.362
REMARK  Name = 
REMARK  6 active torsions:
REMARK  status: ('A' for Active; 'I' for Inactive)
REMARK    1  A    between atoms: C_1  and  O_2
REMARK    2  A    between atoms: O_2  and  C_3
REMARK    3  A    between atoms: C_7  and  C_8
REMARK    4  A    between atoms: C_15  and  C_16
REMARK    5  A    between atoms: C_19  and  S_20
REMARK    6  A    between atoms: S_20  and  N_21
REMARK                            x       y       z     vdW  Elec       q    Type
REMARK                         _______ _______ _______ _____ _____    ______ ____
ROOT
ATOM      1  C   UNL     1       3.289   3.978  19.048  0.00  0.00    +0.000 A 
ATOM      2  C   UNL     1       3.141   2.590  19.309  0.00  0.00    +0.000 A 
ATOM      3  C   UNL     1       2.160   2.107  20.163  0.00  0.00    +0.000 A 
ATOM      4  F   UNL     1       2.057   0.784  20.374  0.00  0.00    +0.000 F 
ATOM      5  C   UNL     1       1.296   2.978  20.796  0.00  0.00    +0.000 A 
ATOM      6  F   UNL     1       0.342   2.518  21.618  0.00  0.00    +0.000 F 
ATOM      7  C   UNL     1       1.402   4.344  20.575  0.00  0.00    +0.000 A 
ATOM      8  C   UNL     1       2.378   4.882  19.699  0.00  0.00    +0.000 A 
ENDROOT
BRANCH   1  13
ATOM      9  C   UNL     1       6.363   5.465  16.336  0.00  0.00    +0.000 A 
ATOM     10  C   UNL     1       5.312   4.670  15.866  0.00  0.00    +0.000 A 
ATOM     11 CL   UNL     1       4.998   4.321  14.201  0.00  0.00    +0.000 Cl
ATOM     12  C   UNL     1       4.393   4.094  16.766  0.00  0.00    +0.000 A 
ATOM     13  C   UNL     1       4.393   4.392  18.135  0.00  0.00    +0.000 A 
ATOM     14  C   UNL     1       5.474   5.155  18.603  0.00  0.00    +0.000 A 
ATOM     15  C   UNL     1       6.450   5.654  17.728  0.00  0.00    +0.000 A 
ATOM     16 CL   UNL     1       7.753   6.555  18.437  0.00  0.00    +0.000 Cl
BRANCH   9  18
ATOM     17  C   UNL     1       7.803   5.430  14.398  0.00  0.00    +0.000 C 
ATOM     18  O   UNL     1       7.383   6.028  15.615  0.00  0.00    +0.000 OA
ENDBRANCH   9  18
ENDBRANCH   1  13
BRANCH   8  19
ATOM     19  C   UNL     1       2.337   6.353  19.457  0.00  0.00    +0.000 A 
ATOM     20  C   UNL     1       2.497   6.918  18.179  0.00  0.00    +0.000 A 
ATOM     21  C   UNL     1       2.162   8.254  17.933  0.00  0.00    +0.000 A 
ATOM     22  C   UNL     1       1.754   9.063  18.991  0.00  0.00    +0.000 A 
ATOM     23  C   UNL     1       1.759   8.581  20.298  0.00  0.00    +0.000 A 
ATOM     24  C   UNL     1       2.031   7.231  20.520  0.00  0.00    +0.000 A 
BRANCH  22  25
ATOM     25  S   UNL     1       1.117  10.682  18.679  0.00  0.00    +0.000 S 
ATOM     26  O   UNL     1      -0.132  10.571  17.965  0.00  0.00    +0.000 OA
ATOM     27  O   UNL     1       1.275  11.497  19.861  0.00  0.00    +0.000 OA
BRANCH  25  28
ATOM     28  N   UNL     1       2.247  11.246  17.571  0.00  0.00    +0.000 NA
ATOM     29  H   UNL     1       2.941  10.530  17.365  0.00  0.00    +0.000 HD
ATOM     30  H   UNL     1       1.785  11.640  16.751  0.00  0.00    +0.000 HD
ENDBRANCH  25  28
ENDBRANCH  22  25
ENDBRANCH   8  19
TORSDOF 5
ENDMDL
MODEL 6
REMARK VINA RESULT:      -7.1      7.924      9.923
REMARK  Name = 
REMARK  6 active torsions:
REMARK  status: ('A' for Active; 'I' for Inactive)
REMARK    1  A    between atoms: C_1  and  O_2
REMARK    2  A    between atoms: O_2  and  C_3
REMARK    3  A    between atoms: C_7  and  C_8
REMARK    4  A    between atoms: C_15  and  C_16
REMARK    5  A    between atoms: C_19  and  S_20
REMARK    6  A    between atoms: S_20  and  N_21
REMARK                            x       y       z     vdW  Elec       q    Type
REMARK                         _______ _______ _______ _____ _____    ______ ____
ROOT
ATOM      1  C   UNL     1      -2.069  12.926  21.200  0.00  0.00    +0.000 A 
ATOM      2  C   UNL     1      -2.904  12.588  22.299  0.00  0.00    +0.000 A 
ATOM      3  C   UNL     1      -2.747  13.176  23.545  0.00  0.00    +0.000 A 
ATOM      4  F   UNL     1      -3.566  12.827  24.551  0.00  0.00    +0.000 F 
ATOM      5  C   UNL     1      -1.755  14.112  23.754  0.00  0.00    +0.000 A 
ATOM      6  F   UNL     1      -1.600  14.689  24.955  0.00  0.00    +0.000 F 
ATOM      7  C   UNL     1      -0.911  14.474  22.713  0.00  0.00    +0.000 A 
ATOM      8  C   UNL     1      -1.044  13.911  21.418  0.00  0.00    +0.000 A 
ENDROOT
BRANCH   1  13
ATOM      9  C   UNL     1      -2.871  10.595  17.603  0.00  0.00    +0.000 A 
ATOM     10  C   UNL     1      -1.604  10.590  18.196  0.00  0.00    +0.000 A 
ATOM     11 CL   UNL     1      -0.285   9.579  17.714  0.00  0.00    +0.000 Cl
ATOM     12  C   UNL     1      -1.320  11.440  19.284  0.00  0.00    +0.000 A 
ATOM     13  C   UNL     1      -2.306  12.213  19.912  0.00  0.00    +0.000 A 
ATOM     14  C   UNL     1      -3.561  12.244  19.287  0.00  0.00    +0.000 A 
ATOM     15  C   UNL     1      -3.828  11.474  18.143  0.00  0.00    +0.000 A 
ATOM     16 CL   UNL     1      -5.409  11.627  17.446  0.00  0.00    +0.000 Cl
BRANCH   9  18
ATOM     17  C   UNL     1      -2.874  10.315  15.205  0.00  0.00    +0.000 C 
ATOM     18  O   UNL     1      -3.289   9.901  16.498  0.00  0.00    +0.000 OA
ENDBRANCH   9  18
ENDBRANCH   1  13
BRANCH   8  19
ATOM     19  C   UNL     1      -0.151  14.446  20.350  0.00  0.00    +0.000 A 
ATOM     20  C   UNL     1      -0.536  15.490  19.490  0.00  0.00    +0.000 A 
ATOM     21  C   UNL     1       0.407  16.166  18.709  0.00  0.00    +0.000 A 
ATOM     22  C   UNL     1       1.732  15.737  18.711  0.00  0.00    +0.000 A 
ATOM     23  C   UNL     1       2.108  14.594  19.412  0.00  0.00    +0.000 A 
ATOM     24  C   UNL     1       1.174  13.969  20.239  0.00  0.00    +0.000 A 
BRANCH  22  25
ATOM     25  S   UNL     1       2.981  16.699  17.911  0.00  0.00    +0.000 S 
ATOM     26  O   UNL     1       2.358  17.594  16.966  0.00  0.00    +0.000 OA
ATOM     27  O   UNL     1       3.948  17.139  18.889  0.00  0.00    +0.000 OA
BRANCH  25  28
ATOM     28  N   UNL     1       3.746  15.510  17.003  0.00  0.00    +0.000 NA
ATOM     29  H   UNL     1       3.156  14.685  16.915  0.00  0.00    +0.000 HD
ATOM     30  H   UNL     1       4.082  15.890  16.118  0.00  0.00    +0.000 HD
ENDBRANCH  25  28
ENDBRANCH  22  25
ENDBRANCH   8  19
TORSDOF 5
ENDMDL
MODEL 7
REMARK VINA RESULT:      -6.8      6.380      9.768
REMARK  Name = 
REMARK  6 active torsions:
REMARK  status: ('A' for Active; 'I' for Inactive)
REMARK    1  A    between atoms: C_1  and  O_2
REMARK    2  A    between atoms: O_2  and  C_3
REMARK    3  A    between atoms: C_7  and  C_8
REMARK    4  A    between atoms: C_15  and  C_16
REMARK    5  A    between atoms: C_19  and  S_20
REMARK    6  A    between atoms: S_20  and  N_21
REMARK                            x       y       z     vdW  Elec       q    Type
REMARK                         _______ _______ _______ _____ _____    ______ ____
ROOT
ATOM      1  C   UNL     1      -0.083  13.037  19.078  0.00  0.00    +0.000 A 
ATOM      2  C   UNL     1      -0.018  14.450  19.205  0.00  0.00    +0.000 A 
ATOM      3  C   UNL     1       1.182  15.110  19.428  0.00  0.00    +0.000 A 
ATOM      4  F   UNL     1       1.191  16.449  19.537  0.00  0.00    +0.000 F 
ATOM      5  C   UNL     1       2.359  14.398  19.542  0.00  0.00    +0.000 A 
ATOM      6  F   UNL     1       3.522  15.030  19.752  0.00  0.00    +0.000 F 
ATOM      7  C   UNL     1       2.346  13.015  19.427  0.00  0.00    +0.000 A 
ATOM      8  C   UNL     1       1.148  12.299  19.184  0.00  0.00    +0.000 A 
ENDROOT
BRANCH   1  13
ATOM      9  C   UNL     1      -4.102  11.525  18.319  0.00  0.00    +0.000 A 
ATOM     10  C   UNL     1      -3.779  12.130  19.539  0.00  0.00    +0.000 A 
ATOM     11 CL   UNL     1      -4.910  12.503  20.794  0.00  0.00    +0.000 Cl
ATOM     12  C   UNL     1      -2.450  12.504  19.821  0.00  0.00    +0.000 A 
ATOM     13  C   UNL     1      -1.427  12.426  18.867  0.00  0.00    +0.000 A 
ATOM     14  C   UNL     1      -1.750  11.781  17.664  0.00  0.00    +0.000 A 
ATOM     15  C   UNL     1      -3.050  11.317  17.409  0.00  0.00    +0.000 A 
ATOM     16 CL   UNL     1      -3.310  10.506  15.897  0.00  0.00    +0.000 Cl
BRANCH   9  18
ATOM     17  C   UNL     1      -6.341  11.918  17.505  0.00  0.00    +0.000 C 
ATOM     18  O   UNL     1      -5.315  11.029  17.919  0.00  0.00    +0.000 OA
ENDBRANCH   9  18
ENDBRANCH   1  13
BRANCH   8  19
ATOM     19  C   UNL     1       1.265  10.827  18.977  0.00  0.00    +0.000 A 
ATOM     20  C   UNL     1       1.684  10.261  17.759  0.00  0.00    +0.000 A 
ATOM     21  C   UNL     1       2.069   8.918  17.681  0.00  0.00    +0.000 A 
ATOM     22  C   UNL     1       1.946   8.105  18.805  0.00  0.00    +0.000 A 
ATOM     23  C   UNL     1       1.366   8.590  19.974  0.00  0.00    +0.000 A 
ATOM     24  C   UNL     1       1.048   9.946  20.060  0.00  0.00    +0.000 A 
BRANCH  22  25
ATOM     25  S   UNL     1       2.625   6.473  18.801  0.00  0.00    +0.000 S 
ATOM     26  O   UNL     1       3.043   6.131  20.140  0.00  0.00    +0.000 OA
ATOM     27  O   UNL     1       1.796   5.609  17.994  0.00  0.00    +0.000 OA
BRANCH  25  28
ATOM     28  N   UNL     1       4.030   6.729  17.917  0.00  0.00    +0.000 NA
ATOM     29  H   UNL     1       3.927   7.529  17.296  0.00  0.00    +0.000 HD
ATOM     30  H   UNL     1       4.843   6.769  18.532  0.00  0.00    +0.000 HD
ENDBRANCH  25  28
ENDBRANCH  22  25
ENDBRANCH   8  19
TORSDOF 5
ENDMDL
MODEL 8
REMARK VINA RESULT:      -6.8      6.272      9.569
REMARK  Name = 
REMARK  6 active torsions:
REMARK  status: ('A' for Active; 'I' for Inactive)
REMARK    1  A    between atoms: C_1  and  O_2
REMARK    2  A    between atoms: O_2  and  C_3
REMARK    3  A    between atoms: C_7  and  C_8
REMARK    4  A    between atoms: C_15  and  C_16
REMARK    5  A    between atoms: C_19  and  S_20
REMARK    6  A    between atoms: S_20  and  N_21
REMARK                            x       y       z     vdW  Elec       q    Type
REMARK                         _______ _______ _______ _____ _____    ______ ____
ROOT
ATOM      1  C   UNL     1       0.158  13.117  18.830  0.00  0.00    +0.000 A 
ATOM      2  C   UNL     1       0.300  14.531  18.837  0.00  0.00    +0.000 A 
ATOM      3  C   UNL     1       1.530  15.140  19.035  0.00  0.00    +0.000 A 
ATOM      4  F   UNL     1       1.614  16.482  19.028  0.00  0.00    +0.000 F 
ATOM      5  C   UNL     1       2.662  14.378  19.242  0.00  0.00    +0.000 A 
ATOM      6  F   UNL     1       3.855  14.961  19.429  0.00  0.00    +0.000 F 
ATOM      7  C   UNL     1       2.574  12.993  19.247  0.00  0.00    +0.000 A 
ATOM      8  C   UNL     1       1.342  12.325  19.033  0.00  0.00    +0.000 A 
ENDROOT
BRANCH   1  13
ATOM      9  C   UNL     1      -3.761  11.248  18.430  0.00  0.00    +0.000 A 
ATOM     10  C   UNL     1      -2.784  11.090  17.441  0.00  0.00    +0.000 A 
ATOM     11 CL   UNL     1      -2.919  10.045  16.068  0.00  0.00    +0.000 Cl
ATOM     12  C   UNL     1      -1.567  11.796  17.519  0.00  0.00    +0.000 A 
ATOM     13  C   UNL     1      -1.214  12.566  18.636  0.00  0.00    +0.000 A 
ATOM     14  C   UNL     1      -2.214  12.751  19.602  0.00  0.00    +0.000 A 
ATOM     15  C   UNL     1      -3.467  12.130  19.486  0.00  0.00    +0.000 A 
ATOM     16 CL   UNL     1      -4.628  12.468  20.731  0.00  0.00    +0.000 Cl
BRANCH   9  18
ATOM     17  C   UNL     1      -6.076  11.325  17.748  0.00  0.00    +0.000 C 
ATOM     18  O   UNL     1      -5.020  10.707  18.467  0.00  0.00    +0.000 OA
ENDBRANCH   9  18
ENDBRANCH   1  13
BRANCH   8  19
ATOM     19  C   UNL     1       1.380  10.836  18.957  0.00  0.00    +0.000 A 
ATOM     20  C   UNL     1       1.840  10.144  17.823  0.00  0.00    +0.000 A 
ATOM     21  C   UNL     1       2.144   8.780  17.883  0.00  0.00    +0.000 A 
ATOM     22  C   UNL     1       1.898   8.076  19.058  0.00  0.00    +0.000 A 
ATOM     23  C   UNL     1       1.274   8.693  20.140  0.00  0.00    +0.000 A 
ATOM     24  C   UNL     1       1.038  10.067  20.091  0.00  0.00    +0.000 A 
BRANCH  22  25
ATOM     25  S   UNL     1       2.471   6.413  19.237  0.00  0.00    +0.000 S 
ATOM     26  O   UNL     1       1.771   5.567  18.301  0.00  0.00    +0.000 OA
ATOM     27  O   UNL     1       3.909   6.412  19.372  0.00  0.00    +0.000 OA
BRANCH  25  28
ATOM     28  N   UNL     1       1.861   6.042  20.758  0.00  0.00    +0.000 NA
ATOM     29  H   UNL     1       2.409   5.304  21.198  0.00  0.00    +0.000 HD
ATOM     30  H   UNL     1       1.753   6.885  21.321  0.00  0.00    +0.000 HD
ENDBRANCH  25  28
ENDBRANCH  22  25
ENDBRANCH   8  19
TORSDOF 5
ENDMDL
MODEL 9
REMARK VINA RESULT:      -6.7      1.647      2.536
REMARK  Name = 
REMARK  6 active torsions:
REMARK  status: ('A' for Active; 'I' for Inactive)
REMARK    1  A    between atoms: C_1  and  O_2
REMARK    2  A    between atoms: O_2  and  C_3
REMARK    3  A    between atoms: C_7  and  C_8
REMARK    4  A    between atoms: C_15  and  C_16
REMARK    5  A    between atoms: C_19  and  S_20
REMARK    6  A    between atoms: S_20  and  N_21
REMARK                            x       y       z     vdW  Elec       q    Type
REMARK                         _______ _______ _______ _____ _____    ______ ____
ROOT
ATOM      1  C   UNL     1       3.761   4.258  19.599  0.00  0.00    +0.000 A 
ATOM      2  C   UNL     1       4.066   2.952  20.069  0.00  0.00    +0.000 A 
ATOM      3  C   UNL     1       3.317   2.340  21.063  0.00  0.00    +0.000 A 
ATOM      4  F   UNL     1       3.642   1.101  21.470  0.00  0.00    +0.000 F 
ATOM      5  C   UNL     1       2.247   2.997  21.636  0.00  0.00    +0.000 A 
ATOM      6  F   UNL     1       1.517   2.410  22.594  0.00  0.00    +0.000 F 
ATOM      7  C   UNL     1       1.912   4.276  21.213  0.00  0.00    +0.000 A 
ATOM      8  C   UNL     1       2.638   4.935  20.189  0.00  0.00    +0.000 A 
ENDROOT
BRANCH   1  13
ATOM      9  C   UNL     1       6.530   5.677  16.544  0.00  0.00    +0.000 A 
ATOM     10  C   UNL     1       6.686   6.047  17.885  0.00  0.00    +0.000 A 
ATOM     11 CL   UNL     1       8.028   6.934  18.521  0.00  0.00    +0.000 Cl
ATOM     12  C   UNL     1       5.719   5.684  18.844  0.00  0.00    +0.000 A 
ATOM     13  C   UNL     1       4.646   4.833  18.546  0.00  0.00    +0.000 A 
ATOM     14  C   UNL     1       4.475   4.502  17.194  0.00  0.00    +0.000 A 
ATOM     15  C   UNL     1       5.380   4.938  16.213  0.00  0.00    +0.000 A 
ATOM     16 CL   UNL     1       5.035   4.488  14.573  0.00  0.00    +0.000 Cl
BRANCH   9  18
ATOM     17  C   UNL     1       7.602   5.050  14.474  0.00  0.00    +0.000 C 
ATOM     18  O   UNL     1       7.324   6.012  15.479  0.00  0.00    +0.000 OA
ENDBRANCH   9  18
ENDBRANCH   1  13
BRANCH   8  19
ATOM     19  C   UNL     1       2.129   6.264  19.743  0.00  0.00    +0.000 A 
ATOM     20  C   UNL     1       1.512   7.175  20.620  0.00  0.00    +0.000 A 
ATOM     21  C   UNL     1       1.316   8.511  20.253  0.00  0.00    +0.000 A 
ATOM     22  C   UNL     1       1.651   8.923  18.966  0.00  0.00    +0.000 A 
ATOM     23  C   UNL     1       2.096   8.004  18.018  0.00  0.00    +0.000 A 
ATOM     24  C   UNL     1       2.349   6.690  18.415  0.00  0.00    +0.000 A 
BRANCH  22  25
ATOM     25  S   UNL     1       1.623  10.639  18.544  0.00  0.00    +0.000 S 
ATOM     26  O   UNL     1       1.619  11.425  19.755  0.00  0.00    +0.000 OA
ATOM     27  O   UNL     1       2.538  10.882  17.454  0.00  0.00    +0.000 OA
BRANCH  25  28
ATOM     28  N   UNL     1       0.079  10.767  17.892  0.00  0.00    +0.000 NA
ATOM     29  H   UNL     1       0.002  10.226  17.033  0.00  0.00    +0.000 HD
ATOM     30  H   UNL     1      -0.629  10.556  18.594  0.00  0.00    +0.000 HD
ENDBRANCH  25  28
ENDBRANCH  22  25
ENDBRANCH   8  19
TORSDOF 5
ENDMDL
