MODEL 1
REMARK VINA RESULT:      -4.7      0.000      0.000
REMARK  Name = 
REMARK  4 active torsions:
REMARK  status: ('A' for Active; 'I' for Inactive)
REMARK    1  A    between atoms: N_1  and  C_2
REMARK    2  A    between atoms: C_4  and  O_5
REMARK    3  A    between atoms: C_6  and  O_7
REMARK    4  A    between atoms: C_8  and  O_9
REMARK                            x       y       z     vdW  Elec       q    Type
REMARK                         _______ _______ _______ _____ _____    ______ ____
ROOT
ATOM      1  C   UNL     1       4.950   4.948  17.376  0.00  0.00    +0.000 C 
ATOM      2  C   UNL     1       6.258   4.891  16.563  0.00  0.00    +0.000 C 
ATOM      3  C   UNL     1       7.386   5.210  17.564  0.00  0.00    +0.000 C 
ATOM      4  C   UNL     1       6.670   5.606  18.870  0.00  0.00    +0.000 C 
ATOM      5  C   UNL     1       5.405   4.753  18.829  0.00  0.00    +0.000 C 
ENDROOT
BRANCH   1   6
ATOM      6  N   UNL     1       3.988   3.921  16.968  0.00  0.00    +0.000 NA
ATOM      7  H   UNL     1       3.849   3.970  15.956  0.00  0.00    +0.000 HD
ATOM      8  H   UNL     1       3.075   4.126  17.378  0.00  0.00    +0.000 HD
ENDBRANCH   1   6
BRANCH   3   9
ATOM      9  O   UNL     1       8.189   4.039  17.743  0.00  0.00    +0.000 OA
ATOM     10  H   UNL     1       7.709   3.303  17.314  0.00  0.00    +0.000 HD
ENDBRANCH   3   9
BRANCH   4  11
ATOM     11  O   UNL     1       7.437   5.361  20.038  0.00  0.00    +0.000 OA
ATOM     12  H   UNL     1       6.871   5.630  20.788  0.00  0.00    +0.000 HD
ENDBRANCH   4  11
BRANCH   5  13
ATOM     13  O   UNL     1       5.739   3.370  19.047  0.00  0.00    +0.000 OA
ATOM     14  H   UNL     1       4.904   2.891  18.851  0.00  0.00    +0.000 HD
ENDBRANCH   5  13
TORSDOF 4
ENDMDL
MODEL 2
REMARK VINA RESULT:      -4.7      2.435      3.302
REMARK  Name = 
REMARK  4 active torsions:
REMARK  status: ('A' for Active; 'I' for Inactive)
REMARK    1  A    between atoms: N_1  and  C_2
REMARK    2  A    between atoms: C_4  and  O_5
REMARK    3  A    between atoms: C_6  and  O_7
REMARK    4  A    between atoms: C_8  and  O_9
REMARK                            x       y       z     vdW  Elec       q    Type
REMARK                         _______ _______ _______ _____ _____    ______ ____
ROOT
ATOM      1  C   UNL     1       6.824   6.965  17.608  0.00  0.00    +0.000 C 
ATOM      2  C   UNL     1       7.642   6.082  18.571  0.00  0.00    +0.000 C 
ATOM      3  C   UNL     1       7.245   4.629  18.242  0.00  0.00    +0.000 C 
ATOM      4  C   UNL     1       6.092   4.743  17.227  0.00  0.00    +0.000 C 
ATOM      5  C   UNL     1       6.444   6.016  16.463  0.00  0.00    +0.000 C 
ENDROOT
BRANCH   1   6
ATOM      6  N   UNL     1       7.583   8.122  17.124  0.00  0.00    +0.000 NA
ATOM      7  H   UNL     1       8.058   8.569  17.910  0.00  0.00    +0.000 HD
ATOM      8  H   UNL     1       6.937   8.825  16.760  0.00  0.00    +0.000 HD
ENDBRANCH   1   6
BRANCH   3   9
ATOM      9  O   UNL     1       8.376   3.958  17.676  0.00  0.00    +0.000 OA
ATOM     10  H   UNL     1       8.101   3.645  16.792  0.00  0.00    +0.000 HD
ENDBRANCH   3   9
BRANCH   4  11
ATOM     11  O   UNL     1       5.979   3.622  16.364  0.00  0.00    +0.000 OA
ATOM     12  H   UNL     1       6.411   2.881  16.834  0.00  0.00    +0.000 HD
ENDBRANCH   4  11
BRANCH   5  13
ATOM     13  O   UNL     1       7.592   5.786  15.627  0.00  0.00    +0.000 OA
ATOM     14  H   UNL     1       8.355   5.973  16.217  0.00  0.00    +0.000 HD
ENDBRANCH   5  13
TORSDOF 4
ENDMDL
MODEL 3
REMARK VINA RESULT:      -4.7      2.073      3.077
REMARK  Name = 
REMARK  4 active torsions:
REMARK  status: ('A' for Active; 'I' for Inactive)
REMARK    1  A    between atoms: N_1  and  C_2
REMARK    2  A    between atoms: C_4  and  O_5
REMARK    3  A    between atoms: C_6  and  O_7
REMARK    4  A    between atoms: C_8  and  O_9
REMARK                            x       y       z     vdW  Elec       q    Type
REMARK                         _______ _______ _______ _____ _____    ______ ____
ROOT
ATOM      1  C   UNL     1       5.755   4.742  17.756  0.00  0.00    +0.000 C 
ATOM      2  C   UNL     1       5.021   3.958  16.650  0.00  0.00    +0.000 C 
ATOM      3  C   UNL     1       5.675   4.397  15.324  0.00  0.00    +0.000 C 
ATOM      4  C   UNL     1       6.636   5.540  15.704  0.00  0.00    +0.000 C 
ATOM      5  C   UNL     1       7.087   5.144  17.107  0.00  0.00    +0.000 C 
ENDROOT
BRANCH   1   6
ATOM      6  N   UNL     1       5.961   3.945  18.968  0.00  0.00    +0.000 NA
ATOM      7  H   UNL     1       6.098   2.966  18.711  0.00  0.00    +0.000 HD
ATOM      8  H   UNL     1       5.112   3.962  19.537  0.00  0.00    +0.000 HD
ENDBRANCH   1   6
BRANCH   3   9
ATOM      9  O   UNL     1       6.381   3.284  14.766  0.00  0.00    +0.000 OA
ATOM     10  H   UNL     1       5.797   2.506  14.864  0.00  0.00    +0.000 HD
ENDBRANCH   3   9
BRANCH   4  11
ATOM     11  O   UNL     1       7.733   5.682  14.815  0.00  0.00    +0.000 OA
ATOM     12  H   UNL     1       7.627   6.562  14.402  0.00  0.00    +0.000 HD
ENDBRANCH   4  11
BRANCH   5  13
ATOM     13  O   UNL     1       7.954   3.998  17.039  0.00  0.00    +0.000 OA
ATOM     14  H   UNL     1       7.348   3.255  16.827  0.00  0.00    +0.000 HD
ENDBRANCH   5  13
TORSDOF 4
ENDMDL
MODEL 4
REMARK VINA RESULT:      -4.7      3.018      3.576
REMARK  Name = 
REMARK  4 active torsions:
REMARK  status: ('A' for Active; 'I' for Inactive)
REMARK    1  A    between atoms: N_1  and  C_2
REMARK    2  A    between atoms: C_4  and  O_5
REMARK    3  A    between atoms: C_6  and  O_7
REMARK    4  A    between atoms: C_8  and  O_9
REMARK                            x       y       z     vdW  Elec       q    Type
REMARK                         _______ _______ _______ _____ _____    ______ ____
ROOT
ATOM      1  C   UNL     1       7.043   5.666  18.374  0.00  0.00    +0.000 C 
ATOM      2  C   UNL     1       7.539   4.604  17.374  0.00  0.00    +0.000 C 
ATOM      3  C   UNL     1       6.768   4.871  16.066  0.00  0.00    +0.000 C 
ATOM      4  C   UNL     1       5.737   5.960  16.417  0.00  0.00    +0.000 C 
ATOM      5  C   UNL     1       6.462   6.774  17.485  0.00  0.00    +0.000 C 
ENDROOT
BRANCH   1   6
ATOM      6  N   UNL     1       8.113   6.169  19.239  0.00  0.00    +0.000 NA
ATOM      7  H   UNL     1       8.268   5.511  20.005  0.00  0.00    +0.000 HD
ATOM      8  H   UNL     1       7.812   7.039  19.683  0.00  0.00    +0.000 HD
ENDBRANCH   1   6
BRANCH   3   9
ATOM      9  O   UNL     1       7.691   5.325  15.070  0.00  0.00    +0.000 OA
ATOM     10  H   UNL     1       7.156   5.707  14.347  0.00  0.00    +0.000 HD
ENDBRANCH   3   9
BRANCH   4  11
ATOM     11  O   UNL     1       5.354   6.761  15.309  0.00  0.00    +0.000 OA
ATOM     12  H   UNL     1       4.377   6.787  15.327  0.00  0.00    +0.000 HD
ENDBRANCH   4  11
BRANCH   5  13
ATOM     13  O   UNL     1       7.537   7.522  16.886  0.00  0.00    +0.000 OA
ATOM     14  H   UNL     1       7.651   8.293  17.486  0.00  0.00    +0.000 HD
ENDBRANCH   5  13
TORSDOF 4
ENDMDL
MODEL 5
REMARK VINA RESULT:      -4.6      2.387      3.254
REMARK  Name = 
REMARK  4 active torsions:
REMARK  status: ('A' for Active; 'I' for Inactive)
REMARK    1  A    between atoms: N_1  and  C_2
REMARK    2  A    between atoms: C_4  and  O_5
REMARK    3  A    between atoms: C_6  and  O_7
REMARK    4  A    between atoms: C_8  and  O_9
REMARK                            x       y       z     vdW  Elec       q    Type
REMARK                         _______ _______ _______ _____ _____    ______ ____
ROOT
ATOM      1  C   UNL     1       2.582   3.411  18.476  0.00  0.00    +0.000 C 
ATOM      2  C   UNL     1       3.685   4.487  18.498  0.00  0.00    +0.000 C 
ATOM      3  C   UNL     1       4.821   3.901  19.360  0.00  0.00    +0.000 C 
ATOM      4  C   UNL     1       4.256   2.590  19.940  0.00  0.00    +0.000 C 
ATOM      5  C   UNL     1       3.318   2.113  18.834  0.00  0.00    +0.000 C 
ENDROOT
BRANCH   1   6
ATOM      6  N   UNL     1       1.916   3.314  17.174  0.00  0.00    +0.000 NA
ATOM      7  H   UNL     1       2.446   2.684  16.569  0.00  0.00    +0.000 HD
ATOM      8  H   UNL     1       1.941   4.224  16.709  0.00  0.00    +0.000 HD
ENDBRANCH   1   6
BRANCH   3   9
ATOM      9  O   UNL     1       5.957   3.657  18.524  0.00  0.00    +0.000 OA
ATOM     10  H   UNL     1       6.670   3.335  19.110  0.00  0.00    +0.000 HD
ENDBRANCH   3   9
BRANCH   4  11
ATOM     11  O   UNL     1       5.251   1.625  20.244  0.00  0.00    +0.000 OA
ATOM     12  H   UNL     1       5.419   1.145  19.409  0.00  0.00    +0.000 HD
ENDBRANCH   4  11
BRANCH   5  13
ATOM     13  O   UNL     1       4.084   1.665  17.701  0.00  0.00    +0.000 OA
ATOM     14  H   UNL     1       4.674   2.424  17.500  0.00  0.00    +0.000 HD
ENDBRANCH   5  13
TORSDOF 4
ENDMDL
MODEL 6
REMARK VINA RESULT:      -4.6      1.562      2.004
REMARK  Name = 
REMARK  4 active torsions:
REMARK  status: ('A' for Active; 'I' for Inactive)
REMARK    1  A    between atoms: N_1  and  C_2
REMARK    2  A    between atoms: C_4  and  O_5
REMARK    3  A    between atoms: C_6  and  O_7
REMARK    4  A    between atoms: C_8  and  O_9
REMARK                            x       y       z     vdW  Elec       q    Type
REMARK                         _______ _______ _______ _____ _____    ______ ____
ROOT
ATOM      1  C   UNL     1       5.695   5.995  16.514  0.00  0.00    +0.000 C 
ATOM      2  C   UNL     1       7.146   6.104  17.024  0.00  0.00    +0.000 C 
ATOM      3  C   UNL     1       7.233   5.159  18.239  0.00  0.00    +0.000 C 
ATOM      4  C   UNL     1       5.790   4.678  18.485  0.00  0.00    +0.000 C 
ATOM      5  C   UNL     1       5.202   4.653  17.077  0.00  0.00    +0.000 C 
ENDROOT
BRANCH   1   6
ATOM      6  N   UNL     1       5.607   6.034  15.052  0.00  0.00    +0.000 NA
ATOM      7  H   UNL     1       5.743   5.092  14.679  0.00  0.00    +0.000 HD
ATOM      8  H   UNL     1       6.379   6.590  14.679  0.00  0.00    +0.000 HD
ENDBRANCH   1   6
BRANCH   3   9
ATOM      9  O   UNL     1       8.100   4.068  17.913  0.00  0.00    +0.000 OA
ATOM     10  H   UNL     1       7.549   3.399  17.461  0.00  0.00    +0.000 HD
ENDBRANCH   3   9
BRANCH   4  11
ATOM     11  O   UNL     1       5.712   3.409  19.115  0.00  0.00    +0.000 OA
ATOM     12  H   UNL     1       6.582   2.989  18.973  0.00  0.00    +0.000 HD
ENDBRANCH   4  11
BRANCH   5  13
ATOM     13  O   UNL     1       5.782   3.574  16.322  0.00  0.00    +0.000 OA
ATOM     14  H   UNL     1       5.021   2.980  16.137  0.00  0.00    +0.000 HD
ENDBRANCH   5  13
TORSDOF 4
ENDMDL
MODEL 7
REMARK VINA RESULT:      -4.6      3.280      4.237
REMARK  Name = 
REMARK  4 active torsions:
REMARK  status: ('A' for Active; 'I' for Inactive)
REMARK    1  A    between atoms: N_1  and  C_2
REMARK    2  A    between atoms: C_4  and  O_5
REMARK    3  A    between atoms: C_6  and  O_7
REMARK    4  A    between atoms: C_8  and  O_9
REMARK                            x       y       z     vdW  Elec       q    Type
REMARK                         _______ _______ _______ _____ _____    ______ ____
ROOT
ATOM      1  C   UNL     1       1.695   3.529  19.289  0.00  0.00    +0.000 C 
ATOM      2  C   UNL     1       1.830   2.404  18.245  0.00  0.00    +0.000 C 
ATOM      3  C   UNL     1       3.340   2.273  17.966  0.00  0.00    +0.000 C 
ATOM      4  C   UNL     1       3.997   3.440  18.728  0.00  0.00    +0.000 C 
ATOM      5  C   UNL     1       3.084   3.604  19.940  0.00  0.00    +0.000 C 
ENDROOT
BRANCH   1   6
ATOM      6  N   UNL     1       0.648   3.258  20.278  0.00  0.00    +0.000 NA
ATOM      7  H   UNL     1      -0.266   3.463  19.868  0.00  0.00    +0.000 HD
ATOM      8  H   UNL     1       0.746   3.903  21.064  0.00  0.00    +0.000 HD
ENDBRANCH   1   6
BRANCH   3   9
ATOM      9  O   UNL     1       3.793   1.007  18.458  0.00  0.00    +0.000 OA
ATOM     10  H   UNL     1       4.041   0.476  17.676  0.00  0.00    +0.000 HD
ENDBRANCH   3   9
BRANCH   4  11
ATOM     11  O   UNL     1       5.341   3.189  19.107  0.00  0.00    +0.000 OA
ATOM     12  H   UNL     1       5.301   2.878  20.033  0.00  0.00    +0.000 HD
ENDBRANCH   4  11
BRANCH   5  13
ATOM     13  O   UNL     1       3.255   2.492  20.837  0.00  0.00    +0.000 OA
ATOM     14  H   UNL     1       3.497   1.745  20.245  0.00  0.00    +0.000 HD
ENDBRANCH   5  13
TORSDOF 4
ENDMDL
MODEL 8
REMARK VINA RESULT:      -4.6      4.168      5.188
REMARK  Name = 
REMARK  4 active torsions:
REMARK  status: ('A' for Active; 'I' for Inactive)
REMARK    1  A    between atoms: N_1  and  C_2
REMARK    2  A    between atoms: C_4  and  O_5
REMARK    3  A    between atoms: C_6  and  O_7
REMARK    4  A    between atoms: C_8  and  O_9
REMARK                            x       y       z     vdW  Elec       q    Type
REMARK                         _______ _______ _______ _____ _____    ______ ____
ROOT
ATOM      1  C   UNL     1       3.859   2.286  19.497  0.00  0.00    +0.000 C 
ATOM      2  C   UNL     1       3.137   2.074  18.153  0.00  0.00    +0.000 C 
ATOM      3  C   UNL     1       1.644   2.338  18.436  0.00  0.00    +0.000 C 
ATOM      4  C   UNL     1       1.545   2.520  19.962  0.00  0.00    +0.000 C 
ATOM      5  C   UNL     1       2.889   3.155  20.310  0.00  0.00    +0.000 C 
ENDROOT
BRANCH   1   6
ATOM      6  N   UNL     1       5.164   2.933  19.340  0.00  0.00    +0.000 NA
ATOM      7  H   UNL     1       5.891   2.218  19.272  0.00  0.00    +0.000 HD
ATOM      8  H   UNL     1       5.384   3.467  20.183  0.00  0.00    +0.000 HD
ENDBRANCH   1   6
BRANCH   3   9
ATOM      9  O   UNL     1       1.245   3.524  17.740  0.00  0.00    +0.000 OA
ATOM     10  H   UNL     1       0.423   3.303  17.260  0.00  0.00    +0.000 HD
ENDBRANCH   3   9
BRANCH   4  11
ATOM     11  O   UNL     1       0.455   3.330  20.371  0.00  0.00    +0.000 OA
ATOM     12  H   UNL     1      -0.108   2.756  20.927  0.00  0.00    +0.000 HD
ENDBRANCH   4  11
BRANCH   5  13
ATOM     13  O   UNL     1       2.933   4.509  19.823  0.00  0.00    +0.000 OA
ATOM     14  H   UNL     1       2.006   4.823  19.913  0.00  0.00    +0.000 HD
ENDBRANCH   5  13
TORSDOF 4
ENDMDL
MODEL 9
REMARK VINA RESULT:      -4.5      1.800      2.426
REMARK  Name = 
REMARK  4 active torsions:
REMARK  status: ('A' for Active; 'I' for Inactive)
REMARK    1  A    between atoms: N_1  and  C_2
REMARK    2  A    between atoms: C_4  and  O_5
REMARK    3  A    between atoms: C_6  and  O_7
REMARK    4  A    between atoms: C_8  and  O_9
REMARK                            x       y       z     vdW  Elec       q    Type
REMARK                         _______ _______ _______ _____ _____    ______ ____
ROOT
ATOM      1  C   UNL     1       5.169   4.405  18.291  0.00  0.00    +0.000 C 
ATOM      2  C   UNL     1       4.807   3.933  16.870  0.00  0.00    +0.000 C 
ATOM      3  C   UNL     1       5.621   4.827  15.914  0.00  0.00    +0.000 C 
ATOM      4  C   UNL     1       6.283   5.888  16.813  0.00  0.00    +0.000 C 
ATOM      5  C   UNL     1       6.514   5.124  18.115  0.00  0.00    +0.000 C 
ENDROOT
BRANCH   1   6
ATOM      6  N   UNL     1       5.269   3.297  19.245  0.00  0.00    +0.000 NA
ATOM      7  H   UNL     1       4.641   2.544  18.956  0.00  0.00    +0.000 HD
ATOM      8  H   UNL     1       4.929   3.601  20.159  0.00  0.00    +0.000 HD
ENDBRANCH   1   6
BRANCH   3   9
ATOM      9  O   UNL     1       6.599   4.021  15.248  0.00  0.00    +0.000 OA
ATOM     10  H   UNL     1       7.418   4.553  15.207  0.00  0.00    +0.000 HD
ENDBRANCH   3   9
BRANCH   4  11
ATOM     11  O   UNL     1       7.491   6.411  16.284  0.00  0.00    +0.000 OA
ATOM     12  H   UNL     1       7.932   5.662  15.838  0.00  0.00    +0.000 HD
ENDBRANCH   4  11
BRANCH   5  13
ATOM     13  O   UNL     1       7.560   4.152  17.934  0.00  0.00    +0.000 OA
ATOM     14  H   UNL     1       7.592   4.018  16.961  0.00  0.00    +0.000 HD
ENDBRANCH   5  13
TORSDOF 4
ENDMDL
