MODEL 1
REMARK VINA RESULT:      -6.8      0.000      0.000
REMARK  Name = 
REMARK  10 active torsions:
REMARK  status: ('A' for Active; 'I' for Inactive)
REMARK    1  A    between atoms: C_1  and  N_2
REMARK    2  A    between atoms: N_5  and  C_6
REMARK    3  A    between atoms: C_11  and  O_12
REMARK    4  A    between atoms: O_12  and  C_13
REMARK    5  A    between atoms: C_14  and  O_15
REMARK    6  A    between atoms: O_15  and  C_16
REMARK    7  A    between atoms: C_17  and  O_18
REMARK    8  A    between atoms: O_18  and  C_19
REMARK    9  A    between atoms: C_24  and  N_25
REMARK   10  A    between atoms: N_25  and  C_26
REMARK                            x       y       z     vdW  Elec       q    Type
REMARK                         _______ _______ _______ _____ _____    ______ ____
ROOT
ATOM      1  C   UNL     1       0.556  12.526  18.537  0.00  0.00    +0.000 C 
ATOM      2  C   UNL     1      -0.734  12.543  17.676  0.00  0.00    +0.000 C 
ATOM      3  C   UNL     1      -1.912  11.769  18.291  0.00  0.00    +0.000 C 
ATOM      4  C   UNL     1      -2.013  12.041  19.776  0.00  0.00    +0.000 A 
ATOM      5  C   UNL     1      -2.997  12.925  20.221  0.00  0.00    +0.000 A 
ATOM      6  C   UNL     1      -3.058  13.307  21.557  0.00  0.00    +0.000 A 
ATOM      7  C   UNL     1      -2.105  12.817  22.484  0.00  0.00    +0.000 A 
ATOM      8  C   UNL     1      -1.104  11.908  22.052  0.00  0.00    +0.000 A 
ATOM      9  C   UNL     1      -1.063  11.509  20.684  0.00  0.00    +0.000 A 
ATOM     10  C   UNL     1      -0.021  10.597  20.087  0.00  0.00    +0.000 A 
ATOM     11  C   UNL     1      -0.045   9.348  20.583  0.00  0.00    +0.000 A 
ATOM     12  C   UNL     1       0.918   8.291  20.450  0.00  0.00    +0.000 A 
ATOM     13  C   UNL     1       1.879   8.047  19.544  0.00  0.00    +0.000 A 
ATOM     14  C   UNL     1       2.047   8.880  18.302  0.00  0.00    +0.000 A 
ATOM     15  O   UNL     1       2.557   8.412  17.280  0.00  0.00    +0.000 OA
ATOM     16  C   UNL     1       1.675  10.309  18.253  0.00  0.00    +0.000 A 
ATOM     17  C   UNL     1       0.848  11.073  18.989  0.00  0.00    +0.000 A 
ENDROOT
BRANCH   1  22
ATOM     18  C   UNL     1       4.802  14.924  18.156  0.00  0.00    +0.000 C 
ATOM     19  N   UNL     1       3.706  14.126  17.670  0.00  0.00    +0.000 N 
ATOM     20  C   UNL     1       2.685  13.773  18.522  0.00  0.00    +0.000 C 
ATOM     21  O   UNL     1       2.664  14.023  19.715  0.00  0.00    +0.000 OA
ATOM     22  N   UNL     1       1.703  13.102  17.833  0.00  0.00    +0.000 N 
ATOM     23  H   UNL     1       3.420  14.281  16.715  0.00  0.00    +0.000 HD
ATOM     24  H   UNL     1       2.108  12.516  17.118  0.00  0.00    +0.000 HD
ENDBRANCH   1  22
BRANCH  13  25
ATOM     25  N   UNL     1       2.748   6.972  19.755  0.00  0.00    +0.000 N 
ATOM     26  C   UNL     1       2.507   5.567  19.510  0.00  0.00    +0.000 C 
ATOM     27  H   UNL     1       3.573   7.178  20.308  0.00  0.00    +0.000 HD
ENDBRANCH  13  25
BRANCH   6  28
ATOM     28  O   UNL     1      -3.991  14.210  22.021  0.00  0.00    +0.000 OA
ATOM     29  C   UNL     1      -5.348  13.778  22.026  0.00  0.00    +0.000 C 
ENDBRANCH   6  28
BRANCH   7  30
ATOM     30  O   UNL     1      -2.293  13.311  23.756  0.00  0.00    +0.000 OA
ATOM     31  C   UNL     1      -1.530  14.408  24.225  0.00  0.00    +0.000 C 
ENDBRANCH   7  30
BRANCH   8  32
ATOM     32  O   UNL     1      -0.296  11.354  23.018  0.00  0.00    +0.000 OA
ATOM     33  C   UNL     1      -0.612  10.054  23.505  0.00  0.00    +0.000 C 
ENDBRANCH   8  32
TORSDOF 5
ENDMDL
MODEL 2
REMARK VINA RESULT:      -6.4      2.961      5.061
REMARK  Name = 
REMARK  10 active torsions:
REMARK  status: ('A' for Active; 'I' for Inactive)
REMARK    1  A    between atoms: C_1  and  N_2
REMARK    2  A    between atoms: N_5  and  C_6
REMARK    3  A    between atoms: C_11  and  O_12
REMARK    4  A    between atoms: O_12  and  C_13
REMARK    5  A    between atoms: C_14  and  O_15
REMARK    6  A    between atoms: O_15  and  C_16
REMARK    7  A    between atoms: C_17  and  O_18
REMARK    8  A    between atoms: O_18  and  C_19
REMARK    9  A    between atoms: C_24  and  N_25
REMARK   10  A    between atoms: N_25  and  C_26
REMARK                            x       y       z     vdW  Elec       q    Type
REMARK                         _______ _______ _______ _____ _____    ______ ____
ROOT
ATOM      1  C   UNL     1      -0.104  12.229  19.032  0.00  0.00    +0.000 C 
ATOM      2  C   UNL     1       0.355  13.559  18.380  0.00  0.00    +0.000 C 
ATOM      3  C   UNL     1      -0.422  14.796  18.860  0.00  0.00    +0.000 C 
ATOM      4  C   UNL     1      -0.638  14.745  20.357  0.00  0.00    +0.000 A 
ATOM      5  C   UNL     1       0.170  15.542  21.169  0.00  0.00    +0.000 A 
ATOM      6  C   UNL     1       0.101  15.445  22.556  0.00  0.00    +0.000 A 
ATOM      7  C   UNL     1      -0.780  14.516  23.163  0.00  0.00    +0.000 A 
ATOM      8  C   UNL     1      -1.618  13.705  22.352  0.00  0.00    +0.000 A 
ATOM      9  C   UNL     1      -1.551  13.827  20.934  0.00  0.00    +0.000 A 
ATOM     10  C   UNL     1      -2.343  12.989  19.962  0.00  0.00    +0.000 A 
ATOM     11  C   UNL     1      -3.672  13.173  20.044  0.00  0.00    +0.000 A 
ATOM     12  C   UNL     1      -4.740  12.401  19.474  0.00  0.00    +0.000 A 
ATOM     13  C   UNL     1      -4.796  11.559  18.429  0.00  0.00    +0.000 A 
ATOM     14  C   UNL     1      -3.632  11.353  17.497  0.00  0.00    +0.000 A 
ATOM     15  O   UNL     1      -3.803  10.999  16.327  0.00  0.00    +0.000 OA
ATOM     16  C   UNL     1      -2.230  11.497  17.941  0.00  0.00    +0.000 A 
ATOM     17  C   UNL     1      -1.649  12.138  18.971  0.00  0.00    +0.000 A 
ENDROOT
BRANCH   1  22
ATOM     18  C   UNL     1       2.122   7.874  18.970  0.00  0.00    +0.000 C 
ATOM     19  N   UNL     1       1.462   9.010  18.381  0.00  0.00    +0.000 N 
ATOM     20  C   UNL     1       1.029  10.042  19.182  0.00  0.00    +0.000 C 
ATOM     21  O   UNL     1       1.090  10.043  20.400  0.00  0.00    +0.000 OA
ATOM     22  N   UNL     1       0.521  11.059  18.411  0.00  0.00    +0.000 N 
ATOM     23  H   UNL     1       1.777   9.295  17.466  0.00  0.00    +0.000 HD
ATOM     24  H   UNL     1       0.035  10.689  17.608  0.00  0.00    +0.000 HD
ENDBRANCH   1  22
BRANCH  13  25
ATOM     25  N   UNL     1      -5.982  10.858  18.189  0.00  0.00    +0.000 N 
ATOM     26  C   UNL     1      -6.793  10.126  19.136  0.00  0.00    +0.000 C 
ATOM     27  H   UNL     1      -6.203  10.692  17.213  0.00  0.00    +0.000 HD
ENDBRANCH  13  25
BRANCH   6  28
ATOM     28  O   UNL     1       0.914  16.187  23.385  0.00  0.00    +0.000 OA
ATOM     29  C   UNL     1       1.057  17.567  23.068  0.00  0.00    +0.000 C 
ENDBRANCH   6  28
BRANCH   7  30
ATOM     30  O   UNL     1      -0.707  14.530  24.538  0.00  0.00    +0.000 OA
ATOM     31  C   UNL     1      -1.631  15.281  25.303  0.00  0.00    +0.000 C 
ENDBRANCH   7  30
BRANCH   8  32
ATOM     32  O   UNL     1      -2.553  12.926  22.994  0.00  0.00    +0.000 OA
ATOM     33  C   UNL     1      -2.218  11.578  23.304  0.00  0.00    +0.000 C 
ENDBRANCH   8  32
TORSDOF 5
ENDMDL
MODEL 3
REMARK VINA RESULT:      -6.3      3.042      5.560
REMARK  Name = 
REMARK  10 active torsions:
REMARK  status: ('A' for Active; 'I' for Inactive)
REMARK    1  A    between atoms: C_1  and  N_2
REMARK    2  A    between atoms: N_5  and  C_6
REMARK    3  A    between atoms: C_11  and  O_12
REMARK    4  A    between atoms: O_12  and  C_13
REMARK    5  A    between atoms: C_14  and  O_15
REMARK    6  A    between atoms: O_15  and  C_16
REMARK    7  A    between atoms: C_17  and  O_18
REMARK    8  A    between atoms: O_18  and  C_19
REMARK    9  A    between atoms: C_24  and  N_25
REMARK   10  A    between atoms: N_25  and  C_26
REMARK                            x       y       z     vdW  Elec       q    Type
REMARK                         _______ _______ _______ _____ _____    ______ ____
ROOT
ATOM      1  C   UNL     1      -1.356  12.105  19.034  0.00  0.00    +0.000 C 
ATOM      2  C   UNL     1      -1.014  11.019  20.087  0.00  0.00    +0.000 C 
ATOM      3  C   UNL     1      -0.828  11.560  21.513  0.00  0.00    +0.000 C 
ATOM      4  C   UNL     1      -1.886  12.592  21.836  0.00  0.00    +0.000 A 
ATOM      5  C   UNL     1      -2.957  12.210  22.645  0.00  0.00    +0.000 A 
ATOM      6  C   UNL     1      -4.021  13.078  22.874  0.00  0.00    +0.000 A 
ATOM      7  C   UNL     1      -4.040  14.359  22.269  0.00  0.00    +0.000 A 
ATOM      8  C   UNL     1      -2.954  14.769  21.451  0.00  0.00    +0.000 A 
ATOM      9  C   UNL     1      -1.861  13.879  21.240  0.00  0.00    +0.000 A 
ATOM     10  C   UNL     1      -0.677  14.169  20.352  0.00  0.00    +0.000 A 
ATOM     11  C   UNL     1       0.077  15.199  20.774  0.00  0.00    +0.000 A 
ATOM     12  C   UNL     1       1.115  15.914  20.087  0.00  0.00    +0.000 A 
ATOM     13  C   UNL     1       1.912  15.591  19.054  0.00  0.00    +0.000 A 
ATOM     14  C   UNL     1       1.929  14.213  18.450  0.00  0.00    +0.000 A 
ATOM     15  O   UNL     1       2.931  13.777  17.877  0.00  0.00    +0.000 OA
ATOM     16  C   UNL     1       0.739  13.336  18.449  0.00  0.00    +0.000 A 
ATOM     17  C   UNL     1      -0.379  13.297  19.196  0.00  0.00    +0.000 A 
ENDROOT
BRANCH   1  22
ATOM     18  C   UNL     1      -3.299  10.348  14.903  0.00  0.00    +0.000 C 
ATOM     19  N   UNL     1      -2.238  10.862  15.731  0.00  0.00    +0.000 N 
ATOM     20  C   UNL     1      -2.496  11.215  17.035  0.00  0.00    +0.000 C 
ATOM     21  O   UNL     1      -3.603  11.202  17.548  0.00  0.00    +0.000 OA
ATOM     22  N   UNL     1      -1.333  11.583  17.666  0.00  0.00    +0.000 N 
ATOM     23  H   UNL     1      -1.316  10.483  15.575  0.00  0.00    +0.000 HD
ATOM     24  H   UNL     1      -0.722  12.074  17.030  0.00  0.00    +0.000 HD
ENDBRANCH   1  22
BRANCH  13  25
ATOM     25  N   UNL     1       2.765  16.567  18.529  0.00  0.00    +0.000 N 
ATOM     26  C   UNL     1       2.756  17.140  17.202  0.00  0.00    +0.000 C 
ATOM     27  H   UNL     1       3.594  16.765  19.079  0.00  0.00    +0.000 HD
ENDBRANCH  13  25
BRANCH   6  28
ATOM     28  O   UNL     1      -5.113  12.716  23.634  0.00  0.00    +0.000 OA
ATOM     29  C   UNL     1      -4.853  12.342  24.983  0.00  0.00    +0.000 C 
ENDBRANCH   6  28
BRANCH   7  30
ATOM     30  O   UNL     1      -5.172  15.079  22.578  0.00  0.00    +0.000 OA
ATOM     31  C   UNL     1      -6.208  15.242  21.627  0.00  0.00    +0.000 C 
ENDBRANCH   7  30
BRANCH   8  32
ATOM     32  O   UNL     1      -2.956  16.071  21.007  0.00  0.00    +0.000 OA
ATOM     33  C   UNL     1      -2.665  17.107  21.938  0.00  0.00    +0.000 C 
ENDBRANCH   8  32
TORSDOF 5
ENDMDL
MODEL 4
REMARK VINA RESULT:      -6.2      2.838      5.111
REMARK  Name = 
REMARK  10 active torsions:
REMARK  status: ('A' for Active; 'I' for Inactive)
REMARK    1  A    between atoms: C_1  and  N_2
REMARK    2  A    between atoms: N_5  and  C_6
REMARK    3  A    between atoms: C_11  and  O_12
REMARK    4  A    between atoms: O_12  and  C_13
REMARK    5  A    between atoms: C_14  and  O_15
REMARK    6  A    between atoms: O_15  and  C_16
REMARK    7  A    between atoms: C_17  and  O_18
REMARK    8  A    between atoms: O_18  and  C_19
REMARK    9  A    between atoms: C_24  and  N_25
REMARK   10  A    between atoms: N_25  and  C_26
REMARK                            x       y       z     vdW  Elec       q    Type
REMARK                         _______ _______ _______ _____ _____    ______ ____
ROOT
ATOM      1  C   UNL     1      -0.972  12.178  19.453  0.00  0.00    +0.000 C 
ATOM      2  C   UNL     1      -0.830  10.851  20.243  0.00  0.00    +0.000 C 
ATOM      3  C   UNL     1      -0.424  11.035  21.714  0.00  0.00    +0.000 C 
ATOM      4  C   UNL     1      -1.182  12.186  22.338  0.00  0.00    +0.000 A 
ATOM      5  C   UNL     1      -2.256  11.893  23.179  0.00  0.00    +0.000 A 
ATOM      6  C   UNL     1      -3.065  12.907  23.682  0.00  0.00    +0.000 A 
ATOM      7  C   UNL     1      -2.819  14.257  23.328  0.00  0.00    +0.000 A 
ATOM      8  C   UNL     1      -1.724  14.576  22.482  0.00  0.00    +0.000 A 
ATOM      9  C   UNL     1      -0.891  13.530  21.989  0.00  0.00    +0.000 A 
ATOM     10  C   UNL     1       0.265  13.728  21.042  0.00  0.00    +0.000 A 
ATOM     11  C   UNL     1       1.270  14.457  21.557  0.00  0.00    +0.000 A 
ATOM     12  C   UNL     1       2.400  15.051  20.900  0.00  0.00    +0.000 A 
ATOM     13  C   UNL     1       3.026  14.779  19.743  0.00  0.00    +0.000 A 
ATOM     14  C   UNL     1       2.673  13.584  18.898  0.00  0.00    +0.000 A 
ATOM     15  O   UNL     1       3.502  13.064  18.146  0.00  0.00    +0.000 OA
ATOM     16  C   UNL     1       1.312  13.010  18.871  0.00  0.00    +0.000 A 
ATOM     17  C   UNL     1       0.269  13.066  19.719  0.00  0.00    +0.000 A 
ENDROOT
BRANCH   1  22
ATOM     18  C   UNL     1      -3.467  10.921  15.437  0.00  0.00    +0.000 C 
ATOM     19  N   UNL     1      -2.346  11.465  16.161  0.00  0.00    +0.000 N 
ATOM     20  C   UNL     1      -2.365  11.491  17.536  0.00  0.00    +0.000 C 
ATOM     21  O   UNL     1      -3.317  11.151  18.219  0.00  0.00    +0.000 OA
ATOM     22  N   UNL     1      -1.166  11.955  18.019  0.00  0.00    +0.000 N 
ATOM     23  H   UNL     1      -1.432  11.320  15.758  0.00  0.00    +0.000 HD
ATOM     24  H   UNL     1      -0.795  12.676  17.418  0.00  0.00    +0.000 HD
ENDBRANCH   1  22
BRANCH  13  25
ATOM     25  N   UNL     1       4.049  15.628  19.313  0.00  0.00    +0.000 N 
ATOM     26  C   UNL     1       4.036  16.551  18.200  0.00  0.00    +0.000 C 
ATOM     27  H   UNL     1       4.964  15.450  19.714  0.00  0.00    +0.000 HD
ENDBRANCH  13  25
BRANCH   6  28
ATOM     28  O   UNL     1      -4.158  12.648  24.481  0.00  0.00    +0.000 OA
ATOM     29  C   UNL     1      -5.427  12.625  23.835  0.00  0.00    +0.000 C 
ENDBRANCH   6  28
BRANCH   7  30
ATOM     30  O   UNL     1      -3.724  15.130  23.889  0.00  0.00    +0.000 OA
ATOM     31  C   UNL     1      -3.377  15.897  25.028  0.00  0.00    +0.000 C 
ENDBRANCH   7  30
BRANCH   8  32
ATOM     32  O   UNL     1      -1.446  15.909  22.287  0.00  0.00    +0.000 OA
ATOM     33  C   UNL     1      -2.062  16.580  21.193  0.00  0.00    +0.000 C 
ENDBRANCH   8  32
TORSDOF 5
ENDMDL
MODEL 5
REMARK VINA RESULT:      -5.9      3.782      6.109
REMARK  Name = 
REMARK  10 active torsions:
REMARK  status: ('A' for Active; 'I' for Inactive)
REMARK    1  A    between atoms: C_1  and  N_2
REMARK    2  A    between atoms: N_5  and  C_6
REMARK    3  A    between atoms: C_11  and  O_12
REMARK    4  A    between atoms: O_12  and  C_13
REMARK    5  A    between atoms: C_14  and  O_15
REMARK    6  A    between atoms: O_15  and  C_16
REMARK    7  A    between atoms: C_17  and  O_18
REMARK    8  A    between atoms: O_18  and  C_19
REMARK    9  A    between atoms: C_24  and  N_25
REMARK   10  A    between atoms: N_25  and  C_26
REMARK                            x       y       z     vdW  Elec       q    Type
REMARK                         _______ _______ _______ _____ _____    ______ ____
ROOT
ATOM      1  C   UNL     1      -4.541  13.996  20.630  0.00  0.00    +0.000 C 
ATOM      2  C   UNL     1      -5.058  13.378  21.955  0.00  0.00    +0.000 C 
ATOM      3  C   UNL     1      -4.021  12.519  22.696  0.00  0.00    +0.000 C 
ATOM      4  C   UNL     1      -2.662  13.184  22.675  0.00  0.00    +0.000 A 
ATOM      5  C   UNL     1      -2.227  13.836  23.830  0.00  0.00    +0.000 A 
ATOM      6  C   UNL     1      -1.044  14.569  23.830  0.00  0.00    +0.000 A 
ATOM      7  C   UNL     1      -0.273  14.680  22.647  0.00  0.00    +0.000 A 
ATOM      8  C   UNL     1      -0.694  14.013  21.465  0.00  0.00    +0.000 A 
ATOM      9  C   UNL     1      -1.898  13.251  21.483  0.00  0.00    +0.000 A 
ATOM     10  C   UNL     1      -2.483  12.544  20.286  0.00  0.00    +0.000 A 
ATOM     11  C   UNL     1      -1.711  11.552  19.810  0.00  0.00    +0.000 A 
ATOM     12  C   UNL     1      -1.806  10.832  18.571  0.00  0.00    +0.000 A 
ATOM     13  C   UNL     1      -2.824  10.615  17.722  0.00  0.00    +0.000 A 
ATOM     14  C   UNL     1      -4.234  11.046  18.027  0.00  0.00    +0.000 A 
ATOM     15  O   UNL     1      -5.203  10.460  17.536  0.00  0.00    +0.000 OA
ATOM     16  C   UNL     1      -4.536  12.221  18.870  0.00  0.00    +0.000 A 
ATOM     17  C   UNL     1      -3.834  12.897  19.797  0.00  0.00    +0.000 A 
ENDROOT
BRANCH   1  22
ATOM     18  C   UNL     1      -7.091  17.769  18.845  0.00  0.00    +0.000 C 
ATOM     19  N   UNL     1      -6.724  16.381  18.964  0.00  0.00    +0.000 N 
ATOM     20  C   UNL     1      -5.725  16.008  19.833  0.00  0.00    +0.000 C 
ATOM     21  O   UNL     1      -5.045  16.788  20.478  0.00  0.00    +0.000 OA
ATOM     22  N   UNL     1      -5.607  14.640  19.861  0.00  0.00    +0.000 N 
ATOM     23  H   UNL     1      -7.467  15.705  18.866  0.00  0.00    +0.000 HD
ATOM     24  H   UNL     1      -5.772  14.249  18.945  0.00  0.00    +0.000 HD
ENDBRANCH   1  22
BRANCH  13  25
ATOM     25  N   UNL     1      -2.568   9.954  16.517  0.00  0.00    +0.000 N 
ATOM     26  C   UNL     1      -2.819  10.422  15.172  0.00  0.00    +0.000 C 
ATOM     27  H   UNL     1      -2.349   8.967  16.597  0.00  0.00    +0.000 HD
ENDBRANCH  13  25
BRANCH   6  28
ATOM     28  O   UNL     1      -0.607  15.258  24.941  0.00  0.00    +0.000 OA
ATOM     29  C   UNL     1      -1.601  15.629  25.891  0.00  0.00    +0.000 C 
ENDBRANCH   6  28
BRANCH   7  30
ATOM     30  O   UNL     1       0.851  15.458  22.812  0.00  0.00    +0.000 OA
ATOM     31  C   UNL     1       0.862  16.810  22.394  0.00  0.00    +0.000 C 
ENDBRANCH   7  30
BRANCH   8  32
ATOM     32  O   UNL     1       0.163  14.036  20.390  0.00  0.00    +0.000 OA
ATOM     33  C   UNL     1      -0.091  14.962  19.338  0.00  0.00    +0.000 C 
ENDBRANCH   8  32
TORSDOF 5
ENDMDL
MODEL 6
REMARK VINA RESULT:      -5.9      6.568     10.317
REMARK  Name = 
REMARK  10 active torsions:
REMARK  status: ('A' for Active; 'I' for Inactive)
REMARK    1  A    between atoms: C_1  and  N_2
REMARK    2  A    between atoms: N_5  and  C_6
REMARK    3  A    between atoms: C_11  and  O_12
REMARK    4  A    between atoms: O_12  and  C_13
REMARK    5  A    between atoms: C_14  and  O_15
REMARK    6  A    between atoms: O_15  and  C_16
REMARK    7  A    between atoms: C_17  and  O_18
REMARK    8  A    between atoms: O_18  and  C_19
REMARK    9  A    between atoms: C_24  and  N_25
REMARK   10  A    between atoms: N_25  and  C_26
REMARK                            x       y       z     vdW  Elec       q    Type
REMARK                         _______ _______ _______ _____ _____    ______ ____
ROOT
ATOM      1  C   UNL     1       6.279  15.624  20.574  0.00  0.00    +0.000 C 
ATOM      2  C   UNL     1       7.113  16.875  20.955  0.00  0.00    +0.000 C 
ATOM      3  C   UNL     1       8.589  16.577  21.265  0.00  0.00    +0.000 C 
ATOM      4  C   UNL     1       9.156  15.588  20.270  0.00  0.00    +0.000 A 
ATOM      5  C   UNL     1       9.975  16.073  19.249  0.00  0.00    +0.000 A 
ATOM      6  C   UNL     1      10.424  15.232  18.236  0.00  0.00    +0.000 A 
ATOM      7  C   UNL     1      10.036  13.869  18.216  0.00  0.00    +0.000 A 
ATOM      8  C   UNL     1       9.212  13.355  19.253  0.00  0.00    +0.000 A 
ATOM      9  C   UNL     1       8.774  14.223  20.295  0.00  0.00    +0.000 A 
ATOM     10  C   UNL     1       7.855  13.818  21.420  0.00  0.00    +0.000 A 
ATOM     11  C   UNL     1       8.376  12.888  22.239  0.00  0.00    +0.000 A 
ATOM     12  C   UNL     1       7.733  12.093  23.247  0.00  0.00    +0.000 A 
ATOM     13  C   UNL     1       6.602  12.261  23.953  0.00  0.00    +0.000 A 
ATOM     14  C   UNL     1       5.784  13.522  23.877  0.00  0.00    +0.000 A 
ATOM     15  O   UNL     1       5.072  13.881  24.819  0.00  0.00    +0.000 OA
ATOM     16  C   UNL     1       5.736  14.361  22.661  0.00  0.00    +0.000 A 
ATOM     17  C   UNL     1       6.553  14.496  21.601  0.00  0.00    +0.000 A 
ENDROOT
BRANCH   1  22
ATOM     18  C   UNL     1       2.053  16.478  18.264  0.00  0.00    +0.000 C 
ATOM     19  N   UNL     1       2.883  16.216  19.412  0.00  0.00    +0.000 N 
ATOM     20  C   UNL     1       4.240  16.056  19.253  0.00  0.00    +0.000 C 
ATOM     21  O   UNL     1       4.812  16.039  18.176  0.00  0.00    +0.000 OA
ATOM     22  N   UNL     1       4.848  15.916  20.477  0.00  0.00    +0.000 N 
ATOM     23  H   UNL     1       2.613  16.657  20.278  0.00  0.00    +0.000 HD
ATOM     24  H   UNL     1       4.259  15.394  21.109  0.00  0.00    +0.000 HD
ENDBRANCH   1  22
BRANCH  13  25
ATOM     25  N   UNL     1       6.176  11.232  24.798  0.00  0.00    +0.000 N 
ATOM     26  C   UNL     1       6.332  11.131  26.232  0.00  0.00    +0.000 C 
ATOM     27  H   UNL     1       5.883  10.378  24.335  0.00  0.00    +0.000 HD
ENDBRANCH  13  25
BRANCH   6  28
ATOM     28  O   UNL     1      11.199  15.688  17.192  0.00  0.00    +0.000 OA
ATOM     29  C   UNL     1      11.883  16.919  17.398  0.00  0.00    +0.000 C 
ENDBRANCH   6  28
BRANCH   7  30
ATOM     30  O   UNL     1      10.545  13.184  17.136  0.00  0.00    +0.000 OA
ATOM     31  C   UNL     1      11.848  12.632  17.179  0.00  0.00    +0.000 C 
ENDBRANCH   7  30
BRANCH   8  32
ATOM     32  O   UNL     1       8.985  11.999  19.263  0.00  0.00    +0.000 OA
ATOM     33  C   UNL     1       9.993  11.144  19.791  0.00  0.00    +0.000 C 
ENDBRANCH   8  32
TORSDOF 5
ENDMDL
MODEL 7
REMARK VINA RESULT:      -5.8      3.358      7.155
REMARK  Name = 
REMARK  10 active torsions:
REMARK  status: ('A' for Active; 'I' for Inactive)
REMARK    1  A    between atoms: C_1  and  N_2
REMARK    2  A    between atoms: N_5  and  C_6
REMARK    3  A    between atoms: C_11  and  O_12
REMARK    4  A    between atoms: O_12  and  C_13
REMARK    5  A    between atoms: C_14  and  O_15
REMARK    6  A    between atoms: O_15  and  C_16
REMARK    7  A    between atoms: C_17  and  O_18
REMARK    8  A    between atoms: O_18  and  C_19
REMARK    9  A    between atoms: C_24  and  N_25
REMARK   10  A    between atoms: N_25  and  C_26
REMARK                            x       y       z     vdW  Elec       q    Type
REMARK                         _______ _______ _______ _____ _____    ______ ____
ROOT
ATOM      1  C   UNL     1      -1.245  14.694  20.406  0.00  0.00    +0.000 C 
ATOM      2  C   UNL     1      -0.213  13.916  21.264  0.00  0.00    +0.000 C 
ATOM      3  C   UNL     1      -0.621  12.468  21.579  0.00  0.00    +0.000 C 
ATOM      4  C   UNL     1      -1.216  11.802  20.358  0.00  0.00    +0.000 A 
ATOM      5  C   UNL     1      -0.423  10.906  19.641  0.00  0.00    +0.000 A 
ATOM      6  C   UNL     1      -0.872  10.358  18.443  0.00  0.00    +0.000 A 
ATOM      7  C   UNL     1      -2.139  10.721  17.923  0.00  0.00    +0.000 A 
ATOM      8  C   UNL     1      -2.965  11.623  18.646  0.00  0.00    +0.000 A 
ATOM      9  C   UNL     1      -2.502  12.162  19.881  0.00  0.00    +0.000 A 
ATOM     10  C   UNL     1      -3.255  13.169  20.713  0.00  0.00    +0.000 A 
ATOM     11  C   UNL     1      -4.417  12.706  21.205  0.00  0.00    +0.000 A 
ATOM     12  C   UNL     1      -5.500  13.420  21.820  0.00  0.00    +0.000 A 
ATOM     13  C   UNL     1      -5.568  14.610  22.441  0.00  0.00    +0.000 A 
ATOM     14  C   UNL     1      -4.346  15.438  22.732  0.00  0.00    +0.000 A 
ATOM     15  O   UNL     1      -4.321  16.235  23.675  0.00  0.00    +0.000 OA
ATOM     16  C   UNL     1      -3.140  15.395  21.879  0.00  0.00    +0.000 A 
ATOM     17  C   UNL     1      -2.660  14.492  21.004  0.00  0.00    +0.000 A 
ENDROOT
BRANCH   1  22
ATOM     18  C   UNL     1       0.885  18.630  18.432  0.00  0.00    +0.000 C 
ATOM     19  N   UNL     1      -0.010  17.941  19.326  0.00  0.00    +0.000 N 
ATOM     20  C   UNL     1      -0.082  16.567  19.299  0.00  0.00    +0.000 C 
ATOM     21  O   UNL     1       0.510  15.861  18.501  0.00  0.00    +0.000 OA
ATOM     22  N   UNL     1      -0.916  16.116  20.293  0.00  0.00    +0.000 N 
ATOM     23  H   UNL     1      -0.143  18.349  20.240  0.00  0.00    +0.000 HD
ATOM     24  H   UNL     1      -1.693  16.748  20.420  0.00  0.00    +0.000 HD
ENDBRANCH   1  22
BRANCH  13  25
ATOM     25  N   UNL     1      -6.818  15.092  22.841  0.00  0.00    +0.000 N 
ATOM     26  C   UNL     1      -7.678  14.582  23.885  0.00  0.00    +0.000 C 
ATOM     27  H   UNL     1      -7.251  15.761  22.214  0.00  0.00    +0.000 HD
ENDBRANCH  13  25
BRANCH   6  28
ATOM     28  O   UNL     1      -0.097   9.503  17.690  0.00  0.00    +0.000 OA
ATOM     29  C   UNL     1       1.290   9.454  18.008  0.00  0.00    +0.000 C 
ENDBRANCH   6  28
BRANCH   7  30
ATOM     30  O   UNL     1      -2.419  10.110  16.722  0.00  0.00    +0.000 OA
ATOM     31  C   UNL     1      -2.744  10.879  15.578  0.00  0.00    +0.000 C 
ENDBRANCH   7  30
BRANCH   8  32
ATOM     32  O   UNL     1      -4.239  11.829  18.169  0.00  0.00    +0.000 OA
ATOM     33  C   UNL     1      -5.213  10.810  18.370  0.00  0.00    +0.000 C 
ENDBRANCH   8  32
TORSDOF 5
ENDMDL
MODEL 8
REMARK VINA RESULT:      -5.8      2.309      5.455
REMARK  Name = 
REMARK  10 active torsions:
REMARK  status: ('A' for Active; 'I' for Inactive)
REMARK    1  A    between atoms: C_1  and  N_2
REMARK    2  A    between atoms: N_5  and  C_6
REMARK    3  A    between atoms: C_11  and  O_12
REMARK    4  A    between atoms: O_12  and  C_13
REMARK    5  A    between atoms: C_14  and  O_15
REMARK    6  A    between atoms: O_15  and  C_16
REMARK    7  A    between atoms: C_17  and  O_18
REMARK    8  A    between atoms: O_18  and  C_19
REMARK    9  A    between atoms: C_24  and  N_25
REMARK   10  A    between atoms: N_25  and  C_26
REMARK                            x       y       z     vdW  Elec       q    Type
REMARK                         _______ _______ _______ _____ _____    ______ ____
ROOT
ATOM      1  C   UNL     1      -0.757  11.130  21.838  0.00  0.00    +0.000 C 
ATOM      2  C   UNL     1      -1.177  11.898  23.119  0.00  0.00    +0.000 C 
ATOM      3  C   UNL     1      -2.007  13.164  22.850  0.00  0.00    +0.000 C 
ATOM      4  C   UNL     1      -3.038  12.909  21.773  0.00  0.00    +0.000 A 
ATOM      5  C   UNL     1      -4.364  12.712  22.161  0.00  0.00    +0.000 A 
ATOM      6  C   UNL     1      -5.332  12.352  21.228  0.00  0.00    +0.000 A 
ATOM      7  C   UNL     1      -4.978  12.160  19.869  0.00  0.00    +0.000 A 
ATOM      8  C   UNL     1      -3.635  12.367  19.455  0.00  0.00    +0.000 A 
ATOM      9  C   UNL     1      -2.657  12.754  20.416  0.00  0.00    +0.000 A 
ATOM     10  C   UNL     1      -1.192  12.950  20.118  0.00  0.00    +0.000 A 
ATOM     11  C   UNL     1      -0.941  13.961  19.268  0.00  0.00    +0.000 A 
ATOM     12  C   UNL     1       0.269  14.292  18.571  0.00  0.00    +0.000 A 
ATOM     13  C   UNL     1       1.560  14.004  18.805  0.00  0.00    +0.000 A 
ATOM     14  C   UNL     1       2.016  13.298  20.053  0.00  0.00    +0.000 A 
ATOM     15  O   UNL     1       3.156  13.456  20.499  0.00  0.00    +0.000 OA
ATOM     16  C   UNL     1       1.157  12.336  20.775  0.00  0.00    +0.000 A 
ATOM     17  C   UNL     1      -0.172  12.132  20.811  0.00  0.00    +0.000 A 
ENDROOT
BRANCH   1  22
ATOM     18  C   UNL     1       1.819   7.092  20.846  0.00  0.00    +0.000 C 
ATOM     19  N   UNL     1       1.445   8.242  21.628  0.00  0.00    +0.000 N 
ATOM     20  C   UNL     1       0.450   9.081  21.182  0.00  0.00    +0.000 C 
ATOM     21  O   UNL     1      -0.110   8.975  20.104  0.00  0.00    +0.000 OA
ATOM     22  N   UNL     1       0.189  10.049  22.121  0.00  0.00    +0.000 N 
ATOM     23  H   UNL     1       1.489   8.143  22.631  0.00  0.00    +0.000 HD
ATOM     24  H   UNL     1       1.038  10.332  22.586  0.00  0.00    +0.000 HD
ENDBRANCH   1  22
BRANCH  13  25
ATOM     25  N   UNL     1       2.518  14.383  17.859  0.00  0.00    +0.000 N 
ATOM     26  C   UNL     1       3.213  15.646  17.750  0.00  0.00    +0.000 C 
ATOM     27  H   UNL     1       2.605  13.772  17.055  0.00  0.00    +0.000 HD
ENDBRANCH  13  25
BRANCH   6  28
ATOM     28  O   UNL     1      -6.642  12.110  21.584  0.00  0.00    +0.000 OA
ATOM     29  C   UNL     1      -7.152  12.861  22.681  0.00  0.00    +0.000 C 
ENDBRANCH   6  28
BRANCH   7  30
ATOM     30  O   UNL     1      -6.046  11.784  19.087  0.00  0.00    +0.000 OA
ATOM     31  C   UNL     1      -6.267  10.421  18.771  0.00  0.00    +0.000 C 
ENDBRANCH   7  30
BRANCH   8  32
ATOM     32  O   UNL     1      -3.377  12.307  18.105  0.00  0.00    +0.000 OA
ATOM     33  C   UNL     1      -2.868  11.093  17.563  0.00  0.00    +0.000 C 
ENDBRANCH   8  32
TORSDOF 5
ENDMDL
MODEL 9
REMARK VINA RESULT:      -5.8      3.241      5.553
REMARK  Name = 
REMARK  10 active torsions:
REMARK  status: ('A' for Active; 'I' for Inactive)
REMARK    1  A    between atoms: C_1  and  N_2
REMARK    2  A    between atoms: N_5  and  C_6
REMARK    3  A    between atoms: C_11  and  O_12
REMARK    4  A    between atoms: O_12  and  C_13
REMARK    5  A    between atoms: C_14  and  O_15
REMARK    6  A    between atoms: O_15  and  C_16
REMARK    7  A    between atoms: C_17  and  O_18
REMARK    8  A    between atoms: O_18  and  C_19
REMARK    9  A    between atoms: C_24  and  N_25
REMARK   10  A    between atoms: N_25  and  C_26
REMARK                            x       y       z     vdW  Elec       q    Type
REMARK                         _______ _______ _______ _____ _____    ______ ____
ROOT
ATOM      1  C   UNL     1      -1.297  12.431  20.060  0.00  0.00    +0.000 C 
ATOM      2  C   UNL     1      -1.186  11.196  20.991  0.00  0.00    +0.000 C 
ATOM      3  C   UNL     1      -1.085  11.541  22.486  0.00  0.00    +0.000 C 
ATOM      4  C   UNL     1      -2.049  12.651  22.845  0.00  0.00    +0.000 A 
ATOM      5  C   UNL     1      -3.232  12.312  23.504  0.00  0.00    +0.000 A 
ATOM      6  C   UNL     1      -4.210  13.271  23.749  0.00  0.00    +0.000 A 
ATOM      7  C   UNL     1      -4.025  14.607  23.313  0.00  0.00    +0.000 A 
ATOM      8  C   UNL     1      -2.822  14.972  22.650  0.00  0.00    +0.000 A 
ATOM      9  C   UNL     1      -1.820  13.985  22.422  0.00  0.00    +0.000 A 
ATOM     10  C   UNL     1      -0.528  14.229  21.684  0.00  0.00    +0.000 A 
ATOM     11  C   UNL     1       0.291  15.101  22.297  0.00  0.00    +0.000 A 
ATOM     12  C   UNL     1       1.466  15.759  21.799  0.00  0.00    +0.000 A 
ATOM     13  C   UNL     1       2.321  15.462  20.806  0.00  0.00    +0.000 A 
ATOM     14  C   UNL     1       2.245  14.172  20.034  0.00  0.00    +0.000 A 
ATOM     15  O   UNL     1       3.245  13.685  19.500  0.00  0.00    +0.000 OA
ATOM     16  C   UNL     1       0.971  13.454  19.820  0.00  0.00    +0.000 A 
ATOM     17  C   UNL     1      -0.214  13.466  20.456  0.00  0.00    +0.000 A 
ENDROOT
BRANCH   1  22
ATOM     18  C   UNL     1      -2.981  11.030  15.687  0.00  0.00    +0.000 C 
ATOM     19  N   UNL     1      -1.986  11.518  16.607  0.00  0.00    +0.000 N 
ATOM     20  C   UNL     1      -2.308  11.699  17.932  0.00  0.00    +0.000 C 
ATOM     21  O   UNL     1      -3.425  11.550  18.397  0.00  0.00    +0.000 OA
ATOM     22  N   UNL     1      -1.195  12.073  18.645  0.00  0.00    +0.000 N 
ATOM     23  H   UNL     1      -1.034  11.225  16.444  0.00  0.00    +0.000 HD
ATOM     24  H   UNL     1      -0.603  12.675  18.091  0.00  0.00    +0.000 HD
ENDBRANCH   1  22
BRANCH  13  25
ATOM     25  N   UNL     1       3.326  16.380  20.485  0.00  0.00    +0.000 N 
ATOM     26  C   UNL     1       3.268  17.823  20.539  0.00  0.00    +0.000 C 
ATOM     27  H   UNL     1       4.125  15.998  19.989  0.00  0.00    +0.000 HD
ENDBRANCH  13  25
BRANCH   6  28
ATOM     28  O   UNL     1      -5.406  12.961  24.360  0.00  0.00    +0.000 OA
ATOM     29  C   UNL     1      -6.492  12.632  23.500  0.00  0.00    +0.000 C 
ENDBRANCH   6  28
BRANCH   7  30
ATOM     30  O   UNL     1      -5.095  15.420  23.612  0.00  0.00    +0.000 OA
ATOM     31  C   UNL     1      -4.973  16.448  24.578  0.00  0.00    +0.000 C 
ENDBRANCH   7  30
BRANCH   8  32
ATOM     32  O   UNL     1      -2.635  16.307  22.377  0.00  0.00    +0.000 OA
ATOM     33  C   UNL     1      -3.056  16.808  21.113  0.00  0.00    +0.000 C 
ENDBRANCH   8  32
TORSDOF 5
ENDMDL
