MODEL 1
REMARK VINA RESULT:      -7.9      0.000      0.000
REMARK  Name = 
REMARK  7 active torsions:
REMARK  status: ('A' for Active; 'I' for Inactive)
REMARK    1  A    between atoms: C_1  and  C_2
REMARK    2  A    between atoms: C_5  and  S_6
REMARK    3  A    between atoms: S_6  and  O_9
REMARK    4  A    between atoms: O_9  and  C_10
REMARK    5  A    between atoms: C_10  and  C_11
REMARK    6  A    between atoms: C_13  and  N_14
REMARK    7  A    between atoms: C_23  and  O_24
REMARK                            x       y       z     vdW  Elec       q    Type
REMARK                         _______ _______ _______ _____ _____    ______ ____
ROOT
ATOM      1  C   UNL     1       4.190   6.639  17.543  0.00  0.00    +0.000 C 
ATOM      2  O   UNL     1       3.247   5.551  17.428  0.00  0.00    +0.000 OA
ATOM      3  C   UNL     1       2.113   5.811  18.282  0.00  0.00    +0.000 C 
ATOM      4  C   UNL     1       2.255   7.234  18.823  0.00  0.00    +0.000 C 
ATOM      5  C   UNL     1       3.356   7.827  17.989  0.00  0.00    +0.000 C 
ENDROOT
BRANCH   3   6
ATOM      6  N   UNL     1       2.002   4.812  19.346  0.00  0.00    +0.000 N 
ATOM      7  C   UNL     1       2.498   5.037  20.616  0.00  0.00    +0.000 A 
ATOM      8  C   UNL     1       2.360   4.149  21.602  0.00  0.00    +0.000 A 
ATOM      9  C   UNL     1       1.669   2.879  21.321  0.00  0.00    +0.000 A 
ATOM     10  O   UNL     1       1.496   2.050  22.202  0.00  0.00    +0.000 OA
ATOM     11  N   UNL     1       1.254   2.705  20.037  0.00  0.00    +0.000 N 
ATOM     12  C   UNL     1       1.400   3.600  19.013  0.00  0.00    +0.000 A 
ATOM     13  O   UNL     1       0.983   3.322  17.890  0.00  0.00    +0.000 OA
ATOM     14  H   UNL     1       0.782   1.841  19.820  0.00  0.00    +0.000 HD
ENDBRANCH   3   6
BRANCH   5  15
ATOM     15  O   UNL     1       2.738   8.423  16.831  0.00  0.00    +0.000 OA
ATOM     16  H   UNL     1       3.173   8.057  16.033  0.00  0.00    +0.000 HD
ENDBRANCH   5  15
BRANCH   1  17
ATOM     17  C   UNL     1       5.360   6.160  18.421  0.00  0.00    +0.000 C 
BRANCH  17  18
ATOM     18  O   UNL     1       5.968   4.966  17.875  0.00  0.00    +0.000 OA
BRANCH  18  19
ATOM     19  S   UNL     1       7.198   5.148  16.804  0.00  0.00    +0.000 S 
ATOM     20  O   UNL     1       8.232   4.201  17.190  0.00  0.00    +0.000 OA
ATOM     21  O   UNL     1       7.491   6.556  16.669  0.00  0.00    +0.000 OA
BRANCH  19  26
ATOM     22  C   UNL     1       5.215   3.116  11.437  0.00  0.00    +0.000 C 
ATOM     23  C   UNL     1       5.702   3.656  12.750  0.00  0.00    +0.000 A 
ATOM     24  C   UNL     1       6.973   4.245  12.864  0.00  0.00    +0.000 A 
ATOM     25  C   UNL     1       7.422   4.745  14.088  0.00  0.00    +0.000 A 
ATOM     26  C   UNL     1       6.598   4.647  15.211  0.00  0.00    +0.000 A 
ATOM     27  C   UNL     1       5.333   4.064  15.114  0.00  0.00    +0.000 A 
ATOM     28  C   UNL     1       4.888   3.569  13.888  0.00  0.00    +0.000 A 
ENDBRANCH  19  26
ENDBRANCH  18  19
ENDBRANCH  17  18
ENDBRANCH   1  17
TORSDOF 6
ENDMDL
MODEL 2
REMARK VINA RESULT:      -7.8      0.476      1.045
REMARK  Name = 
REMARK  7 active torsions:
REMARK  status: ('A' for Active; 'I' for Inactive)
REMARK    1  A    between atoms: C_1  and  C_2
REMARK    2  A    between atoms: C_5  and  S_6
REMARK    3  A    between atoms: S_6  and  O_9
REMARK    4  A    between atoms: O_9  and  C_10
REMARK    5  A    between atoms: C_10  and  C_11
REMARK    6  A    between atoms: C_13  and  N_14
REMARK    7  A    between atoms: C_23  and  O_24
REMARK                            x       y       z     vdW  Elec       q    Type
REMARK                         _______ _______ _______ _____ _____    ______ ____
ROOT
ATOM      1  C   UNL     1       4.355   6.354  17.775  0.00  0.00    +0.000 C 
ATOM      2  O   UNL     1       3.457   5.234  17.616  0.00  0.00    +0.000 OA
ATOM      3  C   UNL     1       2.217   5.516  18.297  0.00  0.00    +0.000 C 
ATOM      4  C   UNL     1       2.257   6.976  18.751  0.00  0.00    +0.000 C 
ATOM      5  C   UNL     1       3.444   7.544  18.027  0.00  0.00    +0.000 C 
ENDROOT
BRANCH   3   6
ATOM      6  N   UNL     1       1.989   4.587  19.406  0.00  0.00    +0.000 N 
ATOM      7  C   UNL     1       2.526   4.800  20.661  0.00  0.00    +0.000 A 
ATOM      8  C   UNL     1       2.285   3.981  21.686  0.00  0.00    +0.000 A 
ATOM      9  C   UNL     1       1.431   2.801  21.467  0.00  0.00    +0.000 A 
ATOM     10  O   UNL     1       1.162   2.041  22.385  0.00  0.00    +0.000 OA
ATOM     11  N   UNL     1       0.981   2.628  20.195  0.00  0.00    +0.000 N 
ATOM     12  C   UNL     1       1.230   3.451  19.130  0.00  0.00    +0.000 A 
ATOM     13  O   UNL     1       0.767   3.182  18.024  0.00  0.00    +0.000 OA
ATOM     14  H   UNL     1       0.398   1.825  20.019  0.00  0.00    +0.000 HD
ENDBRANCH   3   6
BRANCH   5  15
ATOM     15  O   UNL     1       2.970   8.043  16.760  0.00  0.00    +0.000 OA
ATOM     16  H   UNL     1       2.954   9.021  16.806  0.00  0.00    +0.000 HD
ENDBRANCH   5  15
BRANCH   1  17
ATOM     17  C   UNL     1       5.410   5.970  18.827  0.00  0.00    +0.000 C 
BRANCH  17  18
ATOM     18  O   UNL     1       6.145   4.791  18.423  0.00  0.00    +0.000 OA
BRANCH  18  19
ATOM     19  S   UNL     1       7.387   4.982  17.366  0.00  0.00    +0.000 S 
ATOM     20  O   UNL     1       8.432   4.061  17.780  0.00  0.00    +0.000 OA
ATOM     21  O   UNL     1       7.654   6.393  17.215  0.00  0.00    +0.000 OA
BRANCH  19  26
ATOM     22  C   UNL     1       5.290   3.448  11.879  0.00  0.00    +0.000 C 
ATOM     23  C   UNL     1       5.820   3.789  13.241  0.00  0.00    +0.000 A 
ATOM     24  C   UNL     1       5.191   3.312  14.403  0.00  0.00    +0.000 A 
ATOM     25  C   UNL     1       5.688   3.633  15.669  0.00  0.00    +0.000 A 
ATOM     26  C   UNL     1       6.818   4.447  15.772  0.00  0.00    +0.000 A 
ATOM     27  C   UNL     1       7.454   4.928  14.627  0.00  0.00    +0.000 A 
ATOM     28  C   UNL     1       6.955   4.602  13.365  0.00  0.00    +0.000 A 
ENDBRANCH  19  26
ENDBRANCH  18  19
ENDBRANCH  17  18
ENDBRANCH   1  17
TORSDOF 6
ENDMDL
MODEL 3
REMARK VINA RESULT:      -7.7      1.919      3.688
REMARK  Name = 
REMARK  7 active torsions:
REMARK  status: ('A' for Active; 'I' for Inactive)
REMARK    1  A    between atoms: C_1  and  C_2
REMARK    2  A    between atoms: C_5  and  S_6
REMARK    3  A    between atoms: S_6  and  O_9
REMARK    4  A    between atoms: O_9  and  C_10
REMARK    5  A    between atoms: C_10  and  C_11
REMARK    6  A    between atoms: C_13  and  N_14
REMARK    7  A    between atoms: C_23  and  O_24
REMARK                            x       y       z     vdW  Elec       q    Type
REMARK                         _______ _______ _______ _____ _____    ______ ____
ROOT
ATOM      1  C   UNL     1       4.682   4.434  19.375  0.00  0.00    +0.000 C 
ATOM      2  O   UNL     1       3.639   5.110  20.110  0.00  0.00    +0.000 OA
ATOM      3  C   UNL     1       2.517   5.349  19.236  0.00  0.00    +0.000 C 
ATOM      4  C   UNL     1       2.785   4.613  17.923  0.00  0.00    +0.000 C 
ATOM      5  C   UNL     1       3.959   3.730  18.240  0.00  0.00    +0.000 C 
ENDROOT
BRANCH   3   6
ATOM      6  N   UNL     1       2.282   6.781  19.042  0.00  0.00    +0.000 N 
ATOM      7  C   UNL     1       2.670   7.437  17.889  0.00  0.00    +0.000 A 
ATOM      8  C   UNL     1       2.419   8.731  17.687  0.00  0.00    +0.000 A 
ATOM      9  C   UNL     1       1.719   9.490  18.738  0.00  0.00    +0.000 A 
ATOM     10  O   UNL     1       1.445  10.671  18.582  0.00  0.00    +0.000 OA
ATOM     11  N   UNL     1       1.415   8.793  19.865  0.00  0.00    +0.000 N 
ATOM     12  C   UNL     1       1.677   7.469  20.092  0.00  0.00    +0.000 A 
ATOM     13  O   UNL     1       1.353   6.953  21.159  0.00  0.00    +0.000 OA
ATOM     14  H   UNL     1       0.938   9.292  20.600  0.00  0.00    +0.000 HD
ENDBRANCH   3   6
BRANCH   5  15
ATOM     15  O   UNL     1       3.430   2.481  18.730  0.00  0.00    +0.000 OA
ATOM     16  H   UNL     1       4.040   1.765  18.457  0.00  0.00    +0.000 HD
ENDBRANCH   5  15
BRANCH   1  17
ATOM     17  C   UNL     1       5.778   5.466  19.052  0.00  0.00    +0.000 C 
BRANCH  17  18
ATOM     18  O   UNL     1       5.748   5.840  17.654  0.00  0.00    +0.000 OA
BRANCH  18  19
ATOM     19  S   UNL     1       7.107   5.604  16.763  0.00  0.00    +0.000 S 
ATOM     20  O   UNL     1       7.885   4.587  17.450  0.00  0.00    +0.000 OA
ATOM     21  O   UNL     1       7.680   6.891  16.444  0.00  0.00    +0.000 OA
BRANCH  19  26
ATOM     22  C   UNL     1       5.503   2.963  11.537  0.00  0.00    +0.000 C 
ATOM     23  C   UNL     1       5.895   3.652  12.812  0.00  0.00    +0.000 A 
ATOM     24  C   UNL     1       7.111   4.348  12.915  0.00  0.00    +0.000 A 
ATOM     25  C   UNL     1       7.471   4.987  14.104  0.00  0.00    +0.000 A 
ATOM     26  C   UNL     1       6.611   4.921  15.203  0.00  0.00    +0.000 A 
ATOM     27  C   UNL     1       5.400   4.233  15.116  0.00  0.00    +0.000 A 
ATOM     28  C   UNL     1       5.043   3.599  13.925  0.00  0.00    +0.000 A 
ENDBRANCH  19  26
ENDBRANCH  18  19
ENDBRANCH  17  18
ENDBRANCH   1  17
TORSDOF 6
ENDMDL
MODEL 4
REMARK VINA RESULT:      -7.4      2.013      4.001
REMARK  Name = 
REMARK  7 active torsions:
REMARK  status: ('A' for Active; 'I' for Inactive)
REMARK    1  A    between atoms: C_1  and  C_2
REMARK    2  A    between atoms: C_5  and  S_6
REMARK    3  A    between atoms: S_6  and  O_9
REMARK    4  A    between atoms: O_9  and  C_10
REMARK    5  A    between atoms: C_10  and  C_11
REMARK    6  A    between atoms: C_13  and  N_14
REMARK    7  A    between atoms: C_23  and  O_24
REMARK                            x       y       z     vdW  Elec       q    Type
REMARK                         _______ _______ _______ _____ _____    ______ ____
ROOT
ATOM      1  C   UNL     1       4.026   4.426  19.679  0.00  0.00    +0.000 C 
ATOM      2  O   UNL     1       3.182   5.339  20.412  0.00  0.00    +0.000 OA
ATOM      3  C   UNL     1       2.015   5.649  19.621  0.00  0.00    +0.000 C 
ATOM      4  C   UNL     1       2.025   4.732  18.398  0.00  0.00    +0.000 C 
ATOM      5  C   UNL     1       3.085   3.717  18.719  0.00  0.00    +0.000 C 
ENDROOT
BRANCH   3   6
ATOM      6  N   UNL     1       1.972   7.068  19.261  0.00  0.00    +0.000 N 
ATOM      7  C   UNL     1       2.429   7.528  18.041  0.00  0.00    +0.000 A 
ATOM      8  C   UNL     1       2.350   8.813  17.690  0.00  0.00    +0.000 A 
ATOM      9  C   UNL     1       1.772   9.775  18.643  0.00  0.00    +0.000 A 
ATOM     10  O   UNL     1       1.655  10.956  18.351  0.00  0.00    +0.000 OA
ATOM     11  N   UNL     1       1.392   9.260  19.843  0.00  0.00    +0.000 N 
ATOM     12  C   UNL     1       1.477   7.947  20.223  0.00  0.00    +0.000 A 
ATOM     13  O   UNL     1       1.102   7.606  21.342  0.00  0.00    +0.000 OA
ATOM     14  H   UNL     1       0.996   9.899  20.514  0.00  0.00    +0.000 HD
ENDBRANCH   3   6
BRANCH   5  15
ATOM     15  O   UNL     1       2.438   2.634  19.417  0.00  0.00    +0.000 OA
ATOM     16  H   UNL     1       2.150   2.967  20.293  0.00  0.00    +0.000 HD
ENDBRANCH   5  15
BRANCH   1  17
ATOM     17  C   UNL     1       5.217   5.225  19.121  0.00  0.00    +0.000 C 
BRANCH  17  18
ATOM     18  O   UNL     1       6.330   4.355  18.806  0.00  0.00    +0.000 OA
BRANCH  18  19
ATOM     19  S   UNL     1       7.425   4.873  17.699  0.00  0.00    +0.000 S 
ATOM     20  O   UNL     1       8.638   4.103  17.920  0.00  0.00    +0.000 OA
ATOM     21  O   UNL     1       7.447   6.317  17.710  0.00  0.00    +0.000 OA
BRANCH  19  26
ATOM     22  C   UNL     1       5.190   3.676  12.182  0.00  0.00    +0.000 C 
ATOM     23  C   UNL     1       5.752   3.933  13.550  0.00  0.00    +0.000 A 
ATOM     24  C   UNL     1       5.102   3.457  14.701  0.00  0.00    +0.000 A 
ATOM     25  C   UNL     1       5.628   3.700  15.972  0.00  0.00    +0.000 A 
ATOM     26  C   UNL     1       6.811   4.433  16.093  0.00  0.00    +0.000 A 
ATOM     27  C   UNL     1       7.468   4.912  14.960  0.00  0.00    +0.000 A 
ATOM     28  C   UNL     1       6.940   4.665  13.692  0.00  0.00    +0.000 A 
ENDBRANCH  19  26
ENDBRANCH  18  19
ENDBRANCH  17  18
ENDBRANCH   1  17
TORSDOF 6
ENDMDL
MODEL 5
REMARK VINA RESULT:      -7.4      2.681      6.404
REMARK  Name = 
REMARK  7 active torsions:
REMARK  status: ('A' for Active; 'I' for Inactive)
REMARK    1  A    between atoms: C_1  and  C_2
REMARK    2  A    between atoms: C_5  and  S_6
REMARK    3  A    between atoms: S_6  and  O_9
REMARK    4  A    between atoms: O_9  and  C_10
REMARK    5  A    between atoms: C_10  and  C_11
REMARK    6  A    between atoms: C_13  and  N_14
REMARK    7  A    between atoms: C_23  and  O_24
REMARK                            x       y       z     vdW  Elec       q    Type
REMARK                         _______ _______ _______ _____ _____    ______ ____
ROOT
ATOM      1  C   UNL     1       5.764   6.318  16.762  0.00  0.00    +0.000 C 
ATOM      2  O   UNL     1       5.777   5.383  17.863  0.00  0.00    +0.000 OA
ATOM      3  C   UNL     1       5.550   4.050  17.358  0.00  0.00    +0.000 C 
ATOM      4  C   UNL     1       5.587   4.118  15.831  0.00  0.00    +0.000 C 
ATOM      5  C   UNL     1       6.136   5.487  15.546  0.00  0.00    +0.000 C 
ENDROOT
BRANCH   3   6
ATOM      6  N   UNL     1       4.297   3.489  17.868  0.00  0.00    +0.000 N 
ATOM      7  C   UNL     1       3.140   3.476  17.113  0.00  0.00    +0.000 A 
ATOM      8  C   UNL     1       2.008   2.926  17.555  0.00  0.00    +0.000 A 
ATOM      9  C   UNL     1       1.988   2.327  18.900  0.00  0.00    +0.000 A 
ATOM     10  O   UNL     1       0.980   1.788  19.332  0.00  0.00    +0.000 OA
ATOM     11  N   UNL     1       3.147   2.423  19.605  0.00  0.00    +0.000 N 
ATOM     12  C   UNL     1       4.312   2.995  19.171  0.00  0.00    +0.000 A 
ATOM     13  O   UNL     1       5.295   3.022  19.909  0.00  0.00    +0.000 OA
ATOM     14  H   UNL     1       3.157   2.023  20.530  0.00  0.00    +0.000 HD
ENDBRANCH   3   6
BRANCH   5  15
ATOM     15  O   UNL     1       7.571   5.364  15.487  0.00  0.00    +0.000 OA
ATOM     16  H   UNL     1       7.806   4.438  15.704  0.00  0.00    +0.000 HD
ENDBRANCH   5  15
BRANCH   1  17
ATOM     17  C   UNL     1       4.418   7.063  16.790  0.00  0.00    +0.000 C 
BRANCH  17  18
ATOM     18  O   UNL     1       4.065   7.454  18.138  0.00  0.00    +0.000 OA
BRANCH  18  19
ATOM     19  S   UNL     1       2.653   6.894  18.759  0.00  0.00    +0.000 S 
ATOM     20  O   UNL     1       3.002   6.024  19.870  0.00  0.00    +0.000 OA
ATOM     21  O   UNL     1       1.825   6.422  17.674  0.00  0.00    +0.000 OA
BRANCH  19  26
ATOM     22  C   UNL     1      -0.618  11.463  21.060  0.00  0.00    +0.000 C 
ATOM     23  C   UNL     1       0.222  10.358  20.487  0.00  0.00    +0.000 A 
ATOM     24  C   UNL     1       0.602  10.365  19.135  0.00  0.00    +0.000 A 
ATOM     25  C   UNL     1       1.383   9.334  18.606  0.00  0.00    +0.000 A 
ATOM     26  C   UNL     1       1.779   8.283  19.436  0.00  0.00    +0.000 A 
ATOM     27  C   UNL     1       1.409   8.262  20.781  0.00  0.00    +0.000 A 
ATOM     28  C   UNL     1       0.631   9.296  21.305  0.00  0.00    +0.000 A 
ENDBRANCH  19  26
ENDBRANCH  18  19
ENDBRANCH  17  18
ENDBRANCH   1  17
TORSDOF 6
ENDMDL
MODEL 6
REMARK VINA RESULT:      -7.3      2.634      6.329
REMARK  Name = 
REMARK  7 active torsions:
REMARK  status: ('A' for Active; 'I' for Inactive)
REMARK    1  A    between atoms: C_1  and  C_2
REMARK    2  A    between atoms: C_5  and  S_6
REMARK    3  A    between atoms: S_6  and  O_9
REMARK    4  A    between atoms: O_9  and  C_10
REMARK    5  A    between atoms: C_10  and  C_11
REMARK    6  A    between atoms: C_13  and  N_14
REMARK    7  A    between atoms: C_23  and  O_24
REMARK                            x       y       z     vdW  Elec       q    Type
REMARK                         _______ _______ _______ _____ _____    ______ ____
ROOT
ATOM      1  C   UNL     1       5.762   6.308  16.763  0.00  0.00    +0.000 C 
ATOM      2  O   UNL     1       5.919   5.225  17.706  0.00  0.00    +0.000 OA
ATOM      3  C   UNL     1       5.517   3.988  17.081  0.00  0.00    +0.000 C 
ATOM      4  C   UNL     1       5.273   4.273  15.599  0.00  0.00    +0.000 C 
ATOM      5  C   UNL     1       5.847   5.647  15.398  0.00  0.00    +0.000 C 
ENDROOT
BRANCH   3   6
ATOM      6  N   UNL     1       4.347   3.408  17.744  0.00  0.00    +0.000 N 
ATOM      7  C   UNL     1       3.166   3.168  17.067  0.00  0.00    +0.000 A 
ATOM      8  C   UNL     1       2.113   2.599  17.654  0.00  0.00    +0.000 A 
ATOM      9  C   UNL     1       2.207   2.228  19.076  0.00  0.00    +0.000 A 
ATOM     10  O   UNL     1       1.275   1.678  19.645  0.00  0.00    +0.000 OA
ATOM     11  N   UNL     1       3.379   2.541  19.690  0.00  0.00    +0.000 N 
ATOM     12  C   UNL     1       4.464   3.136  19.106  0.00  0.00    +0.000 A 
ATOM     13  O   UNL     1       5.469   3.371  19.772  0.00  0.00    +0.000 OA
ATOM     14  H   UNL     1       3.466   2.300  20.665  0.00  0.00    +0.000 HD
ENDBRANCH   3   6
BRANCH   5  15
ATOM     15  O   UNL     1       7.235   5.480  15.048  0.00  0.00    +0.000 OA
ATOM     16  H   UNL     1       7.436   4.521  15.055  0.00  0.00    +0.000 HD
ENDBRANCH   5  15
BRANCH   1  17
ATOM     17  C   UNL     1       4.496   7.092  17.150  0.00  0.00    +0.000 C 
BRANCH  17  18
ATOM     18  O   UNL     1       4.185   6.924  18.554  0.00  0.00    +0.000 OA
BRANCH  18  19
ATOM     19  S   UNL     1       2.646   6.523  18.961  0.00  0.00    +0.000 S 
ATOM     20  O   UNL     1       2.736   5.642  20.113  0.00  0.00    +0.000 OA
ATOM     21  O   UNL     1       1.942   6.119  17.766  0.00  0.00    +0.000 OA
BRANCH  19  26
ATOM     22  C   UNL     1       0.159  11.745  20.808  0.00  0.00    +0.000 C 
ATOM     23  C   UNL     1       0.739  10.436  20.356  0.00  0.00    +0.000 A 
ATOM     24  C   UNL     1       0.938   9.381  21.263  0.00  0.00    +0.000 A 
ATOM     25  C   UNL     1       1.478   8.165  20.838  0.00  0.00    +0.000 A 
ATOM     26  C   UNL     1       1.832   8.006  19.497  0.00  0.00    +0.000 A 
ATOM     27  C   UNL     1       1.640   9.044  18.584  0.00  0.00    +0.000 A 
ATOM     28  C   UNL     1       1.097  10.256  19.013  0.00  0.00    +0.000 A 
ENDBRANCH  19  26
ENDBRANCH  18  19
ENDBRANCH  17  18
ENDBRANCH   1  17
TORSDOF 6
ENDMDL
MODEL 7
REMARK VINA RESULT:      -7.3      1.863      3.329
REMARK  Name = 
REMARK  7 active torsions:
REMARK  status: ('A' for Active; 'I' for Inactive)
REMARK    1  A    between atoms: C_1  and  C_2
REMARK    2  A    between atoms: C_5  and  S_6
REMARK    3  A    between atoms: S_6  and  O_9
REMARK    4  A    between atoms: O_9  and  C_10
REMARK    5  A    between atoms: C_10  and  C_11
REMARK    6  A    between atoms: C_13  and  N_14
REMARK    7  A    between atoms: C_23  and  O_24
REMARK                            x       y       z     vdW  Elec       q    Type
REMARK                         _______ _______ _______ _____ _____    ______ ____
ROOT
ATOM      1  C   UNL     1       5.077   3.583  18.732  0.00  0.00    +0.000 C 
ATOM      2  O   UNL     1       4.073   3.877  19.728  0.00  0.00    +0.000 OA
ATOM      3  C   UNL     1       2.835   4.221  19.071  0.00  0.00    +0.000 C 
ATOM      4  C   UNL     1       3.008   3.943  17.578  0.00  0.00    +0.000 C 
ATOM      5  C   UNL     1       4.288   3.159  17.504  0.00  0.00    +0.000 C 
ENDROOT
BRANCH   3   6
ATOM      6  N   UNL     1       2.448   5.606  19.346  0.00  0.00    +0.000 N 
ATOM      7  C   UNL     1       2.585   6.606  18.402  0.00  0.00    +0.000 A 
ATOM      8  C   UNL     1       2.193   7.860  18.631  0.00  0.00    +0.000 A 
ATOM      9  C   UNL     1       1.609   8.193  19.942  0.00  0.00    +0.000 A 
ATOM     10  O   UNL     1       1.211   9.322  20.183  0.00  0.00    +0.000 OA
ATOM     11  N   UNL     1       1.554   7.172  20.839  0.00  0.00    +0.000 N 
ATOM     12  C   UNL     1       1.964   5.884  20.623  0.00  0.00    +0.000 A 
ATOM     13  O   UNL     1       1.864   5.049  21.520  0.00  0.00    +0.000 OA
ATOM     14  H   UNL     1       1.162   7.376  21.744  0.00  0.00    +0.000 HD
ENDBRANCH   3   6
BRANCH   5  15
ATOM     15  O   UNL     1       3.940   1.766  17.633  0.00  0.00    +0.000 OA
ATOM     16  H   UNL     1       3.546   1.633  18.520  0.00  0.00    +0.000 HD
ENDBRANCH   5  15
BRANCH   1  17
ATOM     17  C   UNL     1       6.025   4.792  18.645  0.00  0.00    +0.000 C 
BRANCH  17  18
ATOM     18  O   UNL     1       6.853   4.722  17.459  0.00  0.00    +0.000 OA
BRANCH  18  19
ATOM     19  S   UNL     1       6.625   5.854  16.292  0.00  0.00    +0.000 S 
ATOM     20  O   UNL     1       7.871   6.595  16.182  0.00  0.00    +0.000 OA
ATOM     21  O   UNL     1       5.375   6.532  16.542  0.00  0.00    +0.000 OA
BRANCH  19  26
ATOM     22  C   UNL     1       5.877   2.638  11.197  0.00  0.00    +0.000 C 
ATOM     23  C   UNL     1       6.060   3.467  12.435  0.00  0.00    +0.000 A 
ATOM     24  C   UNL     1       7.254   4.171  12.665  0.00  0.00    +0.000 A 
ATOM     25  C   UNL     1       7.421   4.940  13.819  0.00  0.00    +0.000 A 
ATOM     26  C   UNL     1       6.387   4.998  14.756  0.00  0.00    +0.000 A 
ATOM     27  C   UNL     1       5.196   4.305  14.543  0.00  0.00    +0.000 A 
ATOM     28  C   UNL     1       5.033   3.540  13.387  0.00  0.00    +0.000 A 
ENDBRANCH  19  26
ENDBRANCH  18  19
ENDBRANCH  17  18
ENDBRANCH   1  17
TORSDOF 6
ENDMDL
MODEL 8
REMARK VINA RESULT:      -7.2      2.888      6.990
REMARK  Name = 
REMARK  7 active torsions:
REMARK  status: ('A' for Active; 'I' for Inactive)
REMARK    1  A    between atoms: C_1  and  C_2
REMARK    2  A    between atoms: C_5  and  S_6
REMARK    3  A    between atoms: S_6  and  O_9
REMARK    4  A    between atoms: O_9  and  C_10
REMARK    5  A    between atoms: C_10  and  C_11
REMARK    6  A    between atoms: C_13  and  N_14
REMARK    7  A    between atoms: C_23  and  O_24
REMARK                            x       y       z     vdW  Elec       q    Type
REMARK                         _______ _______ _______ _____ _____    ______ ____
ROOT
ATOM      1  C   UNL     1       2.135   3.407  18.370  0.00  0.00    +0.000 C 
ATOM      2  O   UNL     1       2.969   3.564  17.202  0.00  0.00    +0.000 OA
ATOM      3  C   UNL     1       4.322   3.178  17.527  0.00  0.00    +0.000 C 
ATOM      4  C   UNL     1       4.306   2.560  18.925  0.00  0.00    +0.000 C 
ATOM      5  C   UNL     1       2.845   2.361  19.213  0.00  0.00    +0.000 C 
ENDROOT
BRANCH   3   6
ATOM      6  N   UNL     1       5.243   4.312  17.422  0.00  0.00    +0.000 N 
ATOM      7  C   UNL     1       5.893   4.831  18.525  0.00  0.00    +0.000 A 
ATOM      8  C   UNL     1       6.767   5.834  18.429  0.00  0.00    +0.000 A 
ATOM      9  C   UNL     1       7.036   6.417  17.103  0.00  0.00    +0.000 A 
ATOM     10  O   UNL     1       7.851   7.318  16.966  0.00  0.00    +0.000 OA
ATOM     11  N   UNL     1       6.322   5.890  16.072  0.00  0.00    +0.000 N 
ATOM     12  C   UNL     1       5.413   4.871  16.156  0.00  0.00    +0.000 A 
ATOM     13  O   UNL     1       4.827   4.485  15.147  0.00  0.00    +0.000 OA
ATOM     14  H   UNL     1       6.486   6.275  15.155  0.00  0.00    +0.000 HD
ENDBRANCH   3   6
BRANCH   5  15
ATOM     15  O   UNL     1       2.491   1.052  18.726  0.00  0.00    +0.000 OA
ATOM     16  H   UNL     1       3.207   0.431  18.975  0.00  0.00    +0.000 HD
ENDBRANCH   5  15
BRANCH   1  17
ATOM     17  C   UNL     1       1.874   4.806  18.957  0.00  0.00    +0.000 C 
BRANCH  17  18
ATOM     18  O   UNL     1       2.107   5.838  17.970  0.00  0.00    +0.000 OA
BRANCH  18  19
ATOM     19  S   UNL     1       2.978   7.155  18.421  0.00  0.00    +0.000 S 
ATOM     20  O   UNL     1       3.701   7.601  17.242  0.00  0.00    +0.000 OA
ATOM     21  O   UNL     1       3.672   6.851  19.651  0.00  0.00    +0.000 OA
BRANCH  19  26
ATOM     22  C   UNL     1      -1.204  11.308  19.881  0.00  0.00    +0.000 C 
ATOM     23  C   UNL     1      -0.144  10.310  19.513  0.00  0.00    +0.000 A 
ATOM     24  C   UNL     1       0.299  10.181  18.186  0.00  0.00    +0.000 A 
ATOM     25  C   UNL     1       1.285   9.250  17.849  0.00  0.00    +0.000 A 
ATOM     26  C   UNL     1       1.826   8.436  18.846  0.00  0.00    +0.000 A 
ATOM     27  C   UNL     1       1.397   8.553  20.168  0.00  0.00    +0.000 A 
ATOM     28  C   UNL     1       0.413   9.486  20.501  0.00  0.00    +0.000 A 
ENDBRANCH  19  26
ENDBRANCH  18  19
ENDBRANCH  17  18
ENDBRANCH   1  17
TORSDOF 6
ENDMDL
MODEL 9
REMARK VINA RESULT:      -7.2      3.998      7.964
REMARK  Name = 
REMARK  7 active torsions:
REMARK  status: ('A' for Active; 'I' for Inactive)
REMARK    1  A    between atoms: C_1  and  C_2
REMARK    2  A    between atoms: C_5  and  S_6
REMARK    3  A    between atoms: S_6  and  O_9
REMARK    4  A    between atoms: O_9  and  C_10
REMARK    5  A    between atoms: C_10  and  C_11
REMARK    6  A    between atoms: C_13  and  N_14
REMARK    7  A    between atoms: C_23  and  O_24
REMARK                            x       y       z     vdW  Elec       q    Type
REMARK                         _______ _______ _______ _____ _____    ______ ____
ROOT
ATOM      1  C   UNL     1       2.456   6.221  18.658  0.00  0.00    +0.000 C 
ATOM      2  O   UNL     1       2.851   5.090  17.851  0.00  0.00    +0.000 OA
ATOM      3  C   UNL     1       4.155   4.637  18.271  0.00  0.00    +0.000 C 
ATOM      4  C   UNL     1       4.526   5.401  19.542  0.00  0.00    +0.000 C 
ATOM      5  C   UNL     1       3.241   6.066  19.949  0.00  0.00    +0.000 C 
ENDROOT
BRANCH   3   6
ATOM      6  N   UNL     1       5.148   4.798  17.207  0.00  0.00    +0.000 N 
ATOM      7  C   UNL     1       4.787   5.113  15.910  0.00  0.00    +0.000 A 
ATOM      8  C   UNL     1       5.690   5.305  14.947  0.00  0.00    +0.000 A 
ATOM      9  C   UNL     1       7.119   5.160  15.274  0.00  0.00    +0.000 A 
ATOM     10  O   UNL     1       7.979   5.355  14.428  0.00  0.00    +0.000 OA
ATOM     11  N   UNL     1       7.396   4.798  16.555  0.00  0.00    +0.000 N 
ATOM     12  C   UNL     1       6.482   4.585  17.551  0.00  0.00    +0.000 A 
ATOM     13  O   UNL     1       6.861   4.257  18.673  0.00  0.00    +0.000 OA
ATOM     14  H   UNL     1       8.367   4.689  16.802  0.00  0.00    +0.000 HD
ENDBRANCH   3   6
BRANCH   5  15
ATOM     15  O   UNL     1       2.542   5.146  20.811  0.00  0.00    +0.000 OA
ATOM     16  H   UNL     1       3.194   4.504  21.161  0.00  0.00    +0.000 HD
ENDBRANCH   5  15
BRANCH   1  17
ATOM     17  C   UNL     1       2.633   7.493  17.809  0.00  0.00    +0.000 C 
BRANCH  17  18
ATOM     18  O   UNL     1       1.393   8.232  17.711  0.00  0.00    +0.000 OA
BRANCH  18  19
ATOM     19  S   UNL     1       1.243   9.607  18.595  0.00  0.00    +0.000 S 
ATOM     20  O   UNL     1       2.180  10.567  18.035  0.00  0.00    +0.000 OA
ATOM     21  O   UNL     1       1.278   9.263  19.997  0.00  0.00    +0.000 OA
BRANCH  19  26
ATOM     22  C   UNL     1      -4.449  11.604  17.902  0.00  0.00    +0.000 C 
ATOM     23  C   UNL     1      -3.032  11.128  18.039  0.00  0.00    +0.000 A 
ATOM     24  C   UNL     1      -2.518  10.131  17.192  0.00  0.00    +0.000 A 
ATOM     25  C   UNL     1      -1.199   9.691  17.324  0.00  0.00    +0.000 A 
ATOM     26  C   UNL     1      -0.389  10.246  18.317  0.00  0.00    +0.000 A 
ATOM     27  C   UNL     1      -0.885  11.237  19.165  0.00  0.00    +0.000 A 
ATOM     28  C   UNL     1      -2.203  11.675  19.028  0.00  0.00    +0.000 A 
ENDBRANCH  19  26
ENDBRANCH  18  19
ENDBRANCH  17  18
ENDBRANCH   1  17
TORSDOF 6
ENDMDL
