MODEL 1
REMARK VINA RESULT:      -7.9      0.000      0.000
REMARK  Name = 
REMARK  5 active torsions:
REMARK  status: ('A' for Active; 'I' for Inactive)
REMARK    1  A    between atoms: C_1  and  C_2
REMARK    2  A    between atoms: C_2  and  C_3
REMARK    3  A    between atoms: C_6  and  N_7
REMARK    4  A    between atoms: N_7  and  S_8
REMARK    5  A    between atoms: S_8  and  C_11
REMARK                            x       y       z     vdW  Elec       q    Type
REMARK                         _______ _______ _______ _____ _____    ______ ____
ROOT
ATOM      1  S   UNL     1       7.019   6.093  17.886  0.00  0.00    +0.000 S 
ATOM      2  O   UNL     1       7.756   6.078  19.131  0.00  0.00    +0.000 OA
ATOM      3  O   UNL     1       6.998   7.269  17.045  0.00  0.00    +0.000 OA
ENDROOT
BRANCH   1   4
ATOM      4  C   UNL     1       5.358   5.569  18.220  0.00  0.00    +0.000 A 
ATOM      5  C   UNL     1       4.290   6.444  17.950  0.00  0.00    +0.000 A 
ATOM      6  C   UNL     1       2.977   6.070  18.261  0.00  0.00    +0.000 A 
ATOM      7  C   UNL     1       2.748   4.825  18.837  0.00  0.00    +0.000 A 
ATOM      8  C   UNL     1       3.830   3.983  19.081  0.00  0.00    +0.000 A 
ATOM      9  C   UNL     1       5.139   4.310  18.780  0.00  0.00    +0.000 A 
ATOM     10  S   UNL     1       3.322   2.494  19.841  0.00  0.00    +0.000 S 
ATOM     11  O   UNL     1       3.553   1.419  18.895  0.00  0.00    +0.000 OA
ATOM     12  O   UNL     1       3.844   2.493  21.190  0.00  0.00    +0.000 OA
ATOM     13  C   UNL     1       1.581   2.903  19.872  0.00  0.00    +0.000 C 
ATOM     14  C   UNL     1       1.403   4.283  19.224  0.00  0.00    +0.000 C 
ENDBRANCH   1   4
BRANCH   1  15
ATOM     15  N   UNL     1       7.597   4.769  16.985  0.00  0.00    +0.000 N 
ATOM     16  H   UNL     1       8.578   4.624  17.232  0.00  0.00    +0.000 HD
BRANCH  15  20
ATOM     17  C   UNL     1       6.361   4.297  13.630  0.00  0.00    +0.000 A 
ATOM     18  N   UNL     1       7.313   5.209  13.368  0.00  0.00    +0.000 NA
ATOM     19  N   UNL     1       7.819   5.512  14.584  0.00  0.00    +0.000 N 
ATOM     20  C   UNL     1       7.260   4.783  15.597  0.00  0.00    +0.000 A 
ATOM     21  C   UNL     1       6.289   4.017  15.009  0.00  0.00    +0.000 A 
ATOM     22 BR   UNL     1       5.120   2.805  15.831  0.00  0.00    +0.000 Br
ATOM     23  H   UNL     1       8.533   6.230  14.643  0.00  0.00    +0.000 HD
BRANCH  17  25
ATOM     24  C   UNL     1       6.266   2.536  11.848  0.00  0.00    +0.000 C 
ATOM     25  C   UNL     1       5.559   3.704  12.516  0.00  0.00    +0.000 C 
ENDBRANCH  17  25
ENDBRANCH  15  20
ENDBRANCH   1  15
TORSDOF 4
ENDMDL
MODEL 2
REMARK VINA RESULT:      -7.8      1.562      1.649
REMARK  Name = 
REMARK  5 active torsions:
REMARK  status: ('A' for Active; 'I' for Inactive)
REMARK    1  A    between atoms: C_1  and  C_2
REMARK    2  A    between atoms: C_2  and  C_3
REMARK    3  A    between atoms: C_6  and  N_7
REMARK    4  A    between atoms: N_7  and  S_8
REMARK    5  A    between atoms: S_8  and  C_11
REMARK                            x       y       z     vdW  Elec       q    Type
REMARK                         _______ _______ _______ _____ _____    ______ ____
ROOT
ATOM      1  S   UNL     1       7.402   5.581  17.741  0.00  0.00    +0.000 S 
ATOM      2  O   UNL     1       8.062   4.296  17.794  0.00  0.00    +0.000 OA
ATOM      3  O   UNL     1       7.899   6.708  18.500  0.00  0.00    +0.000 OA
ENDROOT
BRANCH   1   4
ATOM      4  C   UNL     1       5.682   5.335  18.097  0.00  0.00    +0.000 A 
ATOM      5  C   UNL     1       4.776   6.391  17.893  0.00  0.00    +0.000 A 
ATOM      6  C   UNL     1       3.424   6.233  18.223  0.00  0.00    +0.000 A 
ATOM      7  C   UNL     1       2.995   5.021  18.751  0.00  0.00    +0.000 A 
ATOM      8  C   UNL     1       3.920   3.996  18.930  0.00  0.00    +0.000 A 
ATOM      9  C   UNL     1       5.260   4.107  18.608  0.00  0.00    +0.000 A 
ATOM     10  S   UNL     1       3.178   2.582  19.639  0.00  0.00    +0.000 S 
ATOM     11  O   UNL     1       3.202   1.529  18.643  0.00  0.00    +0.000 OA
ATOM     12  O   UNL     1       3.718   2.428  20.973  0.00  0.00    +0.000 OA
ATOM     13  C   UNL     1       1.534   3.282  19.735  0.00  0.00    +0.000 C 
ATOM     14  C   UNL     1       1.585   4.701  19.151  0.00  0.00    +0.000 C 
ENDBRANCH   1   4
BRANCH   1  15
ATOM     15  N   UNL     1       7.330   6.003  16.093  0.00  0.00    +0.000 N 
ATOM     16  H   UNL     1       6.949   6.949  16.028  0.00  0.00    +0.000 HD
BRANCH  15  20
ATOM     17  C   UNL     1       6.257   3.803  13.445  0.00  0.00    +0.000 A 
ATOM     18  N   UNL     1       5.481   3.325  14.432  0.00  0.00    +0.000 NA
ATOM     19  N   UNL     1       5.843   4.050  15.513  0.00  0.00    +0.000 N 
ATOM     20  C   UNL     1       6.779   5.006  15.233  0.00  0.00    +0.000 A 
ATOM     21  C   UNL     1       7.089   4.841  13.909  0.00  0.00    +0.000 A 
ATOM     22 BR   UNL     1       8.326   5.808  12.885  0.00  0.00    +0.000 Br
ATOM     23  H   UNL     1       5.415   3.828  16.406  0.00  0.00    +0.000 HD
BRANCH  17  25
ATOM     24  C   UNL     1       4.708   3.158  11.581  0.00  0.00    +0.000 C 
ATOM     25  C   UNL     1       6.148   3.245  12.062  0.00  0.00    +0.000 C 
ENDBRANCH  17  25
ENDBRANCH  15  20
ENDBRANCH   1  15
TORSDOF 4
ENDMDL
MODEL 3
REMARK VINA RESULT:      -7.7      3.862      5.009
REMARK  Name = 
REMARK  5 active torsions:
REMARK  status: ('A' for Active; 'I' for Inactive)
REMARK    1  A    between atoms: C_1  and  C_2
REMARK    2  A    between atoms: C_2  and  C_3
REMARK    3  A    between atoms: C_6  and  N_7
REMARK    4  A    between atoms: N_7  and  S_8
REMARK    5  A    between atoms: S_8  and  C_11
REMARK                            x       y       z     vdW  Elec       q    Type
REMARK                         _______ _______ _______ _____ _____    ______ ____
ROOT
ATOM      1  S   UNL     1       3.035   4.776  19.448  0.00  0.00    +0.000 S 
ATOM      2  O   UNL     1       2.573   4.056  18.283  0.00  0.00    +0.000 OA
ATOM      3  O   UNL     1       2.836   4.249  20.780  0.00  0.00    +0.000 OA
ENDROOT
BRANCH   1   4
ATOM      4  C   UNL     1       2.405   6.431  19.362  0.00  0.00    +0.000 A 
ATOM      5  C   UNL     1       2.520   7.153  18.160  0.00  0.00    +0.000 A 
ATOM      6  C   UNL     1       2.082   8.481  18.090  0.00  0.00    +0.000 A 
ATOM      7  C   UNL     1       1.531   9.070  19.222  0.00  0.00    +0.000 A 
ATOM      8  C   UNL     1       1.426   8.321  20.391  0.00  0.00    +0.000 A 
ATOM      9  C   UNL     1       1.837   7.006  20.499  0.00  0.00    +0.000 A 
ATOM     10  S   UNL     1       0.745   9.264  21.696  0.00  0.00    +0.000 S 
ATOM     11  O   UNL     1      -0.555   8.704  22.009  0.00  0.00    +0.000 OA
ATOM     12  O   UNL     1       1.786   9.460  22.681  0.00  0.00    +0.000 OA
ATOM     13  C   UNL     1       0.540  10.760  20.735  0.00  0.00    +0.000 C 
ATOM     14  C   UNL     1       1.017  10.478  19.304  0.00  0.00    +0.000 C 
ENDBRANCH   1   4
BRANCH   1  15
ATOM     15  N   UNL     1       4.697   5.053  19.198  0.00  0.00    +0.000 N 
ATOM     16  H   UNL     1       4.898   6.019  19.463  0.00  0.00    +0.000 HD
BRANCH  15  20
ATOM     17  C   UNL     1       6.175   4.504  15.954  0.00  0.00    +0.000 A 
ATOM     18  N   UNL     1       5.603   3.300  16.122  0.00  0.00    +0.000 NA
ATOM     19  N   UNL     1       5.054   3.367  17.355  0.00  0.00    +0.000 N 
ATOM     20  C   UNL     1       5.210   4.589  17.949  0.00  0.00    +0.000 A 
ATOM     21  C   UNL     1       5.964   5.329  17.077  0.00  0.00    +0.000 A 
ATOM     22 BR   UNL     1       6.568   7.091  17.283  0.00  0.00    +0.000 Br
ATOM     23  H   UNL     1       4.599   2.540  17.725  0.00  0.00    +0.000 HD
BRANCH  17  25
ATOM     24  C   UNL     1       6.402   3.999  13.509  0.00  0.00    +0.000 C 
ATOM     25  C   UNL     1       6.897   4.826  14.685  0.00  0.00    +0.000 C 
ENDBRANCH  17  25
ENDBRANCH  15  20
ENDBRANCH   1  15
TORSDOF 4
ENDMDL
MODEL 4
REMARK VINA RESULT:      -7.3      3.989      5.771
REMARK  Name = 
REMARK  5 active torsions:
REMARK  status: ('A' for Active; 'I' for Inactive)
REMARK    1  A    between atoms: C_1  and  C_2
REMARK    2  A    between atoms: C_2  and  C_3
REMARK    3  A    between atoms: C_6  and  N_7
REMARK    4  A    between atoms: N_7  and  S_8
REMARK    5  A    between atoms: S_8  and  C_11
REMARK                            x       y       z     vdW  Elec       q    Type
REMARK                         _______ _______ _______ _____ _____    ______ ____
ROOT
ATOM      1  S   UNL     1       2.469   4.571  19.467  0.00  0.00    +0.000 S 
ATOM      2  O   UNL     1       1.326   3.808  19.018  0.00  0.00    +0.000 OA
ATOM      3  O   UNL     1       3.108   4.286  20.732  0.00  0.00    +0.000 OA
ENDROOT
BRANCH   1   4
ATOM      4  C   UNL     1       2.051   6.292  19.384  0.00  0.00    +0.000 A 
ATOM      5  C   UNL     1       2.220   6.988  18.173  0.00  0.00    +0.000 A 
ATOM      6  C   UNL     1       1.951   8.361  18.105  0.00  0.00    +0.000 A 
ATOM      7  C   UNL     1       1.514   9.020  19.249  0.00  0.00    +0.000 A 
ATOM      8  C   UNL     1       1.350   8.296  20.426  0.00  0.00    +0.000 A 
ATOM      9  C   UNL     1       1.595   6.940  20.533  0.00  0.00    +0.000 A 
ATOM     10  S   UNL     1       0.834   9.324  21.742  0.00  0.00    +0.000 S 
ATOM     11  O   UNL     1      -0.516   8.935  22.098  0.00  0.00    +0.000 OA
ATOM     12  O   UNL     1       1.921   9.391  22.695  0.00  0.00    +0.000 OA
ATOM     13  C   UNL     1       0.791  10.829  20.776  0.00  0.00    +0.000 C 
ATOM     14  C   UNL     1       1.186  10.482  19.334  0.00  0.00    +0.000 C 
ENDBRANCH   1   4
BRANCH   1  15
ATOM     15  N   UNL     1       3.623   4.462  18.219  0.00  0.00    +0.000 N 
ATOM     16  H   UNL     1       3.590   3.513  17.842  0.00  0.00    +0.000 HD
BRANCH  15  20
ATOM     17  C   UNL     1       6.860   6.046  18.380  0.00  0.00    +0.000 A 
ATOM     18  N   UNL     1       6.881   5.422  19.570  0.00  0.00    +0.000 NA
ATOM     19  N   UNL     1       5.670   4.827  19.649  0.00  0.00    +0.000 N 
ATOM     20  C   UNL     1       4.907   5.007  18.528  0.00  0.00    +0.000 A 
ATOM     21  C   UNL     1       5.641   5.822  17.709  0.00  0.00    +0.000 A 
ATOM     22 BR   UNL     1       5.171   6.485  16.020  0.00  0.00    +0.000 Br
ATOM     23  H   UNL     1       5.434   4.327  20.499  0.00  0.00    +0.000 HD
BRANCH  17  25
ATOM     24  C   UNL     1       7.762   8.319  17.826  0.00  0.00    +0.000 C 
ATOM     25  C   UNL     1       8.047   6.829  17.918  0.00  0.00    +0.000 C 
ENDBRANCH  17  25
ENDBRANCH  15  20
ENDBRANCH   1  15
TORSDOF 4
ENDMDL
MODEL 5
REMARK VINA RESULT:      -7.3      4.322      7.095
REMARK  Name = 
REMARK  5 active torsions:
REMARK  status: ('A' for Active; 'I' for Inactive)
REMARK    1  A    between atoms: C_1  and  C_2
REMARK    2  A    between atoms: C_2  and  C_3
REMARK    3  A    between atoms: C_6  and  N_7
REMARK    4  A    between atoms: N_7  and  S_8
REMARK    5  A    between atoms: S_8  and  C_11
REMARK                            x       y       z     vdW  Elec       q    Type
REMARK                         _______ _______ _______ _____ _____    ______ ____
ROOT
ATOM      1  S   UNL     1       1.993   5.262  20.464  0.00  0.00    +0.000 S 
ATOM      2  O   UNL     1       2.452   4.460  21.575  0.00  0.00    +0.000 OA
ATOM      3  O   UNL     1       0.601   5.270  20.072  0.00  0.00    +0.000 OA
ENDROOT
BRANCH   1   4
ATOM      4  C   UNL     1       3.006   4.890  19.057  0.00  0.00    +0.000 A 
ATOM      5  C   UNL     1       2.480   4.104  18.015  0.00  0.00    +0.000 A 
ATOM      6  C   UNL     1       3.284   3.752  16.923  0.00  0.00    +0.000 A 
ATOM      7  C   UNL     1       4.602   4.191  16.886  0.00  0.00    +0.000 A 
ATOM      8  C   UNL     1       5.084   4.975  17.932  0.00  0.00    +0.000 A 
ATOM      9  C   UNL     1       4.321   5.353  19.021  0.00  0.00    +0.000 A 
ATOM     10  S   UNL     1       6.768   5.382  17.702  0.00  0.00    +0.000 S 
ATOM     11  O   UNL     1       6.847   6.811  17.477  0.00  0.00    +0.000 OA
ATOM     12  O   UNL     1       7.526   4.694  18.726  0.00  0.00    +0.000 OA
ATOM     13  C   UNL     1       6.942   4.517  16.146  0.00  0.00    +0.000 C 
ATOM     14  C   UNL     1       5.583   3.898  15.789  0.00  0.00    +0.000 C 
ENDBRANCH   1   4
BRANCH   1  15
ATOM     15  N   UNL     1       2.489   6.856  20.802  0.00  0.00    +0.000 N 
ATOM     16  H   UNL     1       2.974   6.850  21.702  0.00  0.00    +0.000 HD
BRANCH  15  20
ATOM     17  C   UNL     1       0.315   9.526  19.727  0.00  0.00    +0.000 A 
ATOM     18  N   UNL     1      -0.201   9.326  20.952  0.00  0.00    +0.000 NA
ATOM     19  N   UNL     1       0.511   8.287  21.441  0.00  0.00    +0.000 N 
ATOM     20  C   UNL     1       1.496   7.860  20.592  0.00  0.00    +0.000 A 
ATOM     21  C   UNL     1       1.364   8.623  19.462  0.00  0.00    +0.000 A 
ATOM     22 BR   UNL     1       2.381   8.539  17.890  0.00  0.00    +0.000 Br
ATOM     23  H   UNL     1       0.263   7.920  22.353  0.00  0.00    +0.000 HD
BRANCH  17  25
ATOM     24  C   UNL     1      -1.198  10.099  17.811  0.00  0.00    +0.000 C 
ATOM     25  C   UNL     1      -0.218  10.615  18.852  0.00  0.00    +0.000 C 
ENDBRANCH  17  25
ENDBRANCH  15  20
ENDBRANCH   1  15
TORSDOF 4
ENDMDL
MODEL 6
REMARK VINA RESULT:      -7.0      4.118      6.862
REMARK  Name = 
REMARK  5 active torsions:
REMARK  status: ('A' for Active; 'I' for Inactive)
REMARK    1  A    between atoms: C_1  and  C_2
REMARK    2  A    between atoms: C_2  and  C_3
REMARK    3  A    between atoms: C_6  and  N_7
REMARK    4  A    between atoms: N_7  and  S_8
REMARK    5  A    between atoms: S_8  and  C_11
REMARK                            x       y       z     vdW  Elec       q    Type
REMARK                         _______ _______ _______ _____ _____    ______ ____
ROOT
ATOM      1  S   UNL     1       2.177   5.163  20.231  0.00  0.00    +0.000 S 
ATOM      2  O   UNL     1       2.610   4.371  21.360  0.00  0.00    +0.000 OA
ATOM      3  O   UNL     1       0.800   5.144  19.789  0.00  0.00    +0.000 OA
ENDROOT
BRANCH   1   4
ATOM      4  C   UNL     1       3.247   4.806  18.862  0.00  0.00    +0.000 A 
ATOM      5  C   UNL     1       2.771   4.016  17.799  0.00  0.00    +0.000 A 
ATOM      6  C   UNL     1       3.619   3.676  16.739  0.00  0.00    +0.000 A 
ATOM      7  C   UNL     1       4.933   4.132  16.753  0.00  0.00    +0.000 A 
ATOM      8  C   UNL     1       5.365   4.918  17.817  0.00  0.00    +0.000 A 
ATOM      9  C   UNL     1       4.557   5.285  18.878  0.00  0.00    +0.000 A 
ATOM     10  S   UNL     1       7.051   5.346  17.653  0.00  0.00    +0.000 S 
ATOM     11  O   UNL     1       7.121   6.777  17.434  0.00  0.00    +0.000 OA
ATOM     12  O   UNL     1       7.778   4.664  18.703  0.00  0.00    +0.000 OA
ATOM     13  C   UNL     1       7.294   4.487  16.102  0.00  0.00    +0.000 C 
ATOM     14  C   UNL     1       5.958   3.853  15.692  0.00  0.00    +0.000 C 
ENDBRANCH   1   4
BRANCH   1  15
ATOM     15  N   UNL     1       2.630   6.766  20.581  0.00  0.00    +0.000 N 
ATOM     16  H   UNL     1       2.561   6.898  21.593  0.00  0.00    +0.000 HD
BRANCH  15  20
ATOM     17  C   UNL     1       0.820   9.454  18.999  0.00  0.00    +0.000 A 
ATOM     18  N   UNL     1       1.386   8.920  17.904  0.00  0.00    +0.000 NA
ATOM     19  N   UNL     1       2.151   7.917  18.387  0.00  0.00    +0.000 N 
ATOM     20  C   UNL     1       2.045   7.762  19.742  0.00  0.00    +0.000 A 
ATOM     21  C   UNL     1       1.218   8.769  20.164  0.00  0.00    +0.000 A 
ATOM     22 BR   UNL     1       0.672   9.156  21.915  0.00  0.00    +0.000 Br
ATOM     23  H   UNL     1       2.722   7.390  17.736  0.00  0.00    +0.000 HD
BRANCH  17  25
ATOM     24  C   UNL     1      -1.323  10.294  18.004  0.00  0.00    +0.000 C 
ATOM     25  C   UNL     1      -0.118  10.612  18.874  0.00  0.00    +0.000 C 
ENDBRANCH  17  25
ENDBRANCH  15  20
ENDBRANCH   1  15
TORSDOF 4
ENDMDL
MODEL 7
REMARK VINA RESULT:      -7.0      1.671      2.257
REMARK  Name = 
REMARK  5 active torsions:
REMARK  status: ('A' for Active; 'I' for Inactive)
REMARK    1  A    between atoms: C_1  and  C_2
REMARK    2  A    between atoms: C_2  and  C_3
REMARK    3  A    between atoms: C_6  and  N_7
REMARK    4  A    between atoms: N_7  and  S_8
REMARK    5  A    between atoms: S_8  and  C_11
REMARK                            x       y       z     vdW  Elec       q    Type
REMARK                         _______ _______ _______ _____ _____    ______ ____
ROOT
ATOM      1  S   UNL     1       6.171   6.612  16.437  0.00  0.00    +0.000 S 
ATOM      2  O   UNL     1       6.843   7.669  17.158  0.00  0.00    +0.000 OA
ATOM      3  O   UNL     1       5.231   6.908  15.379  0.00  0.00    +0.000 OA
ENDROOT
BRANCH   1   4
ATOM      4  C   UNL     1       5.414   5.528  17.620  0.00  0.00    +0.000 A 
ATOM      5  C   UNL     1       6.223   4.676  18.394  0.00  0.00    +0.000 A 
ATOM      6  C   UNL     1       5.640   3.773  19.291  0.00  0.00    +0.000 A 
ATOM      7  C   UNL     1       4.255   3.734  19.405  0.00  0.00    +0.000 A 
ATOM      8  C   UNL     1       3.488   4.599  18.629  0.00  0.00    +0.000 A 
ATOM      9  C   UNL     1       4.025   5.512  17.739  0.00  0.00    +0.000 A 
ATOM     10  S   UNL     1       1.779   4.357  18.900  0.00  0.00    +0.000 S 
ATOM     11  O   UNL     1       1.264   5.547  19.546  0.00  0.00    +0.000 OA
ATOM     12  O   UNL     1       1.219   3.805  17.684  0.00  0.00    +0.000 OA
ATOM     13  C   UNL     1       1.982   3.055  20.110  0.00  0.00    +0.000 C 
ATOM     14  C   UNL     1       3.485   2.826  20.318  0.00  0.00    +0.000 C 
ENDBRANCH   1   4
BRANCH   1  15
ATOM     15  N   UNL     1       7.403   5.607  15.826  0.00  0.00    +0.000 N 
ATOM     16  H   UNL     1       8.300   6.057  16.017  0.00  0.00    +0.000 HD
BRANCH  15  20
ATOM     17  C   UNL     1       6.503   3.871  12.795  0.00  0.00    +0.000 A 
ATOM     18  N   UNL     1       7.376   4.750  12.273  0.00  0.00    +0.000 NA
ATOM     19  N   UNL     1       7.746   5.508  13.328  0.00  0.00    +0.000 N 
ATOM     20  C   UNL     1       7.182   5.106  14.507  0.00  0.00    +0.000 A 
ATOM     21  C   UNL     1       6.345   4.071  14.181  0.00  0.00    +0.000 A 
ATOM     22 BR   UNL     1       5.241   3.077  15.323  0.00  0.00    +0.000 Br
ATOM     23  H   UNL     1       8.378   6.286  13.164  0.00  0.00    +0.000 HD
BRANCH  17  25
ATOM     24  C   UNL     1       4.446   3.220  11.518  0.00  0.00    +0.000 C 
ATOM     25  C   UNL     1       5.860   2.840  11.924  0.00  0.00    +0.000 C 
ENDBRANCH  17  25
ENDBRANCH  15  20
ENDBRANCH   1  15
TORSDOF 4
ENDMDL
MODEL 8
REMARK VINA RESULT:      -6.9      4.401      7.339
REMARK  Name = 
REMARK  5 active torsions:
REMARK  status: ('A' for Active; 'I' for Inactive)
REMARK    1  A    between atoms: C_1  and  C_2
REMARK    2  A    between atoms: C_2  and  C_3
REMARK    3  A    between atoms: C_6  and  N_7
REMARK    4  A    between atoms: N_7  and  S_8
REMARK    5  A    between atoms: S_8  and  C_11
REMARK                            x       y       z     vdW  Elec       q    Type
REMARK                         _______ _______ _______ _____ _____    ______ ____
ROOT
ATOM      1  S   UNL     1       2.203   5.274  20.174  0.00  0.00    +0.000 S 
ATOM      2  O   UNL     1       2.705   4.609  21.356  0.00  0.00    +0.000 OA
ATOM      3  O   UNL     1       0.802   5.215  19.822  0.00  0.00    +0.000 OA
ENDROOT
BRANCH   1   4
ATOM      4  C   UNL     1       3.187   4.761  18.791  0.00  0.00    +0.000 A 
ATOM      5  C   UNL     1       3.245   3.397  18.451  0.00  0.00    +0.000 A 
ATOM      6  C   UNL     1       4.062   2.966  17.398  0.00  0.00    +0.000 A 
ATOM      7  C   UNL     1       4.810   3.906  16.698  0.00  0.00    +0.000 A 
ATOM      8  C   UNL     1       4.720   5.248  17.057  0.00  0.00    +0.000 A 
ATOM      9  C   UNL     1       3.918   5.714  18.083  0.00  0.00    +0.000 A 
ATOM     10  S   UNL     1       5.768   6.245  16.077  0.00  0.00    +0.000 S 
ATOM     11  O   UNL     1       4.925   7.095  15.260  0.00  0.00    +0.000 OA
ATOM     12  O   UNL     1       6.816   6.752  16.936  0.00  0.00    +0.000 OA
ATOM     13  C   UNL     1       6.405   4.898  15.085  0.00  0.00    +0.000 C 
ATOM     14  C   UNL     1       5.728   3.601  15.550  0.00  0.00    +0.000 C 
ENDBRANCH   1   4
BRANCH   1  15
ATOM     15  N   UNL     1       2.677   6.903  20.317  0.00  0.00    +0.000 N 
ATOM     16  H   UNL     1       3.432   6.952  21.004  0.00  0.00    +0.000 HD
BRANCH  15  20
ATOM     17  C   UNL     1       0.224   9.537  20.091  0.00  0.00    +0.000 A 
ATOM     18  N   UNL     1      -0.110   9.053  21.300  0.00  0.00    +0.000 NA
ATOM     19  N   UNL     1       0.722   8.003  21.472  0.00  0.00    +0.000 N 
ATOM     20  C   UNL     1       1.607   7.840  20.442  0.00  0.00    +0.000 A 
ATOM     21  C   UNL     1       1.279   8.799  19.520  0.00  0.00    +0.000 A 
ATOM     22 BR   UNL     1       2.078   9.119  17.855  0.00  0.00    +0.000 Br
ATOM     23  H   UNL     1       0.620   7.440  22.311  0.00  0.00    +0.000 HD
BRANCH  17  25
ATOM     24  C   UNL     1      -1.460  10.363  18.427  0.00  0.00    +0.000 C 
ATOM     25  C   UNL     1      -0.486  10.730  19.534  0.00  0.00    +0.000 C 
ENDBRANCH  17  25
ENDBRANCH  15  20
ENDBRANCH   1  15
TORSDOF 4
ENDMDL
MODEL 9
REMARK VINA RESULT:      -6.9      3.008      4.178
REMARK  Name = 
REMARK  5 active torsions:
REMARK  status: ('A' for Active; 'I' for Inactive)
REMARK    1  A    between atoms: C_1  and  C_2
REMARK    2  A    between atoms: C_2  and  C_3
REMARK    3  A    between atoms: C_6  and  N_7
REMARK    4  A    between atoms: N_7  and  S_8
REMARK    5  A    between atoms: S_8  and  C_11
REMARK                            x       y       z     vdW  Elec       q    Type
REMARK                         _______ _______ _______ _____ _____    ______ ____
ROOT
ATOM      1  S   UNL     1       5.326   5.151  16.025  0.00  0.00    +0.000 S 
ATOM      2  O   UNL     1       5.279   6.444  15.381  0.00  0.00    +0.000 OA
ATOM      3  O   UNL     1       5.208   3.930  15.260  0.00  0.00    +0.000 OA
ENDROOT
BRANCH   1   4
ATOM      4  C   UNL     1       4.139   5.146  17.343  0.00  0.00    +0.000 A 
ATOM      5  C   UNL     1       3.525   6.353  17.725  0.00  0.00    +0.000 A 
ATOM      6  C   UNL     1       2.629   6.378  18.801  0.00  0.00    +0.000 A 
ATOM      7  C   UNL     1       2.357   5.196  19.480  0.00  0.00    +0.000 A 
ATOM      8  C   UNL     1       2.977   4.020  19.067  0.00  0.00    +0.000 A 
ATOM      9  C   UNL     1       3.859   3.951  18.005  0.00  0.00    +0.000 A 
ATOM     10  S   UNL     1       2.525   2.669  20.079  0.00  0.00    +0.000 S 
ATOM     11  O   UNL     1       1.743   1.757  19.269  0.00  0.00    +0.000 OA
ATOM     12  O   UNL     1       3.701   2.268  20.821  0.00  0.00    +0.000 OA
ATOM     13  C   UNL     1       1.438   3.611  21.144  0.00  0.00    +0.000 C 
ATOM     14  C   UNL     1       1.423   5.063  20.648  0.00  0.00    +0.000 C 
ENDBRANCH   1   4
BRANCH   1  15
ATOM     15  N   UNL     1       6.782   5.120  16.907  0.00  0.00    +0.000 N 
ATOM     16  H   UNL     1       6.675   4.447  17.668  0.00  0.00    +0.000 HD
BRANCH  15  20
ATOM     17  C   UNL     1       8.225   8.107  18.323  0.00  0.00    +0.000 A 
ATOM     18  N   UNL     1       7.875   8.601  17.123  0.00  0.00    +0.000 NA
ATOM     19  N   UNL     1       7.364   7.536  16.468  0.00  0.00    +0.000 N 
ATOM     20  C   UNL     1       7.326   6.401  17.230  0.00  0.00    +0.000 A 
ATOM     21  C   UNL     1       7.912   6.737  18.421  0.00  0.00    +0.000 A 
ATOM     22 BR   UNL     1       8.210   5.639  19.910  0.00  0.00    +0.000 Br
ATOM     23  H   UNL     1       7.071   7.659  15.504  0.00  0.00    +0.000 HD
BRANCH  17  25
ATOM     24  C   UNL     1       9.192  10.370  18.804  0.00  0.00    +0.000 C 
ATOM     25  C   UNL     1       8.838   8.999  19.356  0.00  0.00    +0.000 C 
ENDBRANCH  17  25
ENDBRANCH  15  20
ENDBRANCH   1  15
TORSDOF 4
ENDMDL
