MODEL 1
REMARK VINA RESULT:      -7.4      0.000      0.000
REMARK  Name = 
REMARK  6 active torsions:
REMARK  status: ('A' for Active; 'I' for Inactive)
REMARK    1  A    between atoms: C_1  and  C_2
REMARK    2  A    between atoms: C_2  and  C_3
REMARK    3  A    between atoms: C_3  and  C_4
REMARK    4  A    between atoms: C_4  and  C_5
REMARK    5  A    between atoms: C_5  and  N_6
REMARK    6  A    between atoms: C_13  and  C_14
REMARK                            x       y       z     vdW  Elec       q    Type
REMARK                         _______ _______ _______ _____ _____    ______ ____
ROOT
ATOM      1  N   UNL     1       5.521   3.627  16.252  0.00  0.00    +0.000 N 
ATOM      2  C   UNL     1       4.622   3.914  17.235  0.00  0.00    +0.000 A 
ATOM      3  N   UNL     1       4.381   5.091  17.701  0.00  0.00    +0.000 NA
ATOM      4  C   UNL     1       3.418   5.201  18.701  0.00  0.00    +0.000 A 
ATOM      5  C   UNL     1       3.029   6.480  19.114  0.00  0.00    +0.000 A 
ATOM      6  C   UNL     1       2.071   6.641  20.112  0.00  0.00    +0.000 A 
ATOM      7  C   UNL     1       1.532   5.521  20.742  0.00  0.00    +0.000 A 
ATOM      8  C   UNL     1       1.932   4.228  20.368  0.00  0.00    +0.000 A 
ATOM      9  C   UNL     1       1.385   3.056  21.136  0.00  0.00    +0.000 C 
ATOM     10  C   UNL     1       2.848   4.085  19.303  0.00  0.00    +0.000 A 
ATOM     11  C   UNL     1       3.233   2.778  18.734  0.00  0.00    +0.000 A 
ATOM     12  O   UNL     1       2.815   1.720  19.193  0.00  0.00    +0.000 OA
ATOM     13  O   UNL     1       4.044   2.772  17.653  0.00  0.00    +0.000 OA
ATOM     14  H   UNL     1       5.621   2.630  16.099  0.00  0.00    +0.000 HD
ENDROOT
BRANCH   1  15
ATOM     15  C   UNL     1       6.748   4.385  16.106  0.00  0.00    +0.000 C 
BRANCH  15  16
ATOM     16  C   UNL     1       7.037   4.634  14.625  0.00  0.00    +0.000 C 
BRANCH  16  17
ATOM     17  C   UNL     1       5.942   4.062  13.721  0.00  0.00    +0.000 C 
BRANCH  17  19
ATOM     18  C   UNL     1       5.579   2.573  11.732  0.00  0.00    +0.000 C 
ATOM     19  C   UNL     1       6.508   3.584  12.385  0.00  0.00    +0.000 C 
ENDBRANCH  17  19
ENDBRANCH  16  17
ENDBRANCH  15  16
ENDBRANCH   1  15
TORSDOF 4
ENDMDL
MODEL 2
REMARK VINA RESULT:      -7.1      1.526      2.438
REMARK  Name = 
REMARK  6 active torsions:
REMARK  status: ('A' for Active; 'I' for Inactive)
REMARK    1  A    between atoms: C_1  and  C_2
REMARK    2  A    between atoms: C_2  and  C_3
REMARK    3  A    between atoms: C_3  and  C_4
REMARK    4  A    between atoms: C_4  and  C_5
REMARK    5  A    between atoms: C_5  and  N_6
REMARK    6  A    between atoms: C_13  and  C_14
REMARK                            x       y       z     vdW  Elec       q    Type
REMARK                         _______ _______ _______ _____ _____    ______ ____
ROOT
ATOM      1  N   UNL     1       6.144   3.985  16.348  0.00  0.00    +0.000 N 
ATOM      2  C   UNL     1       5.055   3.948  17.166  0.00  0.00    +0.000 A 
ATOM      3  N   UNL     1       4.091   3.097  17.082  0.00  0.00    +0.000 NA
ATOM      4  C   UNL     1       3.059   3.199  18.011  0.00  0.00    +0.000 A 
ATOM      5  C   UNL     1       2.083   2.197  18.037  0.00  0.00    +0.000 A 
ATOM      6  C   UNL     1       1.032   2.256  18.948  0.00  0.00    +0.000 A 
ATOM      7  C   UNL     1       0.920   3.348  19.806  0.00  0.00    +0.000 A 
ATOM      8  C   UNL     1       1.868   4.383  19.776  0.00  0.00    +0.000 A 
ATOM      9  C   UNL     1       1.657   5.580  20.661  0.00  0.00    +0.000 C 
ATOM     10  C   UNL     1       2.968   4.266  18.897  0.00  0.00    +0.000 A 
ATOM     11  C   UNL     1       4.095   5.220  18.877  0.00  0.00    +0.000 A 
ATOM     12  O   UNL     1       4.120   6.214  19.595  0.00  0.00    +0.000 OA
ATOM     13  O   UNL     1       5.138   4.951  18.060  0.00  0.00    +0.000 OA
ATOM     14  H   UNL     1       6.736   4.789  16.529  0.00  0.00    +0.000 HD
ENDROOT
BRANCH   1  15
ATOM     15  C   UNL     1       6.054   3.607  14.952  0.00  0.00    +0.000 C 
BRANCH  15  16
ATOM     16  C   UNL     1       6.837   4.598  14.089  0.00  0.00    +0.000 C 
BRANCH  16  17
ATOM     17  C   UNL     1       6.689   4.301  12.594  0.00  0.00    +0.000 C 
BRANCH  17  19
ATOM     18  C   UNL     1       4.590   3.365  11.585  0.00  0.00    +0.000 C 
ATOM     19  C   UNL     1       5.863   3.040  12.350  0.00  0.00    +0.000 C 
ENDBRANCH  17  19
ENDBRANCH  16  17
ENDBRANCH  15  16
ENDBRANCH   1  15
TORSDOF 4
ENDMDL
MODEL 3
REMARK VINA RESULT:      -7.1      2.448      3.665
REMARK  Name = 
REMARK  6 active torsions:
REMARK  status: ('A' for Active; 'I' for Inactive)
REMARK    1  A    between atoms: C_1  and  C_2
REMARK    2  A    between atoms: C_2  and  C_3
REMARK    3  A    between atoms: C_3  and  C_4
REMARK    4  A    between atoms: C_4  and  C_5
REMARK    5  A    between atoms: C_5  and  N_6
REMARK    6  A    between atoms: C_13  and  C_14
REMARK                            x       y       z     vdW  Elec       q    Type
REMARK                         _______ _______ _______ _____ _____    ______ ____
ROOT
ATOM      1  N   UNL     1       5.983   4.786  16.558  0.00  0.00    +0.000 N 
ATOM      2  C   UNL     1       4.858   4.613  17.306  0.00  0.00    +0.000 A 
ATOM      3  N   UNL     1       4.537   5.314  18.339  0.00  0.00    +0.000 NA
ATOM      4  C   UNL     1       3.339   5.005  18.980  0.00  0.00    +0.000 A 
ATOM      5  C   UNL     1       2.895   5.847  20.005  0.00  0.00    +0.000 A 
ATOM      6  C   UNL     1       1.705   5.579  20.676  0.00  0.00    +0.000 A 
ATOM      7  C   UNL     1       0.975   4.434  20.360  0.00  0.00    +0.000 A 
ATOM      8  C   UNL     1       1.419   3.556  19.359  0.00  0.00    +0.000 A 
ATOM      9  C   UNL     1       0.642   2.291  19.115  0.00  0.00    +0.000 C 
ATOM     10  C   UNL     1       2.588   3.886  18.639  0.00  0.00    +0.000 A 
ATOM     11  C   UNL     1       3.071   3.114  17.477  0.00  0.00    +0.000 A 
ATOM     12  O   UNL     1       2.507   2.094  17.093  0.00  0.00    +0.000 OA
ATOM     13  O   UNL     1       4.148   3.583  16.809  0.00  0.00    +0.000 OA
ATOM     14  H   UNL     1       6.088   4.070  15.847  0.00  0.00    +0.000 HD
ENDROOT
BRANCH   1  15
ATOM     15  C   UNL     1       7.227   5.227  17.155  0.00  0.00    +0.000 C 
BRANCH  15  16
ATOM     16  C   UNL     1       7.448   6.713  16.868  0.00  0.00    +0.000 C 
BRANCH  16  17
ATOM     17  C   UNL     1       7.903   7.479  18.113  0.00  0.00    +0.000 C 
BRANCH  17  19
ATOM     18  C   UNL     1       8.949   9.645  18.833  0.00  0.00    +0.000 C 
ATOM     19  C   UNL     1       8.002   8.980  17.846  0.00  0.00    +0.000 C 
ENDBRANCH  17  19
ENDBRANCH  16  17
ENDBRANCH  15  16
ENDBRANCH   1  15
TORSDOF 4
ENDMDL
MODEL 4
REMARK VINA RESULT:      -6.9      3.191      4.148
REMARK  Name = 
REMARK  6 active torsions:
REMARK  status: ('A' for Active; 'I' for Inactive)
REMARK    1  A    between atoms: C_1  and  C_2
REMARK    2  A    between atoms: C_2  and  C_3
REMARK    3  A    between atoms: C_3  and  C_4
REMARK    4  A    between atoms: C_4  and  C_5
REMARK    5  A    between atoms: C_5  and  N_6
REMARK    6  A    between atoms: C_13  and  C_14
REMARK                            x       y       z     vdW  Elec       q    Type
REMARK                         _______ _______ _______ _____ _____    ______ ____
ROOT
ATOM      1  N   UNL     1       7.097   5.241  18.283  0.00  0.00    +0.000 N 
ATOM      2  C   UNL     1       5.866   4.992  18.812  0.00  0.00    +0.000 A 
ATOM      3  N   UNL     1       4.958   5.880  19.029  0.00  0.00    +0.000 NA
ATOM      4  C   UNL     1       3.748   5.444  19.566  0.00  0.00    +0.000 A 
ATOM      5  C   UNL     1       2.696   6.360  19.669  0.00  0.00    +0.000 A 
ATOM      6  C   UNL     1       1.469   5.972  20.200  0.00  0.00    +0.000 A 
ATOM      7  C   UNL     1       1.302   4.675  20.682  0.00  0.00    +0.000 A 
ATOM      8  C   UNL     1       2.355   3.748  20.622  0.00  0.00    +0.000 A 
ATOM      9  C   UNL     1       2.152   2.389  21.234  0.00  0.00    +0.000 C 
ATOM     10  C   UNL     1       3.566   4.140  20.010  0.00  0.00    +0.000 A 
ATOM     11  C   UNL     1       4.689   3.212  19.767  0.00  0.00    +0.000 A 
ATOM     12  O   UNL     1       4.657   2.041  20.133  0.00  0.00    +0.000 OA
ATOM     13  O   UNL     1       5.759   3.678  19.087  0.00  0.00    +0.000 OA
ATOM     14  H   UNL     1       7.690   4.418  18.281  0.00  0.00    +0.000 HD
ENDROOT
BRANCH   1  15
ATOM     15  C   UNL     1       7.794   6.484  18.546  0.00  0.00    +0.000 C 
BRANCH  15  16
ATOM     16  C   UNL     1       7.667   7.420  17.343  0.00  0.00    +0.000 C 
BRANCH  16  17
ATOM     17  C   UNL     1       7.705   8.894  17.754  0.00  0.00    +0.000 C 
BRANCH  17  19
ATOM     18  C   UNL     1       9.237  10.657  18.674  0.00  0.00    +0.000 C 
ATOM     19  C   UNL     1       8.865   9.183  18.705  0.00  0.00    +0.000 C 
ENDBRANCH  17  19
ENDBRANCH  16  17
ENDBRANCH  15  16
ENDBRANCH   1  15
TORSDOF 4
ENDMDL
MODEL 5
REMARK VINA RESULT:      -6.9      1.513      2.854
REMARK  Name = 
REMARK  6 active torsions:
REMARK  status: ('A' for Active; 'I' for Inactive)
REMARK    1  A    between atoms: C_1  and  C_2
REMARK    2  A    between atoms: C_2  and  C_3
REMARK    3  A    between atoms: C_3  and  C_4
REMARK    4  A    between atoms: C_4  and  C_5
REMARK    5  A    between atoms: C_5  and  N_6
REMARK    6  A    between atoms: C_13  and  C_14
REMARK                            x       y       z     vdW  Elec       q    Type
REMARK                         _______ _______ _______ _____ _____    ______ ____
ROOT
ATOM      1  N   UNL     1       5.216   4.073  15.843  0.00  0.00    +0.000 N 
ATOM      2  C   UNL     1       4.447   4.286  16.948  0.00  0.00    +0.000 A 
ATOM      3  N   UNL     1       4.073   5.441  17.381  0.00  0.00    +0.000 NA
ATOM      4  C   UNL     1       3.277   5.472  18.524  0.00  0.00    +0.000 A 
ATOM      5  C   UNL     1       2.733   6.697  18.924  0.00  0.00    +0.000 A 
ATOM      6  C   UNL     1       1.932   6.778  20.060  0.00  0.00    +0.000 A 
ATOM      7  C   UNL     1       1.712   5.641  20.835  0.00  0.00    +0.000 A 
ATOM      8  C   UNL     1       2.275   4.407  20.473  0.00  0.00    +0.000 A 
ATOM      9  C   UNL     1       2.079   3.229  21.387  0.00  0.00    +0.000 C 
ATOM     10  C   UNL     1       3.021   4.331  19.276  0.00  0.00    +0.000 A 
ATOM     11  C   UNL     1       3.543   3.064  18.724  0.00  0.00    +0.000 A 
ATOM     12  O   UNL     1       3.402   1.993  19.306  0.00  0.00    +0.000 OA
ATOM     13  O   UNL     1       4.159   3.103  17.522  0.00  0.00    +0.000 OA
ATOM     14  H   UNL     1       5.470   3.097  15.732  0.00  0.00    +0.000 HD
ENDROOT
BRANCH   1  15
ATOM     15  C   UNL     1       6.246   5.013  15.447  0.00  0.00    +0.000 C 
BRANCH  15  16
ATOM     16  C   UNL     1       7.215   5.246  16.607  0.00  0.00    +0.000 C 
BRANCH  16  17
ATOM     17  C   UNL     1       7.349   6.731  16.955  0.00  0.00    +0.000 C 
BRANCH  17  19
ATOM     18  C   UNL     1       7.726   5.648  19.188  0.00  0.00    +0.000 C 
ATOM     19  C   UNL     1       7.853   6.931  18.383  0.00  0.00    +0.000 C 
ENDBRANCH  17  19
ENDBRANCH  16  17
ENDBRANCH  15  16
ENDBRANCH   1  15
TORSDOF 4
ENDMDL
MODEL 6
REMARK VINA RESULT:      -6.9      1.766      2.582
REMARK  Name = 
REMARK  6 active torsions:
REMARK  status: ('A' for Active; 'I' for Inactive)
REMARK    1  A    between atoms: C_1  and  C_2
REMARK    2  A    between atoms: C_2  and  C_3
REMARK    3  A    between atoms: C_3  and  C_4
REMARK    4  A    between atoms: C_4  and  C_5
REMARK    5  A    between atoms: C_5  and  N_6
REMARK    6  A    between atoms: C_13  and  C_14
REMARK                            x       y       z     vdW  Elec       q    Type
REMARK                         _______ _______ _______ _____ _____    ______ ____
ROOT
ATOM      1  N   UNL     1       6.298   5.205  16.346  0.00  0.00    +0.000 N 
ATOM      2  C   UNL     1       5.403   5.030  17.358  0.00  0.00    +0.000 A 
ATOM      3  N   UNL     1       5.198   3.923  17.986  0.00  0.00    +0.000 NA
ATOM      4  C   UNL     1       4.249   3.927  19.005  0.00  0.00    +0.000 A 
ATOM      5  C   UNL     1       4.119   2.783  19.800  0.00  0.00    +0.000 A 
ATOM      6  C   UNL     1       3.184   2.740  20.831  0.00  0.00    +0.000 A 
ATOM      7  C   UNL     1       2.333   3.825  21.040  0.00  0.00    +0.000 A 
ATOM      8  C   UNL     1       2.422   4.970  20.233  0.00  0.00    +0.000 A 
ATOM      9  C   UNL     1       1.426   6.078  20.443  0.00  0.00    +0.000 C 
ATOM     10  C   UNL     1       3.428   5.024  19.243  0.00  0.00    +0.000 A 
ATOM     11  C   UNL     1       3.704   6.225  18.431  0.00  0.00    +0.000 A 
ATOM     12  O   UNL     1       3.034   7.248  18.533  0.00  0.00    +0.000 OA
ATOM     13  O   UNL     1       4.755   6.188  17.583  0.00  0.00    +0.000 OA
ATOM     14  H   UNL     1       6.236   6.128  15.931  0.00  0.00    +0.000 HD
ENDROOT
BRANCH   1  15
ATOM     15  C   UNL     1       6.595   4.141  15.408  0.00  0.00    +0.000 C 
BRANCH  15  16
ATOM     16  C   UNL     1       5.641   4.215  14.214  0.00  0.00    +0.000 C 
BRANCH  16  17
ATOM     17  C   UNL     1       6.349   3.908  12.892  0.00  0.00    +0.000 C 
BRANCH  17  19
ATOM     18  C   UNL     1       4.314   3.397  11.514  0.00  0.00    +0.000 C 
ATOM     19  C   UNL     1       5.605   2.841  12.090  0.00  0.00    +0.000 C 
ENDBRANCH  17  19
ENDBRANCH  16  17
ENDBRANCH  15  16
ENDBRANCH   1  15
TORSDOF 4
ENDMDL
MODEL 7
REMARK VINA RESULT:      -6.8      4.663      6.631
REMARK  Name = 
REMARK  6 active torsions:
REMARK  status: ('A' for Active; 'I' for Inactive)
REMARK    1  A    between atoms: C_1  and  C_2
REMARK    2  A    between atoms: C_2  and  C_3
REMARK    3  A    between atoms: C_3  and  C_4
REMARK    4  A    between atoms: C_4  and  C_5
REMARK    5  A    between atoms: C_5  and  N_6
REMARK    6  A    between atoms: C_13  and  C_14
REMARK                            x       y       z     vdW  Elec       q    Type
REMARK                         _______ _______ _______ _____ _____    ______ ____
ROOT
ATOM      1  N   UNL     1       8.322   7.795  18.663  0.00  0.00    +0.000 N 
ATOM      2  C   UNL     1       7.605   6.823  18.031  0.00  0.00    +0.000 A 
ATOM      3  N   UNL     1       7.552   6.650  16.755  0.00  0.00    +0.000 NA
ATOM      4  C   UNL     1       6.775   5.596  16.281  0.00  0.00    +0.000 A 
ATOM      5  C   UNL     1       6.823   5.294  14.916  0.00  0.00    +0.000 A 
ATOM      6  C   UNL     1       6.063   4.249  14.395  0.00  0.00    +0.000 A 
ATOM      7  C   UNL     1       5.209   3.531  15.230  0.00  0.00    +0.000 A 
ATOM      8  C   UNL     1       5.118   3.838  16.597  0.00  0.00    +0.000 A 
ATOM      9  C   UNL     1       4.118   3.092  17.437  0.00  0.00    +0.000 C 
ATOM     10  C   UNL     1       5.953   4.851  17.119  0.00  0.00    +0.000 A 
ATOM     11  C   UNL     1       6.044   5.165  18.559  0.00  0.00    +0.000 A 
ATOM     12  O   UNL     1       5.353   4.592  19.395  0.00  0.00    +0.000 OA
ATOM     13  O   UNL     1       6.950   6.088  18.949  0.00  0.00    +0.000 OA
ATOM     14  H   UNL     1       8.154   7.811  19.663  0.00  0.00    +0.000 HD
ENDROOT
BRANCH   1  15
ATOM     15  C   UNL     1       8.515   9.101  18.064  0.00  0.00    +0.000 C 
BRANCH  15  16
ATOM     16  C   UNL     1       9.219  10.031  19.053  0.00  0.00    +0.000 C 
BRANCH  16  17
ATOM     17  C   UNL     1       9.443  11.428  18.469  0.00  0.00    +0.000 C 
BRANCH  17  19
ATOM     18  C   UNL     1      11.807  11.614  19.294  0.00  0.00    +0.000 C 
ATOM     19  C   UNL     1      10.902  11.646  18.072  0.00  0.00    +0.000 C 
ENDBRANCH  17  19
ENDBRANCH  16  17
ENDBRANCH  15  16
ENDBRANCH   1  15
TORSDOF 4
ENDMDL
MODEL 8
REMARK VINA RESULT:      -6.7      1.773      1.925
REMARK  Name = 
REMARK  6 active torsions:
REMARK  status: ('A' for Active; 'I' for Inactive)
REMARK    1  A    between atoms: C_1  and  C_2
REMARK    2  A    between atoms: C_2  and  C_3
REMARK    3  A    between atoms: C_3  and  C_4
REMARK    4  A    between atoms: C_4  and  C_5
REMARK    5  A    between atoms: C_5  and  N_6
REMARK    6  A    between atoms: C_13  and  C_14
REMARK                            x       y       z     vdW  Elec       q    Type
REMARK                         _______ _______ _______ _____ _____    ______ ____
ROOT
ATOM      1  N   UNL     1       6.464   4.208  17.383  0.00  0.00    +0.000 N 
ATOM      2  C   UNL     1       5.284   3.877  17.978  0.00  0.00    +0.000 A 
ATOM      3  N   UNL     1       4.115   4.182  17.531  0.00  0.00    +0.000 NA
ATOM      4  C   UNL     1       3.012   3.750  18.265  0.00  0.00    +0.000 A 
ATOM      5  C   UNL     1       1.736   3.935  17.722  0.00  0.00    +0.000 A 
ATOM      6  C   UNL     1       0.604   3.521  18.418  0.00  0.00    +0.000 A 
ATOM      7  C   UNL     1       0.738   2.966  19.689  0.00  0.00    +0.000 A 
ATOM      8  C   UNL     1       2.005   2.802  20.269  0.00  0.00    +0.000 A 
ATOM      9  C   UNL     1       2.091   2.277  21.677  0.00  0.00    +0.000 C 
ATOM     10  C   UNL     1       3.145   3.158  19.515  0.00  0.00    +0.000 A 
ATOM     11  C   UNL     1       4.528   2.903  19.965  0.00  0.00    +0.000 A 
ATOM     12  O   UNL     1       4.776   2.406  21.059  0.00  0.00    +0.000 OA
ATOM     13  O   UNL     1       5.535   3.200  19.115  0.00  0.00    +0.000 OA
ATOM     14  H   UNL     1       7.267   3.950  17.947  0.00  0.00    +0.000 HD
ENDROOT
BRANCH   1  15
ATOM     15  C   UNL     1       6.618   5.448  16.649  0.00  0.00    +0.000 C 
BRANCH  15  16
ATOM     16  C   UNL     1       6.964   5.153  15.189  0.00  0.00    +0.000 C 
BRANCH  16  17
ATOM     17  C   UNL     1       6.341   3.842  14.703  0.00  0.00    +0.000 C 
BRANCH  17  19
ATOM     18  C   UNL     1       6.006   3.306  12.274  0.00  0.00    +0.000 C 
ATOM     19  C   UNL     1       5.458   4.059  13.476  0.00  0.00    +0.000 C 
ENDBRANCH  17  19
ENDBRANCH  16  17
ENDBRANCH  15  16
ENDBRANCH   1  15
TORSDOF 4
ENDMDL
MODEL 9
REMARK VINA RESULT:      -6.7      2.388      5.740
REMARK  Name = 
REMARK  6 active torsions:
REMARK  status: ('A' for Active; 'I' for Inactive)
REMARK    1  A    between atoms: C_1  and  C_2
REMARK    2  A    between atoms: C_2  and  C_3
REMARK    3  A    between atoms: C_3  and  C_4
REMARK    4  A    between atoms: C_4  and  C_5
REMARK    5  A    between atoms: C_5  and  N_6
REMARK    6  A    between atoms: C_13  and  C_14
REMARK                            x       y       z     vdW  Elec       q    Type
REMARK                         _______ _______ _______ _____ _____    ______ ____
ROOT
ATOM      1  N   UNL     1       3.709   2.253  19.918  0.00  0.00    +0.000 N 
ATOM      2  C   UNL     1       4.476   3.122  19.201  0.00  0.00    +0.000 A 
ATOM      3  N   UNL     1       5.269   4.003  19.705  0.00  0.00    +0.000 NA
ATOM      4  C   UNL     1       5.988   4.803  18.820  0.00  0.00    +0.000 A 
ATOM      5  C   UNL     1       6.965   5.660  19.339  0.00  0.00    +0.000 A 
ATOM      6  C   UNL     1       7.709   6.479  18.494  0.00  0.00    +0.000 A 
ATOM      7  C   UNL     1       7.442   6.487  17.126  0.00  0.00    +0.000 A 
ATOM      8  C   UNL     1       6.443   5.662  16.586  0.00  0.00    +0.000 A 
ATOM      9  C   UNL     1       6.135   5.769  15.118  0.00  0.00    +0.000 C 
ATOM     10  C   UNL     1       5.753   4.783  17.450  0.00  0.00    +0.000 A 
ATOM     11  C   UNL     1       4.782   3.775  16.977  0.00  0.00    +0.000 A 
ATOM     12  O   UNL     1       4.474   3.674  15.794  0.00  0.00    +0.000 OA
ATOM     13  O   UNL     1       4.258   2.925  17.887  0.00  0.00    +0.000 OA
ATOM     14  H   UNL     1       3.091   1.706  19.328  0.00  0.00    +0.000 HD
ENDROOT
BRANCH   1  15
ATOM     15  C   UNL     1       3.146   2.624  21.201  0.00  0.00    +0.000 C 
BRANCH  15  16
ATOM     16  C   UNL     1       1.619   2.604  21.127  0.00  0.00    +0.000 C 
BRANCH  16  17
ATOM     17  C   UNL     1       1.070   3.734  20.251  0.00  0.00    +0.000 C 
BRANCH  17  19
ATOM     18  C   UNL     1       1.242   4.242  17.799  0.00  0.00    +0.000 C 
ATOM     19  C   UNL     1       0.752   3.247  18.838  0.00  0.00    +0.000 C 
ENDBRANCH  17  19
ENDBRANCH  16  17
ENDBRANCH  15  16
ENDBRANCH   1  15
TORSDOF 4
ENDMDL
