MODEL 1
REMARK VINA RESULT:      -7.1      0.000      0.000
REMARK  Name = 
REMARK  4 active torsions:
REMARK  status: ('A' for Active; 'I' for Inactive)
REMARK    1  A    between atoms: C_1  and  C_2
REMARK    2  A    between atoms: C_6  and  C_7
REMARK    3  A    between atoms: C_7  and  N_8
REMARK    4  A    between atoms: N_8  and  C_9
REMARK                            x       y       z     vdW  Elec       q    Type
REMARK                         _______ _______ _______ _____ _____    ______ ____
ROOT
ATOM      1  N   UNL     1       3.667   5.185  18.571  0.00  0.00    +0.000 NA
ATOM      2  H   UNL     1       3.770   6.180  18.749  0.00  0.00    +0.000 HD
ENDROOT
BRANCH   1   3
ATOM      3  C   UNL     1       2.331   4.711  18.894  0.00  0.00    +0.000 C 
ATOM      4  C   UNL     1       1.748   5.051  20.285  0.00  0.00    +0.000 C 
ATOM      5  C   UNL     1       1.235   3.683  20.804  0.00  0.00    +0.000 C 
ATOM      6  C   UNL     1       2.436   2.865  21.295  0.00  0.00    +0.000 C 
ATOM      7  C   UNL     1       3.184   2.556  19.990  0.00  0.00    +0.000 C 
ATOM      8  C   UNL     1       2.265   3.159  18.904  0.00  0.00    +0.000 C 
ATOM      9  C   UNL     1       0.880   2.937  19.518  0.00  0.00    +0.000 C 
ENDBRANCH   1   3
BRANCH   1  10
ATOM     10  C   UNL     1       4.137   4.893  17.221  0.00  0.00    +0.000 C 
BRANCH  10  16
ATOM     11  C   UNL     1       6.339   4.273  14.808  0.00  0.00    +0.000 C 
ATOM     12  C   UNL     1       6.564   4.407  16.269  0.00  0.00    +0.000 A 
ATOM     13  N   UNL     1       7.807   4.261  16.750  0.00  0.00    +0.000 NA
ATOM     14  N   UNL     1       7.672   4.440  18.071  0.00  0.00    +0.000 N 
ATOM     15  C   UNL     1       6.388   4.667  18.454  0.00  0.00    +0.000 A 
ATOM     16  C   UNL     1       5.618   4.670  17.309  0.00  0.00    +0.000 A 
ATOM     17  H   UNL     1       8.501   4.387  18.651  0.00  0.00    +0.000 HD
ENDBRANCH  10  16
ENDBRANCH   1  10
TORSDOF 3
ENDMDL
MODEL 2
REMARK VINA RESULT:      -7.0      1.451      2.116
REMARK  Name = 
REMARK  4 active torsions:
REMARK  status: ('A' for Active; 'I' for Inactive)
REMARK    1  A    between atoms: C_1  and  C_2
REMARK    2  A    between atoms: C_6  and  C_7
REMARK    3  A    between atoms: C_7  and  N_8
REMARK    4  A    between atoms: N_8  and  C_9
REMARK                            x       y       z     vdW  Elec       q    Type
REMARK                         _______ _______ _______ _____ _____    ______ ____
ROOT
ATOM      1  N   UNL     1       4.660   3.104  18.158  0.00  0.00    +0.000 NA
ATOM      2  H   UNL     1       4.970   2.627  19.000  0.00  0.00    +0.000 HD
ENDROOT
BRANCH   1   3
ATOM      3  C   UNL     1       3.234   2.930  17.931  0.00  0.00    +0.000 C 
ATOM      4  C   UNL     1       2.335   4.188  17.919  0.00  0.00    +0.000 C 
ATOM      5  C   UNL     1       1.174   3.809  18.875  0.00  0.00    +0.000 C 
ATOM      6  C   UNL     1       1.670   3.941  20.321  0.00  0.00    +0.000 C 
ATOM      7  C   UNL     1       2.685   2.795  20.431  0.00  0.00    +0.000 C 
ATOM      8  C   UNL     1       2.575   2.092  19.060  0.00  0.00    +0.000 C 
ATOM      9  C   UNL     1       1.093   2.289  18.733  0.00  0.00    +0.000 C 
ENDBRANCH   1   3
BRANCH   1  10
ATOM     10  C   UNL     1       5.135   4.483  18.189  0.00  0.00    +0.000 C 
BRANCH  10  16
ATOM     11  C   UNL     1       7.363   6.853  17.501  0.00  0.00    +0.000 C 
ATOM     12  C   UNL     1       6.925   5.708  16.664  0.00  0.00    +0.000 A 
ATOM     13  N   UNL     1       7.461   5.554  15.444  0.00  0.00    +0.000 NA
ATOM     14  N   UNL     1       6.871   4.452  14.963  0.00  0.00    +0.000 N 
ATOM     15  C   UNL     1       5.962   3.912  15.816  0.00  0.00    +0.000 A 
ATOM     16  C   UNL     1       5.966   4.690  16.957  0.00  0.00    +0.000 A 
ATOM     17  H   UNL     1       7.136   4.129  14.040  0.00  0.00    +0.000 HD
ENDBRANCH  10  16
ENDBRANCH   1  10
TORSDOF 3
ENDMDL
MODEL 3
REMARK VINA RESULT:      -6.9      1.426      1.790
REMARK  Name = 
REMARK  4 active torsions:
REMARK  status: ('A' for Active; 'I' for Inactive)
REMARK    1  A    between atoms: C_1  and  C_2
REMARK    2  A    between atoms: C_6  and  C_7
REMARK    3  A    between atoms: C_7  and  N_8
REMARK    4  A    between atoms: N_8  and  C_9
REMARK                            x       y       z     vdW  Elec       q    Type
REMARK                         _______ _______ _______ _____ _____    ______ ____
ROOT
ATOM      1  N   UNL     1       4.064   5.111  18.551  0.00  0.00    +0.000 NA
ATOM      2  H   UNL     1       3.811   5.551  19.431  0.00  0.00    +0.000 HD
ENDROOT
BRANCH   1   3
ATOM      3  C   UNL     1       3.269   3.922  18.290  0.00  0.00    +0.000 C 
ATOM      4  C   UNL     1       1.796   4.105  17.855  0.00  0.00    +0.000 C 
ATOM      5  C   UNL     1       1.022   3.151  18.801  0.00  0.00    +0.000 C 
ATOM      6  C   UNL     1       0.899   3.821  20.177  0.00  0.00    +0.000 C 
ATOM      7  C   UNL     1       2.350   3.812  20.681  0.00  0.00    +0.000 C 
ATOM      8  C   UNL     1       3.106   3.053  19.567  0.00  0.00    +0.000 C 
ATOM      9  C   UNL     1       2.044   2.056  19.100  0.00  0.00    +0.000 C 
ENDBRANCH   1   3
BRANCH   1  10
ATOM     10  C   UNL     1       4.063   6.120  17.497  0.00  0.00    +0.000 C 
BRANCH  10  16
ATOM     11  C   UNL     1       5.458   4.263  15.117  0.00  0.00    +0.000 C 
ATOM     12  C   UNL     1       6.050   5.372  15.908  0.00  0.00    +0.000 A 
ATOM     13  N   UNL     1       7.326   5.718  15.684  0.00  0.00    +0.000 NA
ATOM     14  N   UNL     1       7.546   6.728  16.537  0.00  0.00    +0.000 N 
ATOM     15  C   UNL     1       6.470   7.021  17.314  0.00  0.00    +0.000 A 
ATOM     16  C   UNL     1       5.453   6.169  16.934  0.00  0.00    +0.000 A 
ATOM     17  H   UNL     1       8.459   7.167  16.537  0.00  0.00    +0.000 HD
ENDBRANCH  10  16
ENDBRANCH   1  10
TORSDOF 3
ENDMDL
MODEL 4
REMARK VINA RESULT:      -6.9      1.430      2.331
REMARK  Name = 
REMARK  4 active torsions:
REMARK  status: ('A' for Active; 'I' for Inactive)
REMARK    1  A    between atoms: C_1  and  C_2
REMARK    2  A    between atoms: C_6  and  C_7
REMARK    3  A    between atoms: C_7  and  N_8
REMARK    4  A    between atoms: N_8  and  C_9
REMARK                            x       y       z     vdW  Elec       q    Type
REMARK                         _______ _______ _______ _____ _____    ______ ____
ROOT
ATOM      1  N   UNL     1       4.411   3.863  18.872  0.00  0.00    +0.000 NA
ATOM      2  H   UNL     1       4.671   2.895  18.709  0.00  0.00    +0.000 HD
ENDROOT
BRANCH   1   3
ATOM      3  C   UNL     1       3.344   3.982  19.852  0.00  0.00    +0.000 C 
ATOM      4  C   UNL     1       2.769   2.687  20.471  0.00  0.00    +0.000 C 
ATOM      5  C   UNL     1       1.236   2.864  20.315  0.00  0.00    +0.000 C 
ATOM      6  C   UNL     1       0.856   2.565  18.858  0.00  0.00    +0.000 C 
ATOM      7  C   UNL     1       1.486   3.743  18.102  0.00  0.00    +0.000 C 
ATOM      8  C   UNL     1       2.069   4.619  19.234  0.00  0.00    +0.000 C 
ATOM      9  C   UNL     1       1.058   4.381  20.357  0.00  0.00    +0.000 C 
ENDBRANCH   1   3
BRANCH   1  10
ATOM     10  C   UNL     1       5.615   4.640  19.145  0.00  0.00    +0.000 C 
BRANCH  10  16
ATOM     11  C   UNL     1       4.191   7.018  17.309  0.00  0.00    +0.000 C 
ATOM     12  C   UNL     1       5.445   6.265  17.057  0.00  0.00    +0.000 A 
ATOM     13  N   UNL     1       6.147   6.528  15.945  0.00  0.00    +0.000 NA
ATOM     14  N   UNL     1       7.199   5.701  16.017  0.00  0.00    +0.000 N 
ATOM     15  C   UNL     1       7.182   4.903  17.116  0.00  0.00    +0.000 A 
ATOM     16  C   UNL     1       6.057   5.240  17.843  0.00  0.00    +0.000 A 
ATOM     17  H   UNL     1       7.888   5.734  15.275  0.00  0.00    +0.000 HD
ENDBRANCH  10  16
ENDBRANCH   1  10
TORSDOF 3
ENDMDL
MODEL 5
REMARK VINA RESULT:      -6.9      1.112      1.661
REMARK  Name = 
REMARK  4 active torsions:
REMARK  status: ('A' for Active; 'I' for Inactive)
REMARK    1  A    between atoms: C_1  and  C_2
REMARK    2  A    between atoms: C_6  and  C_7
REMARK    3  A    between atoms: C_7  and  N_8
REMARK    4  A    between atoms: N_8  and  C_9
REMARK                            x       y       z     vdW  Elec       q    Type
REMARK                         _______ _______ _______ _____ _____    ______ ____
ROOT
ATOM      1  N   UNL     1       4.125   2.653  18.030  0.00  0.00    +0.000 NA
ATOM      2  H   UNL     1       4.889   2.819  18.679  0.00  0.00    +0.000 HD
ENDROOT
BRANCH   1   3
ATOM      3  C   UNL     1       2.874   2.384  18.720  0.00  0.00    +0.000 C 
ATOM      4  C   UNL     1       1.601   3.124  18.246  0.00  0.00    +0.000 C 
ATOM      5  C   UNL     1       1.004   3.689  19.560  0.00  0.00    +0.000 C 
ATOM      6  C   UNL     1       1.807   4.933  19.966  0.00  0.00    +0.000 C 
ATOM      7  C   UNL     1       3.167   4.337  20.355  0.00  0.00    +0.000 C 
ATOM      8  C   UNL     1       2.941   2.815  20.210  0.00  0.00    +0.000 C 
ATOM      9  C   UNL     1       1.471   2.684  20.612  0.00  0.00    +0.000 C 
ENDBRANCH   1   3
BRANCH   1  10
ATOM     10  C   UNL     1       4.091   3.733  17.049  0.00  0.00    +0.000 C 
BRANCH  10  16
ATOM     11  C   UNL     1       5.814   4.070  14.225  0.00  0.00    +0.000 C 
ATOM     12  C   UNL     1       6.245   4.327  15.622  0.00  0.00    +0.000 A 
ATOM     13  N   UNL     1       7.498   4.751  15.846  0.00  0.00    +0.000 NA
ATOM     14  N   UNL     1       7.565   4.889  17.177  0.00  0.00    +0.000 N 
ATOM     15  C   UNL     1       6.415   4.545  17.812  0.00  0.00    +0.000 A 
ATOM     16  C   UNL     1       5.508   4.180  16.838  0.00  0.00    +0.000 A 
ATOM     17  H   UNL     1       8.433   5.218  17.583  0.00  0.00    +0.000 HD
ENDBRANCH  10  16
ENDBRANCH   1  10
TORSDOF 3
ENDMDL
MODEL 6
REMARK VINA RESULT:      -6.9      1.271      1.870
REMARK  Name = 
REMARK  4 active torsions:
REMARK  status: ('A' for Active; 'I' for Inactive)
REMARK    1  A    between atoms: C_1  and  C_2
REMARK    2  A    between atoms: C_6  and  C_7
REMARK    3  A    between atoms: C_7  and  N_8
REMARK    4  A    between atoms: N_8  and  C_9
REMARK                            x       y       z     vdW  Elec       q    Type
REMARK                         _______ _______ _______ _____ _____    ______ ____
ROOT
ATOM      1  N   UNL     1       4.174   4.881  18.652  0.00  0.00    +0.000 NA
ATOM      2  H   UNL     1       3.756   4.747  17.736  0.00  0.00    +0.000 HD
ENDROOT
BRANCH   1   3
ATOM      3  C   UNL     1       3.302   4.418  19.720  0.00  0.00    +0.000 C 
ATOM      4  C   UNL     1       3.307   2.912  20.070  0.00  0.00    +0.000 C 
ATOM      5  C   UNL     1       1.802   2.542  20.088  0.00  0.00    +0.000 C 
ATOM      6  C   UNL     1       1.317   2.400  18.639  0.00  0.00    +0.000 C 
ATOM      7  C   UNL     1       1.380   3.845  18.124  0.00  0.00    +0.000 C 
ATOM      8  C   UNL     1       1.806   4.648  19.374  0.00  0.00    +0.000 C 
ATOM      9  C   UNL     1       1.129   3.853  20.493  0.00  0.00    +0.000 C 
ENDBRANCH   1   3
BRANCH   1  10
ATOM     10  C   UNL     1       5.522   4.324  18.646  0.00  0.00    +0.000 C 
BRANCH  10  16
ATOM     11  C   UNL     1       6.008   3.804  15.398  0.00  0.00    +0.000 C 
ATOM     12  C   UNL     1       6.527   4.895  16.260  0.00  0.00    +0.000 A 
ATOM     13  N   UNL     1       7.316   5.832  15.713  0.00  0.00    +0.000 NA
ATOM     14  N   UNL     1       7.604   6.654  16.732  0.00  0.00    +0.000 N 
ATOM     15  C   UNL     1       7.052   6.263  17.911  0.00  0.00    +0.000 A 
ATOM     16  C   UNL     1       6.322   5.119  17.656  0.00  0.00    +0.000 A 
ATOM     17  H   UNL     1       8.188   7.460  16.549  0.00  0.00    +0.000 HD
ENDBRANCH  10  16
ENDBRANCH   1  10
TORSDOF 3
ENDMDL
MODEL 7
REMARK VINA RESULT:      -6.9      1.499      1.955
REMARK  Name = 
REMARK  4 active torsions:
REMARK  status: ('A' for Active; 'I' for Inactive)
REMARK    1  A    between atoms: C_1  and  C_2
REMARK    2  A    between atoms: C_6  and  C_7
REMARK    3  A    between atoms: C_7  and  N_8
REMARK    4  A    between atoms: N_8  and  C_9
REMARK                            x       y       z     vdW  Elec       q    Type
REMARK                         _______ _______ _______ _____ _____    ______ ____
ROOT
ATOM      1  N   UNL     1       4.816   4.166  19.257  0.00  0.00    +0.000 NA
ATOM      2  H   UNL     1       4.898   3.700  20.156  0.00  0.00    +0.000 HD
ENDROOT
BRANCH   1   3
ATOM      3  C   UNL     1       3.444   4.555  18.971  0.00  0.00    +0.000 C 
ATOM      4  C   UNL     1       2.358   4.242  20.026  0.00  0.00    +0.000 C 
ATOM      5  C   UNL     1       1.240   3.557  19.198  0.00  0.00    +0.000 C 
ATOM      6  C   UNL     1       1.659   2.107  18.918  0.00  0.00    +0.000 C 
ATOM      7  C   UNL     1       2.839   2.283  17.951  0.00  0.00    +0.000 C 
ATOM      8  C   UNL     1       2.888   3.811  17.727  0.00  0.00    +0.000 C 
ATOM      9  C   UNL     1       1.405   4.181  17.813  0.00  0.00    +0.000 C 
ENDBRANCH   1   3
BRANCH   1  10
ATOM     10  C   UNL     1       5.808   5.233  19.182  0.00  0.00    +0.000 C 
BRANCH  10  16
ATOM     11  C   UNL     1       4.864   6.752  16.378  0.00  0.00    +0.000 C 
ATOM     12  C   UNL     1       6.006   5.832  16.606  0.00  0.00    +0.000 A 
ATOM     13  N   UNL     1       6.806   5.524  15.574  0.00  0.00    +0.000 NA
ATOM     14  N   UNL     1       7.719   4.696  16.102  0.00  0.00    +0.000 N 
ATOM     15  C   UNL     1       7.517   4.444  17.422  0.00  0.00    +0.000 A 
ATOM     16  C   UNL     1       6.412   5.176  17.809  0.00  0.00    +0.000 A 
ATOM     17  H   UNL     1       8.448   4.338  15.498  0.00  0.00    +0.000 HD
ENDBRANCH  10  16
ENDBRANCH   1  10
TORSDOF 3
ENDMDL
MODEL 8
REMARK VINA RESULT:      -6.8      0.854      1.339
REMARK  Name = 
REMARK  4 active torsions:
REMARK  status: ('A' for Active; 'I' for Inactive)
REMARK    1  A    between atoms: C_1  and  C_2
REMARK    2  A    between atoms: C_6  and  C_7
REMARK    3  A    between atoms: C_7  and  N_8
REMARK    4  A    between atoms: N_8  and  C_9
REMARK                            x       y       z     vdW  Elec       q    Type
REMARK                         _______ _______ _______ _____ _____    ______ ____
ROOT
ATOM      1  N   UNL     1       3.696   5.537  18.445  0.00  0.00    +0.000 NA
ATOM      2  H   UNL     1       2.993   6.242  18.644  0.00  0.00    +0.000 HD
ENDROOT
BRANCH   1   3
ATOM      3  C   UNL     1       3.108   4.219  18.263  0.00  0.00    +0.000 C 
ATOM      4  C   UNL     1       1.604   4.130  17.912  0.00  0.00    +0.000 C 
ATOM      5  C   UNL     1       1.060   3.092  18.926  0.00  0.00    +0.000 C 
ATOM      6  C   UNL     1       0.897   3.779  20.289  0.00  0.00    +0.000 C 
ATOM      7  C   UNL     1       2.352   4.038  20.706  0.00  0.00    +0.000 C 
ATOM      8  C   UNL     1       3.168   3.382  19.569  0.00  0.00    +0.000 C 
ATOM      9  C   UNL     1       2.272   2.200  19.192  0.00  0.00    +0.000 C 
ENDBRANCH   1   3
BRANCH   1  10
ATOM     10  C   UNL     1       4.549   6.008  17.359  0.00  0.00    +0.000 C 
BRANCH  10  16
ATOM     11  C   UNL     1       6.544   4.491  15.174  0.00  0.00    +0.000 C 
ATOM     12  C   UNL     1       6.759   4.744  16.621  0.00  0.00    +0.000 A 
ATOM     13  N   UNL     1       7.897   4.319  17.190  0.00  0.00    +0.000 NA
ATOM     14  N   UNL     1       7.784   4.697  18.471  0.00  0.00    +0.000 N 
ATOM     15  C   UNL     1       6.609   5.323  18.746  0.00  0.00    +0.000 A 
ATOM     16  C   UNL     1       5.902   5.393  17.562  0.00  0.00    +0.000 A 
ATOM     17  H   UNL     1       8.549   4.490  19.102  0.00  0.00    +0.000 HD
ENDBRANCH  10  16
ENDBRANCH   1  10
TORSDOF 3
ENDMDL
MODEL 9
REMARK VINA RESULT:      -6.8      1.121      2.239
REMARK  Name = 
REMARK  4 active torsions:
REMARK  status: ('A' for Active; 'I' for Inactive)
REMARK    1  A    between atoms: C_1  and  C_2
REMARK    2  A    between atoms: C_6  and  C_7
REMARK    3  A    between atoms: C_7  and  N_8
REMARK    4  A    between atoms: N_8  and  C_9
REMARK                            x       y       z     vdW  Elec       q    Type
REMARK                         _______ _______ _______ _____ _____    ______ ____
ROOT
ATOM      1  N   UNL     1       4.141   2.670  18.378  0.00  0.00    +0.000 NA
ATOM      2  H   UNL     1       4.880   2.954  19.015  0.00  0.00    +0.000 HD
ENDROOT
BRANCH   1   3
ATOM      3  C   UNL     1       2.919   2.320  19.085  0.00  0.00    +0.000 C 
ATOM      4  C   UNL     1       1.579   2.879  18.553  0.00  0.00    +0.000 C 
ATOM      5  C   UNL     1       0.911   3.474  19.819  0.00  0.00    +0.000 C 
ATOM      6  C   UNL     1       1.571   4.825  20.131  0.00  0.00    +0.000 C 
ATOM      7  C   UNL     1       2.984   4.411  20.566  0.00  0.00    +0.000 C 
ATOM      8  C   UNL     1       2.925   2.867  20.538  0.00  0.00    +0.000 C 
ATOM      9  C   UNL     1       1.473   2.608  20.946  0.00  0.00    +0.000 C 
ENDBRANCH   1   3
BRANCH   1  10
ATOM     10  C   UNL     1       4.003   3.676  17.330  0.00  0.00    +0.000 C 
BRANCH  10  16
ATOM     11  C   UNL     1       6.254   5.303  19.159  0.00  0.00    +0.000 C 
ATOM     12  C   UNL     1       6.355   4.824  17.757  0.00  0.00    +0.000 A 
ATOM     13  N   UNL     1       7.486   5.054  17.074  0.00  0.00    +0.000 NA
ATOM     14  N   UNL     1       7.261   4.505  15.872  0.00  0.00    +0.000 N 
ATOM     15  C   UNL     1       6.022   3.958  15.754  0.00  0.00    +0.000 A 
ATOM     16  C   UNL     1       5.388   4.127  16.969  0.00  0.00    +0.000 A 
ATOM     17  H   UNL     1       7.998   4.546  15.179  0.00  0.00    +0.000 HD
ENDBRANCH  10  16
ENDBRANCH   1  10
TORSDOF 3
ENDMDL
