MODEL 1
REMARK VINA RESULT:      -6.8      0.000      0.000
REMARK  Name = 
REMARK  3 active torsions:
REMARK  status: ('A' for Active; 'I' for Inactive)
REMARK    1  A    between atoms: C_1  and  O_2
REMARK    2  A    between atoms: O_2  and  C_3
REMARK    3  A    between atoms: C_6  and  C_7
REMARK                            x       y       z     vdW  Elec       q    Type
REMARK                         _______ _______ _______ _____ _____    ______ ____
ROOT
ATOM      1  C   UNL     1       7.162   7.300  17.495  0.00  0.00    +0.000 A 
ATOM      2  C   UNL     1       5.907   7.160  16.900  0.00  0.00    +0.000 A 
ATOM      3  C   UNL     1       5.171   5.979  17.044  0.00  0.00    +0.000 A 
ATOM      4  C   UNL     1       5.699   4.905  17.769  0.00  0.00    +0.000 A 
ATOM      5  C   UNL     1       6.966   5.048  18.356  0.00  0.00    +0.000 A 
ATOM      6  C   UNL     1       7.694   6.235  18.217  0.00  0.00    +0.000 A 
ENDROOT
BRANCH   4   7
ATOM      7  C   UNL     1       4.936   3.599  17.942  0.00  0.00    +0.000 C 
ATOM      8  C   UNL     1       3.600   3.571  17.203  0.00  0.00    +0.000 C 
ATOM      9  C   UNL     1       2.378   3.590  18.075  0.00  0.00    +0.000 C 
ATOM     10  O   UNL     1       1.264   3.732  17.566  0.00  0.00    +0.000 OA
ATOM     11  C   UNL     1       2.536   3.366  19.527  0.00  0.00    +0.000 C 
ATOM     12 BR   UNL     1       1.025   3.254  20.611  0.00  0.00    +0.000 Br
ATOM     13  C   UNL     1       3.770   3.218  20.009  0.00  0.00    +0.000 C 
ATOM     14  O   UNL     1       4.944   3.261  19.329  0.00  0.00    +0.000 OA
ENDBRANCH   4   7
BRANCH   1  16
ATOM     15  C   UNL     1       8.466   9.051  18.394  0.00  0.00    +0.000 C 
ATOM     16  O   UNL     1       7.790   8.492  17.272  0.00  0.00    +0.000 OA
ENDBRANCH   1  16
TORSDOF 2
ENDMDL
MODEL 2
REMARK VINA RESULT:      -6.7      1.428      1.712
REMARK  Name = 
REMARK  3 active torsions:
REMARK  status: ('A' for Active; 'I' for Inactive)
REMARK    1  A    between atoms: C_1  and  O_2
REMARK    2  A    between atoms: O_2  and  C_3
REMARK    3  A    between atoms: C_6  and  C_7
REMARK                            x       y       z     vdW  Elec       q    Type
REMARK                         _______ _______ _______ _____ _____    ______ ____
ROOT
ATOM      1  C   UNL     1       6.753   6.289  16.847  0.00  0.00    +0.000 A 
ATOM      2  C   UNL     1       5.578   6.899  17.291  0.00  0.00    +0.000 A 
ATOM      3  C   UNL     1       4.415   6.149  17.500  0.00  0.00    +0.000 A 
ATOM      4  C   UNL     1       4.407   4.774  17.238  0.00  0.00    +0.000 A 
ATOM      5  C   UNL     1       5.589   4.170  16.781  0.00  0.00    +0.000 A 
ATOM      6  C   UNL     1       6.752   4.922  16.583  0.00  0.00    +0.000 A 
ENDROOT
BRANCH   4   7
ATOM      7  C   UNL     1       3.161   3.924  17.442  0.00  0.00    +0.000 C 
ATOM      8  C   UNL     1       2.005   4.682  18.090  0.00  0.00    +0.000 C 
ATOM      9  C   UNL     1       1.666   4.271  19.492  0.00  0.00    +0.000 C 
ATOM     10  O   UNL     1       0.859   4.934  20.148  0.00  0.00    +0.000 OA
ATOM     11  C   UNL     1       2.260   3.031  20.035  0.00  0.00    +0.000 C 
ATOM     12 BR   UNL     1       1.755   2.429  21.723  0.00  0.00    +0.000 Br
ATOM     13  C   UNL     1       3.124   2.363  19.270  0.00  0.00    +0.000 C 
ATOM     14  O   UNL     1       3.561   2.683  18.025  0.00  0.00    +0.000 OA
ENDBRANCH   4   7
BRANCH   1  16
ATOM     15  C   UNL     1       7.921   8.201  17.596  0.00  0.00    +0.000 C 
ATOM     16  O   UNL     1       7.818   7.126  16.667  0.00  0.00    +0.000 OA
ENDBRANCH   1  16
TORSDOF 2
ENDMDL
MODEL 3
REMARK VINA RESULT:      -6.7      2.976      6.124
REMARK  Name = 
REMARK  3 active torsions:
REMARK  status: ('A' for Active; 'I' for Inactive)
REMARK    1  A    between atoms: C_1  and  O_2
REMARK    2  A    between atoms: O_2  and  C_3
REMARK    3  A    between atoms: C_6  and  C_7
REMARK                            x       y       z     vdW  Elec       q    Type
REMARK                         _______ _______ _______ _____ _____    ______ ____
ROOT
ATOM      1  C   UNL     1       1.824   2.926  19.600  0.00  0.00    +0.000 A 
ATOM      2  C   UNL     1       3.206   2.741  19.673  0.00  0.00    +0.000 A 
ATOM      3  C   UNL     1       4.058   3.321  18.727  0.00  0.00    +0.000 A 
ATOM      4  C   UNL     1       3.531   4.076  17.673  0.00  0.00    +0.000 A 
ATOM      5  C   UNL     1       2.140   4.249  17.600  0.00  0.00    +0.000 A 
ATOM      6  C   UNL     1       1.292   3.675  18.554  0.00  0.00    +0.000 A 
ENDROOT
BRANCH   4   7
ATOM      7  C   UNL     1       4.423   4.716  16.618  0.00  0.00    +0.000 C 
ATOM      8  C   UNL     1       5.830   4.126  16.570  0.00  0.00    +0.000 C 
ATOM      9  C   UNL     1       6.928   5.033  17.044  0.00  0.00    +0.000 C 
ATOM     10  O   UNL     1       8.069   4.589  17.193  0.00  0.00    +0.000 OA
ATOM     11  C   UNL     1       6.628   6.465  17.257  0.00  0.00    +0.000 C 
ATOM     12 BR   UNL     1       8.001   7.635  17.719  0.00  0.00    +0.000 Br
ATOM     13  C   UNL     1       5.373   6.876  17.076  0.00  0.00    +0.000 C 
ATOM     14  O   UNL     1       4.291   6.134  16.726  0.00  0.00    +0.000 OA
ENDBRANCH   4   7
BRANCH   1  16
ATOM     15  C   UNL     1       1.513   2.543  21.910  0.00  0.00    +0.000 C 
ATOM     16  O   UNL     1       1.094   2.300  20.570  0.00  0.00    +0.000 OA
ENDBRANCH   1  16
TORSDOF 2
ENDMDL
MODEL 4
REMARK VINA RESULT:      -6.7      3.018      6.037
REMARK  Name = 
REMARK  3 active torsions:
REMARK  status: ('A' for Active; 'I' for Inactive)
REMARK    1  A    between atoms: C_1  and  O_2
REMARK    2  A    between atoms: O_2  and  C_3
REMARK    3  A    between atoms: C_6  and  C_7
REMARK                            x       y       z     vdW  Elec       q    Type
REMARK                         _______ _______ _______ _____ _____    ______ ____
ROOT
ATOM      1  C   UNL     1       1.892   2.754  19.433  0.00  0.00    +0.000 A 
ATOM      2  C   UNL     1       1.722   4.109  19.145  0.00  0.00    +0.000 A 
ATOM      3  C   UNL     1       2.531   4.748  18.198  0.00  0.00    +0.000 A 
ATOM      4  C   UNL     1       3.544   4.038  17.543  0.00  0.00    +0.000 A 
ATOM      5  C   UNL     1       3.716   2.679  17.846  0.00  0.00    +0.000 A 
ATOM      6  C   UNL     1       2.898   2.042  18.787  0.00  0.00    +0.000 A 
ENDROOT
BRANCH   4   7
ATOM      7  C   UNL     1       4.451   4.698  16.514  0.00  0.00    +0.000 C 
ATOM      8  C   UNL     1       5.862   4.115  16.482  0.00  0.00    +0.000 C 
ATOM      9  C   UNL     1       6.947   5.019  16.990  0.00  0.00    +0.000 C 
ATOM     10  O   UNL     1       8.087   4.578  17.152  0.00  0.00    +0.000 OA
ATOM     11  C   UNL     1       6.637   6.446  17.219  0.00  0.00    +0.000 C 
ATOM     12 BR   UNL     1       7.996   7.615  17.723  0.00  0.00    +0.000 Br
ATOM     13  C   UNL     1       5.383   6.854  17.022  0.00  0.00    +0.000 C 
ATOM     14  O   UNL     1       4.311   6.113  16.642  0.00  0.00    +0.000 OA
ENDBRANCH   4   7
BRANCH   1  16
ATOM     15  C   UNL     1       1.359   2.601  21.729  0.00  0.00    +0.000 C 
ATOM     16  O   UNL     1       1.053   2.245  20.384  0.00  0.00    +0.000 OA
ENDBRANCH   1  16
TORSDOF 2
ENDMDL
MODEL 5
REMARK VINA RESULT:      -6.6      1.507      1.935
REMARK  Name = 
REMARK  3 active torsions:
REMARK  status: ('A' for Active; 'I' for Inactive)
REMARK    1  A    between atoms: C_1  and  O_2
REMARK    2  A    between atoms: O_2  and  C_3
REMARK    3  A    between atoms: C_6  and  C_7
REMARK                            x       y       z     vdW  Elec       q    Type
REMARK                         _______ _______ _______ _____ _____    ______ ____
ROOT
ATOM      1  C   UNL     1       6.515   6.343  16.790  0.00  0.00    +0.000 A 
ATOM      2  C   UNL     1       6.550   5.020  16.348  0.00  0.00    +0.000 A 
ATOM      3  C   UNL     1       5.452   4.173  16.531  0.00  0.00    +0.000 A 
ATOM      4  C   UNL     1       4.306   4.637  17.187  0.00  0.00    +0.000 A 
ATOM      5  C   UNL     1       4.282   5.965  17.639  0.00  0.00    +0.000 A 
ATOM      6  C   UNL     1       5.380   6.812  17.446  0.00  0.00    +0.000 A 
ENDROOT
BRANCH   4   7
ATOM      7  C   UNL     1       3.094   3.745  17.415  0.00  0.00    +0.000 C 
ATOM      8  C   UNL     1       1.899   4.482  18.017  0.00  0.00    +0.000 C 
ATOM      9  C   UNL     1       1.560   4.117  19.432  0.00  0.00    +0.000 C 
ATOM     10  O   UNL     1       0.718   4.773  20.050  0.00  0.00    +0.000 OA
ATOM     11  C   UNL     1       2.198   2.927  20.034  0.00  0.00    +0.000 C 
ATOM     12 BR   UNL     1       1.697   2.377  21.741  0.00  0.00    +0.000 Br
ATOM     13  C   UNL     1       3.098   2.264  19.308  0.00  0.00    +0.000 C 
ATOM     14  O   UNL     1       3.537   2.548  18.055  0.00  0.00    +0.000 OA
ENDBRANCH   4   7
BRANCH   1  16
ATOM     15  C   UNL     1       7.884   8.142  17.476  0.00  0.00    +0.000 C 
ATOM     16  O   UNL     1       7.652   7.069  16.568  0.00  0.00    +0.000 OA
ENDBRANCH   1  16
TORSDOF 2
ENDMDL
MODEL 6
REMARK VINA RESULT:      -6.6      0.749      1.419
REMARK  Name = 
REMARK  3 active torsions:
REMARK  status: ('A' for Active; 'I' for Inactive)
REMARK    1  A    between atoms: C_1  and  O_2
REMARK    2  A    between atoms: O_2  and  C_3
REMARK    3  A    between atoms: C_6  and  C_7
REMARK                            x       y       z     vdW  Elec       q    Type
REMARK                         _______ _______ _______ _____ _____    ______ ____
ROOT
ATOM      1  C   UNL     1       6.492   7.014  17.160  0.00  0.00    +0.000 A 
ATOM      2  C   UNL     1       7.111   6.072  17.983  0.00  0.00    +0.000 A 
ATOM      3  C   UNL     1       6.499   4.842  18.251  0.00  0.00    +0.000 A 
ATOM      4  C   UNL     1       5.240   4.550  17.716  0.00  0.00    +0.000 A 
ATOM      5  C   UNL     1       4.618   5.507  16.899  0.00  0.00    +0.000 A 
ATOM      6  C   UNL     1       5.238   6.732  16.625  0.00  0.00    +0.000 A 
ENDROOT
BRANCH   4   7
ATOM      7  C   UNL     1       4.536   3.229  17.991  0.00  0.00    +0.000 C 
ATOM      8  C   UNL     1       3.061   3.228  17.595  0.00  0.00    +0.000 C 
ATOM      9  C   UNL     1       2.086   3.184  18.734  0.00  0.00    +0.000 C 
ATOM     10  O   UNL     1       0.883   3.343  18.518  0.00  0.00    +0.000 OA
ATOM     11  C   UNL     1       2.587   2.879  20.091  0.00  0.00    +0.000 C 
ATOM     12 BR   UNL     1       1.382   2.689  21.498  0.00  0.00    +0.000 Br
ATOM     13  C   UNL     1       3.901   2.717  20.252  0.00  0.00    +0.000 C 
ATOM     14  O   UNL     1       4.877   2.811  19.313  0.00  0.00    +0.000 OA
ENDBRANCH   4   7
BRANCH   1  16
ATOM     15  C   UNL     1       8.191   8.454  17.947  0.00  0.00    +0.000 C 
ATOM     16  O   UNL     1       7.178   8.182  16.983  0.00  0.00    +0.000 OA
ENDBRANCH   1  16
TORSDOF 2
ENDMDL
MODEL 7
REMARK VINA RESULT:      -6.5      0.302      1.240
REMARK  Name = 
REMARK  3 active torsions:
REMARK  status: ('A' for Active; 'I' for Inactive)
REMARK    1  A    between atoms: C_1  and  O_2
REMARK    2  A    between atoms: O_2  and  C_3
REMARK    3  A    between atoms: C_6  and  C_7
REMARK                            x       y       z     vdW  Elec       q    Type
REMARK                         _______ _______ _______ _____ _____    ______ ____
ROOT
ATOM      1  C   UNL     1       7.251   7.565  17.553  0.00  0.00    +0.000 A 
ATOM      2  C   UNL     1       7.783   6.548  18.348  0.00  0.00    +0.000 A 
ATOM      3  C   UNL     1       7.120   5.323  18.485  0.00  0.00    +0.000 A 
ATOM      4  C   UNL     1       5.894   5.110  17.844  0.00  0.00    +0.000 A 
ATOM      5  C   UNL     1       5.360   6.141  17.056  0.00  0.00    +0.000 A 
ATOM      6  C   UNL     1       6.031   7.361  16.914  0.00  0.00    +0.000 A 
ENDROOT
BRANCH   4   7
ATOM      7  C   UNL     1       5.137   3.797  17.975  0.00  0.00    +0.000 C 
ATOM      8  C   UNL     1       3.855   3.746  17.146  0.00  0.00    +0.000 C 
ATOM      9  C   UNL     1       2.576   3.756  17.931  0.00  0.00    +0.000 C 
ATOM     10  O   UNL     1       1.498   3.881  17.346  0.00  0.00    +0.000 OA
ATOM     11  C   UNL     1       2.635   3.545  19.393  0.00  0.00    +0.000 C 
ATOM     12 BR   UNL     1       1.055   3.423  20.370  0.00  0.00    +0.000 Br
ATOM     13  C   UNL     1       3.835   3.417  19.960  0.00  0.00    +0.000 C 
ATOM     14  O   UNL     1       5.053   3.469  19.362  0.00  0.00    +0.000 OA
ENDBRANCH   4   7
BRANCH   1  16
ATOM     15  C   UNL     1       8.702   9.039  18.694  0.00  0.00    +0.000 C 
ATOM     16  O   UNL     1       7.980   8.719  17.508  0.00  0.00    +0.000 OA
ENDBRANCH   1  16
TORSDOF 2
ENDMDL
MODEL 8
REMARK VINA RESULT:      -6.4      1.052      1.140
REMARK  Name = 
REMARK  3 active torsions:
REMARK  status: ('A' for Active; 'I' for Inactive)
REMARK    1  A    between atoms: C_1  and  O_2
REMARK    2  A    between atoms: O_2  and  C_3
REMARK    3  A    between atoms: C_6  and  C_7
REMARK                            x       y       z     vdW  Elec       q    Type
REMARK                         _______ _______ _______ _____ _____    ______ ____
ROOT
ATOM      1  C   UNL     1       6.734   6.443  17.082  0.00  0.00    +0.000 A 
ATOM      2  C   UNL     1       6.067   5.816  16.029  0.00  0.00    +0.000 A 
ATOM      3  C   UNL     1       5.242   4.709  16.259  0.00  0.00    +0.000 A 
ATOM      4  C   UNL     1       5.096   4.196  17.553  0.00  0.00    +0.000 A 
ATOM      5  C   UNL     1       5.779   4.825  18.606  0.00  0.00    +0.000 A 
ATOM      6  C   UNL     1       6.595   5.938  18.372  0.00  0.00    +0.000 A 
ENDROOT
BRANCH   4   7
ATOM      7  C   UNL     1       4.217   2.989  17.845  0.00  0.00    +0.000 C 
ATOM      8  C   UNL     1       2.727   3.255  17.638  0.00  0.00    +0.000 C 
ATOM      9  C   UNL     1       1.897   3.285  18.888  0.00  0.00    +0.000 C 
ATOM     10  O   UNL     1       0.720   3.651  18.833  0.00  0.00    +0.000 OA
ATOM     11  C   UNL     1       2.493   2.806  20.152  0.00  0.00    +0.000 C 
ATOM     12 BR   UNL     1       1.443   2.710  21.688  0.00  0.00    +0.000 Br
ATOM     13  C   UNL     1       3.770   2.423  20.138  0.00  0.00    +0.000 C 
ATOM     14  O   UNL     1       4.633   2.427  19.090  0.00  0.00    +0.000 OA
ENDBRANCH   4   7
BRANCH   1  16
ATOM     15  C   UNL     1       8.015   8.287  17.815  0.00  0.00    +0.000 C 
ATOM     16  O   UNL     1       7.521   7.503  16.732  0.00  0.00    +0.000 OA
ENDBRANCH   1  16
TORSDOF 2
ENDMDL
MODEL 9
REMARK VINA RESULT:      -6.2      3.916      5.204
REMARK  Name = 
REMARK  3 active torsions:
REMARK  status: ('A' for Active; 'I' for Inactive)
REMARK    1  A    between atoms: C_1  and  O_2
REMARK    2  A    between atoms: O_2  and  C_3
REMARK    3  A    between atoms: C_6  and  C_7
REMARK                            x       y       z     vdW  Elec       q    Type
REMARK                         _______ _______ _______ _____ _____    ______ ____
ROOT
ATOM      1  C   UNL     1       1.809   8.357  19.051  0.00  0.00    +0.000 A 
ATOM      2  C   UNL     1       2.586   8.386  17.892  0.00  0.00    +0.000 A 
ATOM      3  C   UNL     1       3.524   7.381  17.631  0.00  0.00    +0.000 A 
ATOM      4  C   UNL     1       3.715   6.341  18.549  0.00  0.00    +0.000 A 
ATOM      5  C   UNL     1       2.938   6.324  19.717  0.00  0.00    +0.000 A 
ATOM      6  C   UNL     1       1.994   7.327  19.969  0.00  0.00    +0.000 A 
ENDROOT
BRANCH   4   7
ATOM      7  C   UNL     1       4.731   5.233  18.308  0.00  0.00    +0.000 C 
ATOM      8  C   UNL     1       6.107   5.747  17.889  0.00  0.00    +0.000 C 
ATOM      9  C   UNL     1       6.499   5.461  16.469  0.00  0.00    +0.000 C 
ATOM     10  O   UNL     1       7.516   5.975  15.998  0.00  0.00    +0.000 OA
ATOM     11  C   UNL     1       5.689   4.505  15.685  0.00  0.00    +0.000 C 
ATOM     12 BR   UNL     1       6.230   4.033  13.966  0.00  0.00    +0.000 Br
ATOM     13  C   UNL     1       4.603   3.985  16.258  0.00  0.00    +0.000 C 
ATOM     14  O   UNL     1       4.113   4.232  17.500  0.00  0.00    +0.000 OA
ENDBRANCH   4   7
BRANCH   1  16
ATOM     15  C   UNL     1       0.679   9.794  20.546  0.00  0.00    +0.000 C 
ATOM     16  O   UNL     1       0.939   9.399  19.202  0.00  0.00    +0.000 OA
ENDBRANCH   1  16
TORSDOF 2
ENDMDL
