MODEL 1
REMARK VINA RESULT:      -6.3      0.000      0.000
REMARK  Name = 
REMARK  2 active torsions:
REMARK  status: ('A' for Active; 'I' for Inactive)
REMARK    1  A    between atoms: C_7  and  C_8
REMARK    2  A    between atoms: C_8  and  N_9
REMARK                            x       y       z     vdW  Elec       q    Type
REMARK                         _______ _______ _______ _____ _____    ______ ____
ROOT
ATOM      1  C   UNL     1       4.438   3.122  18.571  0.00  0.00    +0.000 C 
ENDROOT
BRANCH   1   8
ATOM      2 BR   UNL     1       1.621   4.473  17.588  0.00  0.00    +0.000 Br
ATOM      3  C   UNL     1       2.010   3.623  19.242  0.00  0.00    +0.000 A 
ATOM      4  C   UNL     1       0.976   3.563  20.184  0.00  0.00    +0.000 A 
ATOM      5  C   UNL     1       1.195   2.980  21.431  0.00  0.00    +0.000 A 
ATOM      6  C   UNL     1       2.446   2.459  21.743  0.00  0.00    +0.000 A 
ATOM      7  C   UNL     1       3.476   2.513  20.804  0.00  0.00    +0.000 A 
ATOM      8  C   UNL     1       3.274   3.084  19.532  0.00  0.00    +0.000 A 
ENDBRANCH   1   8
BRANCH   1   9
ATOM      9  N   UNL     1       5.560   3.807  19.169  0.00  0.00    +0.000 N 
ATOM     10  C   UNL     1       6.083   4.933  18.635  0.00  0.00    +0.000 C 
ATOM     11  N   UNL     1       5.533   5.766  17.820  0.00  0.00    +0.000 NA
ATOM     12  C   UNL     1       6.563   6.777  17.579  0.00  0.00    +0.000 C 
ATOM     13  C   UNL     1       7.758   6.347  18.398  0.00  0.00    +0.000 C 
ATOM     14  O   UNL     1       7.354   5.151  19.044  0.00  0.00    +0.000 OA
ATOM     15  H   UNL     1       6.239   3.212  19.624  0.00  0.00    +0.000 HD
ENDBRANCH   1   9
TORSDOF 2
ENDMDL
MODEL 2
REMARK VINA RESULT:      -6.0      2.385      5.370
REMARK  Name = 
REMARK  2 active torsions:
REMARK  status: ('A' for Active; 'I' for Inactive)
REMARK    1  A    between atoms: C_7  and  C_8
REMARK    2  A    between atoms: C_8  and  N_9
REMARK                            x       y       z     vdW  Elec       q    Type
REMARK                         _______ _______ _______ _____ _____    ______ ____
ROOT
ATOM      1  C   UNL     1       4.349   3.406  17.549  0.00  0.00    +0.000 C 
ENDROOT
BRANCH   1   8
ATOM      2 BR   UNL     1       5.685   4.510  14.769  0.00  0.00    +0.000 Br
ATOM      3  C   UNL     1       6.125   4.975  16.558  0.00  0.00    +0.000 A 
ATOM      4  C   UNL     1       7.160   5.901  16.737  0.00  0.00    +0.000 A 
ATOM      5  C   UNL     1       7.559   6.269  18.020  0.00  0.00    +0.000 A 
ATOM      6  C   UNL     1       6.930   5.712  19.128  0.00  0.00    +0.000 A 
ATOM      7  C   UNL     1       5.895   4.793  18.953  0.00  0.00    +0.000 A 
ATOM      8  C   UNL     1       5.465   4.418  17.665  0.00  0.00    +0.000 A 
ENDBRANCH   1   8
BRANCH   1   9
ATOM      9  N   UNL     1       4.174   2.709  18.801  0.00  0.00    +0.000 N 
ATOM     10  C   UNL     1       3.065   2.858  19.559  0.00  0.00    +0.000 C 
ATOM     11  N   UNL     1       1.899   3.277  19.202  0.00  0.00    +0.000 NA
ATOM     12  C   UNL     1       1.105   3.239  20.431  0.00  0.00    +0.000 C 
ATOM     13  C   UNL     1       2.039   2.734  21.507  0.00  0.00    +0.000 C 
ATOM     14  O   UNL     1       3.277   2.515  20.850  0.00  0.00    +0.000 OA
ATOM     15  H   UNL     1       5.020   2.555  19.333  0.00  0.00    +0.000 HD
ENDBRANCH   1   9
TORSDOF 2
ENDMDL
MODEL 3
REMARK VINA RESULT:      -6.0      3.023      5.736
REMARK  Name = 
REMARK  2 active torsions:
REMARK  status: ('A' for Active; 'I' for Inactive)
REMARK    1  A    between atoms: C_7  and  C_8
REMARK    2  A    between atoms: C_8  and  N_9
REMARK                            x       y       z     vdW  Elec       q    Type
REMARK                         _______ _______ _______ _____ _____    ______ ____
ROOT
ATOM      1  C   UNL     1       4.575   5.231  19.000  0.00  0.00    +0.000 C 
ENDROOT
BRANCH   1   8
ATOM      2 BR   UNL     1       7.802   5.794  19.030  0.00  0.00    +0.000 Br
ATOM      3  C   UNL     1       6.733   5.117  17.612  0.00  0.00    +0.000 A 
ATOM      4  C   UNL     1       7.386   4.824  16.409  0.00  0.00    +0.000 A 
ATOM      5  C   UNL     1       6.664   4.351  15.314  0.00  0.00    +0.000 A 
ATOM      6  C   UNL     1       5.289   4.174  15.416  0.00  0.00    +0.000 A 
ATOM      7  C   UNL     1       4.636   4.461  16.615  0.00  0.00    +0.000 A 
ATOM      8  C   UNL     1       5.348   4.925  17.739  0.00  0.00    +0.000 A 
ENDBRANCH   1   8
BRANCH   1   9
ATOM      9  N   UNL     1       4.230   4.007  19.685  0.00  0.00    +0.000 N 
ATOM     10  C   UNL     1       2.964   3.728  20.066  0.00  0.00    +0.000 C 
ATOM     11  N   UNL     1       1.862   4.223  19.615  0.00  0.00    +0.000 NA
ATOM     12  C   UNL     1       0.817   3.563  20.399  0.00  0.00    +0.000 C 
ATOM     13  C   UNL     1       1.540   2.635  21.347  0.00  0.00    +0.000 C 
ATOM     14  O   UNL     1       2.918   2.809  21.058  0.00  0.00    +0.000 OA
ATOM     15  H   UNL     1       4.939   3.646  20.310  0.00  0.00    +0.000 HD
ENDBRANCH   1   9
TORSDOF 2
ENDMDL
MODEL 4
REMARK VINA RESULT:      -5.9      1.460      1.557
REMARK  Name = 
REMARK  2 active torsions:
REMARK  status: ('A' for Active; 'I' for Inactive)
REMARK    1  A    between atoms: C_7  and  C_8
REMARK    2  A    between atoms: C_8  and  N_9
REMARK                            x       y       z     vdW  Elec       q    Type
REMARK                         _______ _______ _______ _____ _____    ______ ____
ROOT
ATOM      1  C   UNL     1       3.647   5.685  19.354  0.00  0.00    +0.000 C 
ENDROOT
BRANCH   1   8
ATOM      2 BR   UNL     1       2.725   3.487  17.107  0.00  0.00    +0.000 Br
ATOM      3  C   UNL     1       2.357   3.497  18.971  0.00  0.00    +0.000 A 
ATOM      4  C   UNL     1       1.583   2.443  19.471  0.00  0.00    +0.000 A 
ATOM      5  C   UNL     1       1.247   2.397  20.823  0.00  0.00    +0.000 A 
ATOM      6  C   UNL     1       1.679   3.404  21.679  0.00  0.00    +0.000 A 
ATOM      7  C   UNL     1       2.455   4.454  21.184  0.00  0.00    +0.000 A 
ATOM      8  C   UNL     1       2.819   4.512  19.824  0.00  0.00    +0.000 A 
ENDBRANCH   1   8
BRANCH   1   9
ATOM      9  N   UNL     1       5.054   5.375  19.454  0.00  0.00    +0.000 N 
ATOM     10  C   UNL     1       5.849   5.283  18.365  0.00  0.00    +0.000 C 
ATOM     11  N   UNL     1       5.661   5.778  17.189  0.00  0.00    +0.000 NA
ATOM     12  C   UNL     1       6.834   5.354  16.422  0.00  0.00    +0.000 C 
ATOM     13  C   UNL     1       7.680   4.547  17.380  0.00  0.00    +0.000 C 
ATOM     14  O   UNL     1       6.966   4.558  18.605  0.00  0.00    +0.000 OA
ATOM     15  H   UNL     1       5.307   4.746  20.204  0.00  0.00    +0.000 HD
ENDBRANCH   1   9
TORSDOF 2
ENDMDL
MODEL 5
REMARK VINA RESULT:      -5.9      2.429      5.349
REMARK  Name = 
REMARK  2 active torsions:
REMARK  status: ('A' for Active; 'I' for Inactive)
REMARK    1  A    between atoms: C_7  and  C_8
REMARK    2  A    between atoms: C_8  and  N_9
REMARK                            x       y       z     vdW  Elec       q    Type
REMARK                         _______ _______ _______ _____ _____    ______ ____
ROOT
ATOM      1  C   UNL     1       3.435   3.687  17.108  0.00  0.00    +0.000 C 
ENDROOT
BRANCH   1   8
ATOM      2 BR   UNL     1       3.156   6.787  18.127  0.00  0.00    +0.000 Br
ATOM      3  C   UNL     1       4.674   5.920  17.384  0.00  0.00    +0.000 A 
ATOM      4  C   UNL     1       5.834   6.689  17.232  0.00  0.00    +0.000 A 
ATOM      5  C   UNL     1       6.980   6.130  16.668  0.00  0.00    +0.000 A 
ATOM      6  C   UNL     1       6.970   4.803  16.250  0.00  0.00    +0.000 A 
ATOM      7  C   UNL     1       5.816   4.033  16.404  0.00  0.00    +0.000 A 
ATOM      8  C   UNL     1       4.652   4.573  16.986  0.00  0.00    +0.000 A 
ENDBRANCH   1   8
BRANCH   1   9
ATOM      9  N   UNL     1       3.534   2.862  18.289  0.00  0.00    +0.000 N 
ATOM     10  C   UNL     1       2.733   3.043  19.363  0.00  0.00    +0.000 C 
ATOM     11  N   UNL     1       1.590   3.638  19.420  0.00  0.00    +0.000 NA
ATOM     12  C   UNL     1       1.197   3.538  20.827  0.00  0.00    +0.000 C 
ATOM     13  C   UNL     1       2.319   2.795  21.514  0.00  0.00    +0.000 C 
ATOM     14  O   UNL     1       3.262   2.517  20.491  0.00  0.00    +0.000 OA
ATOM     15  H   UNL     1       4.466   2.543  18.519  0.00  0.00    +0.000 HD
ENDBRANCH   1   9
TORSDOF 2
ENDMDL
MODEL 6
REMARK VINA RESULT:      -5.9      2.132      2.368
REMARK  Name = 
REMARK  2 active torsions:
REMARK  status: ('A' for Active; 'I' for Inactive)
REMARK    1  A    between atoms: C_7  and  C_8
REMARK    2  A    between atoms: C_8  and  N_9
REMARK                            x       y       z     vdW  Elec       q    Type
REMARK                         _______ _______ _______ _____ _____    ______ ____
ROOT
ATOM      1  C   UNL     1       5.161   4.275  19.306  0.00  0.00    +0.000 C 
ENDROOT
BRANCH   1   8
ATOM      2 BR   UNL     1       2.670   6.402  19.298  0.00  0.00    +0.000 Br
ATOM      3  C   UNL     1       2.618   4.519  19.045  0.00  0.00    +0.000 A 
ATOM      4  C   UNL     1       1.360   3.941  18.837  0.00  0.00    +0.000 A 
ATOM      5  C   UNL     1       1.239   2.563  18.672  0.00  0.00    +0.000 A 
ATOM      6  C   UNL     1       2.371   1.757  18.718  0.00  0.00    +0.000 A 
ATOM      7  C   UNL     1       3.626   2.331  18.921  0.00  0.00    +0.000 A 
ATOM      8  C   UNL     1       3.775   3.724  19.075  0.00  0.00    +0.000 A 
ENDBRANCH   1   8
BRANCH   1   9
ATOM      9  N   UNL     1       6.020   3.956  18.189  0.00  0.00    +0.000 N 
ATOM     10  C   UNL     1       5.890   4.560  16.986  0.00  0.00    +0.000 C 
ATOM     11  N   UNL     1       5.326   5.685  16.710  0.00  0.00    +0.000 NA
ATOM     12  C   UNL     1       5.478   5.824  15.260  0.00  0.00    +0.000 C 
ATOM     13  C   UNL     1       6.214   4.585  14.806  0.00  0.00    +0.000 C 
ATOM     14  O   UNL     1       6.438   3.831  15.986  0.00  0.00    +0.000 OA
ATOM     15  H   UNL     1       6.322   2.992  18.137  0.00  0.00    +0.000 HD
ENDBRANCH   1   9
TORSDOF 2
ENDMDL
MODEL 7
REMARK VINA RESULT:      -5.9      3.441      3.963
REMARK  Name = 
REMARK  2 active torsions:
REMARK  status: ('A' for Active; 'I' for Inactive)
REMARK    1  A    between atoms: C_7  and  C_8
REMARK    2  A    between atoms: C_8  and  N_9
REMARK                            x       y       z     vdW  Elec       q    Type
REMARK                         _______ _______ _______ _____ _____    ______ ____
ROOT
ATOM      1  C   UNL     1       5.399   4.615  16.668  0.00  0.00    +0.000 C 
ENDROOT
BRANCH   1   8
ATOM      2 BR   UNL     1       3.491   7.037  17.774  0.00  0.00    +0.000 Br
ATOM      3  C   UNL     1       3.137   5.171  17.752  0.00  0.00    +0.000 A 
ATOM      4  C   UNL     1       1.912   4.750  18.284  0.00  0.00    +0.000 A 
ATOM      5  C   UNL     1       1.594   3.394  18.329  0.00  0.00    +0.000 A 
ATOM      6  C   UNL     1       2.499   2.453  17.848  0.00  0.00    +0.000 A 
ATOM      7  C   UNL     1       3.719   2.870  17.315  0.00  0.00    +0.000 A 
ATOM      8  C   UNL     1       4.055   4.236  17.245  0.00  0.00    +0.000 A 
ENDBRANCH   1   8
BRANCH   1   9
ATOM      9  N   UNL     1       5.685   3.816  15.500  0.00  0.00    +0.000 N 
ATOM     10  C   UNL     1       6.467   4.266  14.494  0.00  0.00    +0.000 C 
ATOM     11  N   UNL     1       7.344   5.212  14.520  0.00  0.00    +0.000 NA
ATOM     12  C   UNL     1       7.867   5.263  13.154  0.00  0.00    +0.000 C 
ATOM     13  C   UNL     1       7.124   4.192  12.391  0.00  0.00    +0.000 C 
ATOM     14  O   UNL     1       6.245   3.603  13.336  0.00  0.00    +0.000 OA
ATOM     15  H   UNL     1       4.938   3.204  15.200  0.00  0.00    +0.000 HD
ENDBRANCH   1   9
TORSDOF 2
ENDMDL
MODEL 8
REMARK VINA RESULT:      -5.8      2.064      2.395
REMARK  Name = 
REMARK  2 active torsions:
REMARK  status: ('A' for Active; 'I' for Inactive)
REMARK    1  A    between atoms: C_7  and  C_8
REMARK    2  A    between atoms: C_8  and  N_9
REMARK                            x       y       z     vdW  Elec       q    Type
REMARK                         _______ _______ _______ _____ _____    ______ ____
ROOT
ATOM      1  C   UNL     1       3.178   5.933  17.785  0.00  0.00    +0.000 C 
ENDROOT
BRANCH   1   8
ATOM      2 BR   UNL     1       1.783   6.649  20.661  0.00  0.00    +0.000 Br
ATOM      3  C   UNL     1       1.713   5.019  19.686  0.00  0.00    +0.000 A 
ATOM      4  C   UNL     1       0.985   3.969  20.257  0.00  0.00    +0.000 A 
ATOM      5  C   UNL     1       0.912   2.734  19.615  0.00  0.00    +0.000 A 
ATOM      6  C   UNL     1       1.569   2.542  18.404  0.00  0.00    +0.000 A 
ATOM      7  C   UNL     1       2.291   3.589  17.831  0.00  0.00    +0.000 A 
ATOM      8  C   UNL     1       2.366   4.850  18.454  0.00  0.00    +0.000 A 
ENDBRANCH   1   8
BRANCH   1   9
ATOM      9  N   UNL     1       4.520   5.955  18.318  0.00  0.00    +0.000 N 
ATOM     10  C   UNL     1       5.568   5.421  17.651  0.00  0.00    +0.000 C 
ATOM     11  N   UNL     1       5.674   5.171  16.391  0.00  0.00    +0.000 NA
ATOM     12  C   UNL     1       7.012   4.595  16.244  0.00  0.00    +0.000 C 
ATOM     13  C   UNL     1       7.604   4.575  17.634  0.00  0.00    +0.000 C 
ATOM     14  O   UNL     1       6.602   5.127  18.473  0.00  0.00    +0.000 OA
ATOM     15  H   UNL     1       4.588   5.876  19.325  0.00  0.00    +0.000 HD
ENDBRANCH   1   9
TORSDOF 2
ENDMDL
MODEL 9
REMARK VINA RESULT:      -5.8      3.427      4.426
REMARK  Name = 
REMARK  2 active torsions:
REMARK  status: ('A' for Active; 'I' for Inactive)
REMARK    1  A    between atoms: C_7  and  C_8
REMARK    2  A    between atoms: C_8  and  N_9
REMARK                            x       y       z     vdW  Elec       q    Type
REMARK                         _______ _______ _______ _____ _____    ______ ____
ROOT
ATOM      1  C   UNL     1       5.949   4.562  17.008  0.00  0.00    +0.000 C 
ENDROOT
BRANCH   1   8
ATOM      2 BR   UNL     1       3.395   2.680  17.822  0.00  0.00    +0.000 Br
ATOM      3  C   UNL     1       3.504   4.577  17.793  0.00  0.00    +0.000 A 
ATOM      4  C   UNL     1       2.350   5.284  18.153  0.00  0.00    +0.000 A 
ATOM      5  C   UNL     1       2.345   6.678  18.127  0.00  0.00    +0.000 A 
ATOM      6  C   UNL     1       3.488   7.369  17.740  0.00  0.00    +0.000 A 
ATOM      7  C   UNL     1       4.640   6.666  17.386  0.00  0.00    +0.000 A 
ATOM      8  C   UNL     1       4.674   5.258  17.419  0.00  0.00    +0.000 A 
ENDBRANCH   1   8
BRANCH   1   9
ATOM      9  N   UNL     1       6.615   5.310  15.968  0.00  0.00    +0.000 N 
ATOM     10  C   UNL     1       6.707   4.852  14.699  0.00  0.00    +0.000 C 
ATOM     11  N   UNL     1       5.979   3.967  14.110  0.00  0.00    +0.000 NA
ATOM     12  C   UNL     1       6.539   3.870  12.761  0.00  0.00    +0.000 C 
ATOM     13  C   UNL     1       7.691   4.848  12.726  0.00  0.00    +0.000 C 
ATOM     14  O   UNL     1       7.721   5.434  14.017  0.00  0.00    +0.000 OA
ATOM     15  H   UNL     1       7.412   5.856  16.269  0.00  0.00    +0.000 HD
ENDBRANCH   1   9
TORSDOF 2
ENDMDL
