MODEL 1
REMARK VINA RESULT:      -6.7      0.000      0.000
REMARK  Name = 
REMARK  8 active torsions:
REMARK  status: ('A' for Active; 'I' for Inactive)
REMARK    1  A    between atoms: C_1  and  N_2
REMARK    2  A    between atoms: C_3  and  C_5
REMARK    3  A    between atoms: N_9  and  C_10
REMARK    4  A    between atoms: C_10  and  C_11
REMARK    5  A    between atoms: C_14  and  C_15
REMARK    6  A    between atoms: N_19  and  C_20
REMARK    7  A    between atoms: C_20  and  C_21
REMARK    8  A    between atoms: C_20  and  C_22
REMARK                            x       y       z     vdW  Elec       q    Type
REMARK                         _______ _______ _______ _____ _____    ______ ____
ROOT
ATOM      1  C   UNL     1       3.763   3.483  18.571  0.00  0.00    +0.000 C 
ATOM      2  C   UNL     1       5.036   4.291  18.363  0.00  0.00    +0.000 C 
ATOM      3  C   UNL     1       4.642   5.702  18.708  0.00  0.00    +0.000 C 
ATOM      4  C   UNL     1       3.999   6.509  17.571  0.00  0.00    +0.000 C 
ATOM      5  N   UNL     1       2.771   7.104  18.123  0.00  0.00    +0.000 NA
ATOM      6  C   UNL     1       2.835   6.900  19.575  0.00  0.00    +0.000 C 
ATOM      7  C   UNL     1       3.555   5.559  19.771  0.00  0.00    +0.000 C 
ATOM      8  N   UNL     1       2.927   4.222  19.577  0.00  0.00    +0.000 NA
ENDROOT
BRANCH   1  11
ATOM      9  C   UNL     1       5.330   0.867  20.879  0.00  0.00    +0.000 C 
ATOM     10  N   UNL     1       4.943   2.073  20.203  0.00  0.00    +0.000 N 
ATOM     11  C   UNL     1       4.146   2.076  19.080  0.00  0.00    +0.000 C 
ATOM     12  O   UNL     1       3.799   1.049  18.501  0.00  0.00    +0.000 OA
ATOM     13  H   UNL     1       5.103   2.989  20.619  0.00  0.00    +0.000 HD
ENDBRANCH   1  11
BRANCH   8  14
ATOM     14  C   UNL     1       1.475   4.191  19.294  0.00  0.00    +0.000 C 
ATOM     15  C   UNL     1       1.132   3.840  17.829  0.00  0.00    +0.000 C 
ATOM     16  C   UNL     1       0.747   3.129  20.137  0.00  0.00    +0.000 C 
ENDBRANCH   8  14
BRANCH   5  17
ATOM     17  C   UNL     1       2.608   8.535  17.833  0.00  0.00    +0.000 C 
BRANCH  17  18
ATOM     18  C   UNL     1       1.399   9.117  18.495  0.00  0.00    +0.000 A 
ATOM     19  C   UNL     1       1.188   9.288  19.855  0.00  0.00    +0.000 A 
ATOM     20  S   UNL     1      -0.314  10.062  20.123  0.00  0.00    +0.000 S 
ATOM     21  C   UNL     1      -0.569  10.128  18.427  0.00  0.00    +0.000 A 
ATOM     22  C   UNL     1      -1.790  10.771  17.863  0.00  0.00    +0.000 C 
ATOM     23  N   UNL     1       0.377   9.601  17.688  0.00  0.00    +0.000 NA
ENDBRANCH  17  18
ENDBRANCH   5  17
TORSDOF 4
ENDMDL
MODEL 2
REMARK VINA RESULT:      -6.4      0.864      1.320
REMARK  Name = 
REMARK  8 active torsions:
REMARK  status: ('A' for Active; 'I' for Inactive)
REMARK    1  A    between atoms: C_1  and  N_2
REMARK    2  A    between atoms: C_3  and  C_5
REMARK    3  A    between atoms: N_9  and  C_10
REMARK    4  A    between atoms: C_10  and  C_11
REMARK    5  A    between atoms: C_14  and  C_15
REMARK    6  A    between atoms: N_19  and  C_20
REMARK    7  A    between atoms: C_20  and  C_21
REMARK    8  A    between atoms: C_20  and  C_22
REMARK                            x       y       z     vdW  Elec       q    Type
REMARK                         _______ _______ _______ _____ _____    ______ ____
ROOT
ATOM      1  C   UNL     1       3.758   3.380  18.611  0.00  0.00    +0.000 C 
ATOM      2  C   UNL     1       5.023   4.156  18.269  0.00  0.00    +0.000 C 
ATOM      3  C   UNL     1       4.683   5.585  18.597  0.00  0.00    +0.000 C 
ATOM      4  C   UNL     1       3.959   6.366  17.492  0.00  0.00    +0.000 C 
ATOM      5  N   UNL     1       2.793   7.003  18.124  0.00  0.00    +0.000 NA
ATOM      6  C   UNL     1       2.976   6.845  19.572  0.00  0.00    +0.000 C 
ATOM      7  C   UNL     1       3.688   5.498  19.752  0.00  0.00    +0.000 C 
ATOM      8  N   UNL     1       3.024   4.168  19.658  0.00  0.00    +0.000 NA
ENDROOT
BRANCH   1  11
ATOM      9  C   UNL     1       5.368   0.808  20.938  0.00  0.00    +0.000 C 
ATOM     10  N   UNL     1       4.963   2.002  20.251  0.00  0.00    +0.000 N 
ATOM     11  C   UNL     1       4.160   1.983  19.134  0.00  0.00    +0.000 C 
ATOM     12  O   UNL     1       3.821   0.946  18.568  0.00  0.00    +0.000 OA
ATOM     13  H   UNL     1       5.116   2.924  20.656  0.00  0.00    +0.000 HD
ENDBRANCH   1  11
BRANCH   8  14
ATOM     14  C   UNL     1       1.552   4.156  19.500  0.00  0.00    +0.000 C 
ATOM     15  C   UNL     1       1.077   3.651  18.119  0.00  0.00    +0.000 C 
ATOM     16  C   UNL     1       0.871   3.224  20.517  0.00  0.00    +0.000 C 
ENDBRANCH   8  14
BRANCH   5  17
ATOM     17  C   UNL     1       2.629   8.427  17.800  0.00  0.00    +0.000 C 
BRANCH  17  18
ATOM     18  C   UNL     1       1.496   9.056  18.547  0.00  0.00    +0.000 A 
ATOM     19  C   UNL     1       0.448   9.793  18.016  0.00  0.00    +0.000 A 
ATOM     20  S   UNL     1      -0.641  10.243  19.257  0.00  0.00    +0.000 S 
ATOM     21  C   UNL     1       0.341   9.421  20.400  0.00  0.00    +0.000 A 
ATOM     22  C   UNL     1      -0.052   9.355  21.837  0.00  0.00    +0.000 C 
ATOM     23  N   UNL     1       1.422   8.855  19.919  0.00  0.00    +0.000 NA
ENDBRANCH  17  18
ENDBRANCH   5  17
TORSDOF 4
ENDMDL
MODEL 3
REMARK VINA RESULT:      -6.0      3.777      5.932
REMARK  Name = 
REMARK  8 active torsions:
REMARK  status: ('A' for Active; 'I' for Inactive)
REMARK    1  A    between atoms: C_1  and  N_2
REMARK    2  A    between atoms: C_3  and  C_5
REMARK    3  A    between atoms: N_9  and  C_10
REMARK    4  A    between atoms: C_10  and  C_11
REMARK    5  A    between atoms: C_14  and  C_15
REMARK    6  A    between atoms: N_19  and  C_20
REMARK    7  A    between atoms: C_20  and  C_21
REMARK    8  A    between atoms: C_20  and  C_22
REMARK                            x       y       z     vdW  Elec       q    Type
REMARK                         _______ _______ _______ _____ _____    ______ ____
ROOT
ATOM      1  C   UNL     1       6.252   5.038  16.112  0.00  0.00    +0.000 C 
ATOM      2  C   UNL     1       4.918   4.344  15.875  0.00  0.00    +0.000 C 
ATOM      3  C   UNL     1       3.951   5.086  16.758  0.00  0.00    +0.000 C 
ATOM      4  C   UNL     1       3.886   4.613  18.217  0.00  0.00    +0.000 C 
ATOM      5  N   UNL     1       4.008   5.818  19.052  0.00  0.00    +0.000 NA
ATOM      6  C   UNL     1       3.863   6.962  18.145  0.00  0.00    +0.000 C 
ATOM      7  C   UNL     1       4.487   6.515  16.816  0.00  0.00    +0.000 C 
ATOM      8  N   UNL     1       5.950   6.444  16.547  0.00  0.00    +0.000 NA
ENDROOT
BRANCH   1  11
ATOM      9  C   UNL     1       7.116   4.083  12.511  0.00  0.00    +0.000 C 
ATOM     10  N   UNL     1       6.557   4.175  13.830  0.00  0.00    +0.000 N 
ATOM     11  C   UNL     1       7.063   5.016  14.796  0.00  0.00    +0.000 C 
ATOM     12  O   UNL     1       8.095   5.665  14.648  0.00  0.00    +0.000 OA
ATOM     13  H   UNL     1       5.663   3.746  14.058  0.00  0.00    +0.000 HD
ENDBRANCH   1  11
BRANCH   8  14
ATOM     14  C   UNL     1       6.857   6.958  17.597  0.00  0.00    +0.000 C 
ATOM     15  C   UNL     1       7.734   5.867  18.253  0.00  0.00    +0.000 C 
ATOM     16  C   UNL     1       7.857   7.988  17.041  0.00  0.00    +0.000 C 
ENDBRANCH   8  14
BRANCH   5  17
ATOM     17  C   UNL     1       3.012   5.913  20.128  0.00  0.00    +0.000 C 
BRANCH  17  18
ATOM     18  C   UNL     1       2.371   4.594  20.430  0.00  0.00    +0.000 A 
ATOM     19  C   UNL     1       2.322   3.947  21.656  0.00  0.00    +0.000 A 
ATOM     20  S   UNL     1       1.417   2.501  21.519  0.00  0.00    +0.000 S 
ATOM     21  C   UNL     1       1.146   2.842  19.858  0.00  0.00    +0.000 A 
ATOM     22  C   UNL     1       0.314   1.933  19.018  0.00  0.00    +0.000 C 
ATOM     23  N   UNL     1       1.694   3.944  19.407  0.00  0.00    +0.000 NA
ENDBRANCH  17  18
ENDBRANCH   5  17
TORSDOF 4
ENDMDL
MODEL 4
REMARK VINA RESULT:      -6.0      3.804      5.521
REMARK  Name = 
REMARK  8 active torsions:
REMARK  status: ('A' for Active; 'I' for Inactive)
REMARK    1  A    between atoms: C_1  and  N_2
REMARK    2  A    between atoms: C_3  and  C_5
REMARK    3  A    between atoms: N_9  and  C_10
REMARK    4  A    between atoms: C_10  and  C_11
REMARK    5  A    between atoms: C_14  and  C_15
REMARK    6  A    between atoms: N_19  and  C_20
REMARK    7  A    between atoms: C_20  and  C_21
REMARK    8  A    between atoms: C_20  and  C_22
REMARK                            x       y       z     vdW  Elec       q    Type
REMARK                         _______ _______ _______ _____ _____    ______ ____
ROOT
ATOM      1  C   UNL     1       3.177   4.659  17.606  0.00  0.00    +0.000 C 
ATOM      2  C   UNL     1       4.205   3.675  17.066  0.00  0.00    +0.000 C 
ATOM      3  C   UNL     1       5.487   4.064  17.751  0.00  0.00    +0.000 C 
ATOM      4  C   UNL     1       6.283   5.193  17.081  0.00  0.00    +0.000 C 
ATOM      5  N   UNL     1       6.603   6.164  18.140  0.00  0.00    +0.000 NA
ATOM      6  C   UNL     1       6.269   5.509  19.410  0.00  0.00    +0.000 C 
ATOM      7  C   UNL     1       5.057   4.618  19.107  0.00  0.00    +0.000 C 
ATOM      8  N   UNL     1       3.659   5.110  18.955  0.00  0.00    +0.000 NA
ENDROOT
BRANCH   1  11
ATOM      9  C   UNL     1       0.602   2.117  18.845  0.00  0.00    +0.000 C 
ATOM     10  N   UNL     1       1.797   2.857  18.550  0.00  0.00    +0.000 N 
ATOM     11  C   UNL     1       1.810   3.944  17.705  0.00  0.00    +0.000 C 
ATOM     12  O   UNL     1       0.833   4.297  17.049  0.00  0.00    +0.000 OA
ATOM     13  H   UNL     1       2.654   2.713  19.080  0.00  0.00    +0.000 HD
ENDBRANCH   1  11
BRANCH   8  14
ATOM     14  C   UNL     1       3.411   6.542  19.236  0.00  0.00    +0.000 C 
ATOM     15  C   UNL     1       3.154   7.391  17.971  0.00  0.00    +0.000 C 
ATOM     16  C   UNL     1       2.162   6.749  20.112  0.00  0.00    +0.000 C 
ENDBRANCH   8  14
BRANCH   5  17
ATOM     17  C   UNL     1       8.008   6.595  18.161  0.00  0.00    +0.000 C 
BRANCH  17  18
ATOM     18  C   UNL     1       8.147   8.085  18.175  0.00  0.00    +0.000 A 
ATOM     19  C   UNL     1       7.459   8.999  17.392  0.00  0.00    +0.000 A 
ATOM     20  S   UNL     1       7.909  10.594  17.820  0.00  0.00    +0.000 S 
ATOM     21  C   UNL     1       8.966   9.962  19.016  0.00  0.00    +0.000 A 
ATOM     22  C   UNL     1       9.749  10.872  19.900  0.00  0.00    +0.000 C 
ATOM     23  N   UNL     1       9.013   8.654  19.100  0.00  0.00    +0.000 NA
ENDBRANCH  17  18
ENDBRANCH   5  17
TORSDOF 4
ENDMDL
MODEL 5
REMARK VINA RESULT:      -5.8      2.914      4.410
REMARK  Name = 
REMARK  8 active torsions:
REMARK  status: ('A' for Active; 'I' for Inactive)
REMARK    1  A    between atoms: C_1  and  N_2
REMARK    2  A    between atoms: C_3  and  C_5
REMARK    3  A    between atoms: N_9  and  C_10
REMARK    4  A    between atoms: C_10  and  C_11
REMARK    5  A    between atoms: C_14  and  C_15
REMARK    6  A    between atoms: N_19  and  C_20
REMARK    7  A    between atoms: C_20  and  C_21
REMARK    8  A    between atoms: C_20  and  C_22
REMARK                            x       y       z     vdW  Elec       q    Type
REMARK                         _______ _______ _______ _____ _____    ______ ____
ROOT
ATOM      1  C   UNL     1       5.701   4.612  16.869  0.00  0.00    +0.000 C 
ATOM      2  C   UNL     1       4.362   3.927  16.636  0.00  0.00    +0.000 C 
ATOM      3  C   UNL     1       3.365   4.815  17.331  0.00  0.00    +0.000 C 
ATOM      4  C   UNL     1       3.182   4.560  18.833  0.00  0.00    +0.000 C 
ATOM      5  N   UNL     1       3.291   5.869  19.496  0.00  0.00    +0.000 NA
ATOM      6  C   UNL     1       3.251   6.873  18.427  0.00  0.00    +0.000 C 
ATOM      7  C   UNL     1       3.948   6.222  17.225  0.00  0.00    +0.000 C 
ATOM      8  N   UNL     1       5.423   6.074  17.077  0.00  0.00    +0.000 NA
ENDROOT
BRANCH   1  11
ATOM      9  C   UNL     1       6.566   3.809  13.231  0.00  0.00    +0.000 C 
ATOM     10  N   UNL     1       5.921   3.988  14.502  0.00  0.00    +0.000 N 
ATOM     11  C   UNL     1       6.600   4.378  15.634  0.00  0.00    +0.000 C 
ATOM     12  O   UNL     1       7.822   4.493  15.678  0.00  0.00    +0.000 OA
ATOM     13  H   UNL     1       4.906   3.994  14.584  0.00  0.00    +0.000 HD
ENDBRANCH   1  11
BRANCH   8  14
ATOM     14  C   UNL     1       6.274   6.709  18.107  0.00  0.00    +0.000 C 
ATOM     15  C   UNL     1       6.930   5.705  19.081  0.00  0.00    +0.000 C 
ATOM     16  C   UNL     1       7.450   7.484  17.486  0.00  0.00    +0.000 C 
ENDBRANCH   8  14
BRANCH   5  17
ATOM     17  C   UNL     1       2.227   6.145  20.471  0.00  0.00    +0.000 C 
BRANCH  17  18
ATOM     18  C   UNL     1       1.720   7.550  20.381  0.00  0.00    +0.000 A 
ATOM     19  C   UNL     1       1.708   8.367  19.260  0.00  0.00    +0.000 A 
ATOM     20  S   UNL     1       0.964   9.862  19.632  0.00  0.00    +0.000 S 
ATOM     21  C   UNL     1       0.699   9.316  21.238  0.00  0.00    +0.000 A 
ATOM     22  C   UNL     1      -0.012  10.175  22.229  0.00  0.00    +0.000 C 
ATOM     23  N   UNL     1       1.140   8.112  21.511  0.00  0.00    +0.000 NA
ENDBRANCH  17  18
ENDBRANCH   5  17
TORSDOF 4
ENDMDL
MODEL 6
REMARK VINA RESULT:      -5.7      1.149      1.251
REMARK  Name = 
REMARK  8 active torsions:
REMARK  status: ('A' for Active; 'I' for Inactive)
REMARK    1  A    between atoms: C_1  and  N_2
REMARK    2  A    between atoms: C_3  and  C_5
REMARK    3  A    between atoms: N_9  and  C_10
REMARK    4  A    between atoms: C_10  and  C_11
REMARK    5  A    between atoms: C_14  and  C_15
REMARK    6  A    between atoms: N_19  and  C_20
REMARK    7  A    between atoms: C_20  and  C_21
REMARK    8  A    between atoms: C_20  and  C_22
REMARK                            x       y       z     vdW  Elec       q    Type
REMARK                         _______ _______ _______ _____ _____    ______ ____
ROOT
ATOM      1  C   UNL     1       3.369   3.257  18.811  0.00  0.00    +0.000 C 
ATOM      2  C   UNL     1       4.201   3.912  17.718  0.00  0.00    +0.000 C 
ATOM      3  C   UNL     1       4.152   5.381  18.044  0.00  0.00    +0.000 C 
ATOM      4  C   UNL     1       2.931   6.140  17.505  0.00  0.00    +0.000 C 
ATOM      5  N   UNL     1       2.379   6.901  18.637  0.00  0.00    +0.000 NA
ATOM      6  C   UNL     1       3.380   6.826  19.708  0.00  0.00    +0.000 C 
ATOM      7  C   UNL     1       4.032   5.444  19.564  0.00  0.00    +0.000 C 
ATOM      8  N   UNL     1       3.413   4.164  20.008  0.00  0.00    +0.000 NA
ENDROOT
BRANCH   1  11
ATOM      9  C   UNL     1       5.417   0.650  20.717  0.00  0.00    +0.000 C 
ATOM     10  N   UNL     1       4.827   1.857  20.209  0.00  0.00    +0.000 N 
ATOM     11  C   UNL     1       3.972   1.871  19.130  0.00  0.00    +0.000 C 
ATOM     12  O   UNL     1       3.736   0.877  18.447  0.00  0.00    +0.000 OA
ATOM     13  H   UNL     1       4.885   2.732  20.724  0.00  0.00    +0.000 HD
ENDBRANCH   1  11
BRANCH   8  14
ATOM     14  C   UNL     1       2.134   4.251  20.746  0.00  0.00    +0.000 C 
ATOM     15  C   UNL     1       0.895   3.899  19.892  0.00  0.00    +0.000 C 
ATOM     16  C   UNL     1       2.087   3.272  21.933  0.00  0.00    +0.000 C 
ENDBRANCH   8  14
BRANCH   5  17
ATOM     17  C   UNL     1       2.086   8.309  18.335  0.00  0.00    +0.000 C 
BRANCH  17  18
ATOM     18  C   UNL     1       1.233   8.952  19.383  0.00  0.00    +0.000 A 
ATOM     19  C   UNL     1       1.079   8.551  20.702  0.00  0.00    +0.000 A 
ATOM     20  S   UNL     1       0.057   9.643  21.532  0.00  0.00    +0.000 S 
ATOM     21  C   UNL     1      -0.096  10.572  20.097  0.00  0.00    +0.000 A 
ATOM     22  C   UNL     1      -0.898  11.829  20.083  0.00  0.00    +0.000 C 
ATOM     23  N   UNL     1       0.547  10.113  19.051  0.00  0.00    +0.000 NA
ENDBRANCH  17  18
ENDBRANCH   5  17
TORSDOF 4
ENDMDL
MODEL 7
REMARK VINA RESULT:      -5.7      4.344      5.992
REMARK  Name = 
REMARK  8 active torsions:
REMARK  status: ('A' for Active; 'I' for Inactive)
REMARK    1  A    between atoms: C_1  and  N_2
REMARK    2  A    between atoms: C_3  and  C_5
REMARK    3  A    between atoms: N_9  and  C_10
REMARK    4  A    between atoms: C_10  and  C_11
REMARK    5  A    between atoms: C_14  and  C_15
REMARK    6  A    between atoms: N_19  and  C_20
REMARK    7  A    between atoms: C_20  and  C_21
REMARK    8  A    between atoms: C_20  and  C_22
REMARK                            x       y       z     vdW  Elec       q    Type
REMARK                         _______ _______ _______ _____ _____    ______ ____
ROOT
ATOM      1  C   UNL     1       4.265   3.160  19.319  0.00  0.00    +0.000 C 
ATOM      2  C   UNL     1       5.585   3.801  19.722  0.00  0.00    +0.000 C 
ATOM      3  C   UNL     1       5.788   4.901  18.714  0.00  0.00    +0.000 C 
ATOM      4  C   UNL     1       6.448   4.479  17.394  0.00  0.00    +0.000 C 
ATOM      5  N   UNL     1       5.608   5.021  16.315  0.00  0.00    +0.000 NA
ATOM      6  C   UNL     1       4.670   5.951  16.954  0.00  0.00    +0.000 C 
ATOM      7  C   UNL     1       4.380   5.355  18.338  0.00  0.00    +0.000 C 
ATOM      8  N   UNL     1       3.467   4.206  18.593  0.00  0.00    +0.000 NA
ENDROOT
BRANCH   1  11
ATOM      9  C   UNL     1       1.387   2.755  21.804  0.00  0.00    +0.000 C 
ATOM     10  N   UNL     1       2.255   3.159  20.734  0.00  0.00    +0.000 N 
ATOM     11  C   UNL     1       3.538   2.678  20.594  0.00  0.00    +0.000 C 
ATOM     12  O   UNL     1       4.081   1.960  21.430  0.00  0.00    +0.000 OA
ATOM     13  H   UNL     1       1.905   3.690  19.940  0.00  0.00    +0.000 HD
ENDBRANCH   1  11
BRANCH   8  14
ATOM     14  C   UNL     1       2.696   3.685  17.442  0.00  0.00    +0.000 C 
ATOM     15  C   UNL     1       2.630   2.143  17.382  0.00  0.00    +0.000 C 
ATOM     16  C   UNL     1       1.227   4.143  17.478  0.00  0.00    +0.000 C 
ENDBRANCH   8  14
BRANCH   5  17
ATOM     17  C   UNL     1       6.354   5.721  15.260  0.00  0.00    +0.000 C 
BRANCH  17  18
ATOM     18  C   UNL     1       6.419   4.935  13.988  0.00  0.00    +0.000 A 
ATOM     19  C   UNL     1       7.547   4.653  13.232  0.00  0.00    +0.000 A 
ATOM     20  S   UNL     1       7.130   3.660  11.903  0.00  0.00    +0.000 S 
ATOM     21  C   UNL     1       5.496   3.664  12.429  0.00  0.00    +0.000 A 
ATOM     22  C   UNL     1       4.455   2.890  11.692  0.00  0.00    +0.000 C 
ATOM     23  N   UNL     1       5.247   4.362  13.510  0.00  0.00    +0.000 NA
ENDBRANCH  17  18
ENDBRANCH   5  17
TORSDOF 4
ENDMDL
MODEL 8
REMARK VINA RESULT:      -5.6      4.671      9.396
REMARK  Name = 
REMARK  8 active torsions:
REMARK  status: ('A' for Active; 'I' for Inactive)
REMARK    1  A    between atoms: C_1  and  N_2
REMARK    2  A    between atoms: C_3  and  C_5
REMARK    3  A    between atoms: N_9  and  C_10
REMARK    4  A    between atoms: C_10  and  C_11
REMARK    5  A    between atoms: C_14  and  C_15
REMARK    6  A    between atoms: N_19  and  C_20
REMARK    7  A    between atoms: C_20  and  C_21
REMARK    8  A    between atoms: C_20  and  C_22
REMARK                            x       y       z     vdW  Elec       q    Type
REMARK                         _______ _______ _______ _____ _____    ______ ____
ROOT
ATOM      1  C   UNL     1      -3.947  11.742  18.771  0.00  0.00    +0.000 C 
ATOM      2  C   UNL     1      -3.625  12.530  20.033  0.00  0.00    +0.000 C 
ATOM      3  C   UNL     1      -2.121  12.555  20.082  0.00  0.00    +0.000 C 
ATOM      4  C   UNL     1      -1.457  11.333  20.731  0.00  0.00    +0.000 C 
ATOM      5  N   UNL     1      -0.413  10.880  19.798  0.00  0.00    +0.000 NA
ATOM      6  C   UNL     1      -0.273  11.941  18.794  0.00  0.00    +0.000 C 
ATOM      7  C   UNL     1      -1.678  12.531  18.621  0.00  0.00    +0.000 C 
ATOM      8  N   UNL     1      -2.776  11.894  17.842  0.00  0.00    +0.000 NA
ENDROOT
BRANCH   1  11
ATOM      9  C   UNL     1      -6.747  14.269  18.137  0.00  0.00    +0.000 C 
ATOM     10  N   UNL     1      -5.625  13.535  18.650  0.00  0.00    +0.000 N 
ATOM     11  C   UNL     1      -5.241  12.312  18.147  0.00  0.00    +0.000 C 
ATOM     12  O   UNL     1      -5.889  11.700  17.302  0.00  0.00    +0.000 OA
ATOM     13  H   UNL     1      -4.965  13.960  19.298  0.00  0.00    +0.000 HD
ENDBRANCH   1  11
BRANCH   8  14
ATOM     14  C   UNL     1      -2.445  10.666  17.085  0.00  0.00    +0.000 C 
ATOM     15  C   UNL     1      -3.171   9.402  17.597  0.00  0.00    +0.000 C 
ATOM     16  C   UNL     1      -2.842  10.778  15.603  0.00  0.00    +0.000 C 
ENDBRANCH   8  14
BRANCH   5  17
ATOM     17  C   UNL     1       0.890  10.621  20.427  0.00  0.00    +0.000 C 
BRANCH  17  18
ATOM     18  C   UNL     1       1.322   9.196  20.278  0.00  0.00    +0.000 A 
ATOM     19  C   UNL     1       1.163   8.170  21.198  0.00  0.00    +0.000 A 
ATOM     20  S   UNL     1       1.753   6.702  20.547  0.00  0.00    +0.000 S 
ATOM     21  C   UNL     1       2.162   7.524  19.096  0.00  0.00    +0.000 A 
ATOM     22  C   UNL     1       2.752   6.786  17.942  0.00  0.00    +0.000 C 
ATOM     23  N   UNL     1       1.902   8.808  19.077  0.00  0.00    +0.000 NA
ENDBRANCH  17  18
ENDBRANCH   5  17
TORSDOF 4
ENDMDL
MODEL 9
REMARK VINA RESULT:      -5.6      4.014      6.062
REMARK  Name = 
REMARK  8 active torsions:
REMARK  status: ('A' for Active; 'I' for Inactive)
REMARK    1  A    between atoms: C_1  and  N_2
REMARK    2  A    between atoms: C_3  and  C_5
REMARK    3  A    between atoms: N_9  and  C_10
REMARK    4  A    between atoms: C_10  and  C_11
REMARK    5  A    between atoms: C_14  and  C_15
REMARK    6  A    between atoms: N_19  and  C_20
REMARK    7  A    between atoms: C_20  and  C_21
REMARK    8  A    between atoms: C_20  and  C_22
REMARK                            x       y       z     vdW  Elec       q    Type
REMARK                         _______ _______ _______ _____ _____    ______ ____
ROOT
ATOM      1  C   UNL     1       2.633   3.727  19.074  0.00  0.00    +0.000 C 
ATOM      2  C   UNL     1       3.549   2.543  18.799  0.00  0.00    +0.000 C 
ATOM      3  C   UNL     1       4.910   3.161  18.615  0.00  0.00    +0.000 C 
ATOM      4  C   UNL     1       5.222   3.673  17.202  0.00  0.00    +0.000 C 
ATOM      5  N   UNL     1       5.733   5.044  17.357  0.00  0.00    +0.000 NA
ATOM      6  C   UNL     1       5.981   5.228  18.792  0.00  0.00    +0.000 C 
ATOM      7  C   UNL     1       4.903   4.401  19.505  0.00  0.00    +0.000 C 
ATOM      8  N   UNL     1       3.482   4.818  19.664  0.00  0.00    +0.000 NA
ENDROOT
BRANCH   1  11
ATOM      9  C   UNL     1       1.120   2.422  22.335  0.00  0.00    +0.000 C 
ATOM     10  N   UNL     1       1.992   2.801  21.260  0.00  0.00    +0.000 N 
ATOM     11  C   UNL     1       1.526   3.279  20.056  0.00  0.00    +0.000 C 
ATOM     12  O   UNL     1       0.334   3.311  19.762  0.00  0.00    +0.000 OA
ATOM     13  H   UNL     1       2.997   2.890  21.399  0.00  0.00    +0.000 HD
ENDBRANCH   1  11
BRANCH   8  14
ATOM     14  C   UNL     1       3.119   6.177  19.206  0.00  0.00    +0.000 C 
ATOM     15  C   UNL     1       2.403   6.205  17.837  0.00  0.00    +0.000 C 
ATOM     16  C   UNL     1       2.146   6.871  20.176  0.00  0.00    +0.000 C 
ENDBRANCH   8  14
BRANCH   5  17
ATOM     17  C   UNL     1       6.964   5.320  16.604  0.00  0.00    +0.000 C 
BRANCH  17  18
ATOM     18  C   UNL     1       6.879   4.861  15.183  0.00  0.00    +0.000 A 
ATOM     19  C   UNL     1       6.079   3.847  14.675  0.00  0.00    +0.000 A 
ATOM     20  S   UNL     1       6.276   3.739  12.979  0.00  0.00    +0.000 S 
ATOM     21  C   UNL     1       7.389   5.045  13.037  0.00  0.00    +0.000 A 
ATOM     22  C   UNL     1       8.008   5.576  11.788  0.00  0.00    +0.000 C 
ATOM     23  N   UNL     1       7.629   5.536  14.228  0.00  0.00    +0.000 NA
ENDBRANCH  17  18
ENDBRANCH   5  17
TORSDOF 4
ENDMDL
