MODEL 1
REMARK VINA RESULT:      -8.1      0.000      0.000
REMARK  Name = 
REMARK  8 active torsions:
REMARK  status: ('A' for Active; 'I' for Inactive)
REMARK    1  A    between atoms: C_1  and  O_2
REMARK    2  A    between atoms: O_2  and  C_3
REMARK    3  A    between atoms: C_8  and  C_9
REMARK    4  A    between atoms: C_9  and  N_10
REMARK    5  A    between atoms: C_9  and  C_20
REMARK    6  A    between atoms: C_11  and  C_13
REMARK    7  A    between atoms: C_13  and  C_14
REMARK    8  A    between atoms: C_17  and  C_18
REMARK                            x       y       z     vdW  Elec       q    Type
REMARK                         _______ _______ _______ _____ _____    ______ ____
ROOT
ATOM      1  C   UNL     1       4.644   5.191  18.318  0.00  0.00    +0.000 C 
ENDROOT
BRANCH   1   7
ATOM      2  C   UNL     1       2.787   6.372  19.611  0.00  0.00    +0.000 A 
ATOM      3  C   UNL     1       1.803   7.363  19.681  0.00  0.00    +0.000 A 
ATOM      4  C   UNL     1       1.718   8.353  18.701  0.00  0.00    +0.000 A 
ATOM      5  C   UNL     1       2.630   8.378  17.654  0.00  0.00    +0.000 A 
ATOM      6  C   UNL     1       3.614   7.397  17.571  0.00  0.00    +0.000 A 
ATOM      7  C   UNL     1       3.678   6.355  18.520  0.00  0.00    +0.000 A 
BRANCH   2   9
ATOM      8  C   UNL     1       1.692   4.667  20.852  0.00  0.00    +0.000 C 
ATOM      9  O   UNL     1       2.901   5.345  20.515  0.00  0.00    +0.000 OA
ENDBRANCH   2   9
ENDBRANCH   1   7
BRANCH   1  10
ATOM     10  C   UNL     1       3.931   3.891  18.134  0.00  0.00    +0.000 A 
ATOM     11  C   UNL     1       2.894   3.516  17.303  0.00  0.00    +0.000 A 
ATOM     12  C   UNL     1       2.574   2.178  17.635  0.00  0.00    +0.000 A 
ATOM     13  C   UNL     1       3.462   1.809  18.623  0.00  0.00    +0.000 A 
ATOM     14  O   UNL     1       4.296   2.837  18.926  0.00  0.00    +0.000 OA
ENDBRANCH   1  10
BRANCH   1  15
ATOM     15  N   UNL     1       5.602   5.082  19.413  0.00  0.00    +0.000 N 
ATOM     16  C   UNL     1       6.960   5.241  19.333  0.00  0.00    +0.000 C 
ATOM     17  O   UNL     1       7.622   5.207  20.377  0.00  0.00    +0.000 OA
ATOM     18  H   UNL     1       5.232   4.956  20.348  0.00  0.00    +0.000 HD
BRANCH  16  19
ATOM     19  C   UNL     1       7.601   5.519  17.989  0.00  0.00    +0.000 C 
BRANCH  19  20
ATOM     20  C   UNL     1       7.767   6.965  17.819  0.00  0.00    +0.000 A 
ATOM     21  N   UNL     1       7.156   7.780  16.982  0.00  0.00    +0.000 NA
ATOM     22  N   UNL     1       7.557   9.054  17.320  0.00  0.00    +0.000 NA
ATOM     23  C   UNL     1       8.376   8.923  18.341  0.00  0.00    +0.000 A 
ATOM     24  C   UNL     1       9.080   9.947  19.123  0.00  0.00    +0.000 C 
ATOM     25  O   UNL     1       8.551   7.623  18.726  0.00  0.00    +0.000 OA
ENDBRANCH  19  20
ENDBRANCH  16  19
ENDBRANCH   1  15
TORSDOF 6
ENDMDL
MODEL 2
REMARK VINA RESULT:      -7.7      1.779      2.511
REMARK  Name = 
REMARK  8 active torsions:
REMARK  status: ('A' for Active; 'I' for Inactive)
REMARK    1  A    between atoms: C_1  and  O_2
REMARK    2  A    between atoms: O_2  and  C_3
REMARK    3  A    between atoms: C_8  and  C_9
REMARK    4  A    between atoms: C_9  and  N_10
REMARK    5  A    between atoms: C_9  and  C_20
REMARK    6  A    between atoms: C_11  and  C_13
REMARK    7  A    between atoms: C_13  and  C_14
REMARK    8  A    between atoms: C_17  and  C_18
REMARK                            x       y       z     vdW  Elec       q    Type
REMARK                         _______ _______ _______ _____ _____    ______ ____
ROOT
ATOM      1  C   UNL     1       4.568   5.138  18.289  0.00  0.00    +0.000 C 
ENDROOT
BRANCH   1   7
ATOM      2  C   UNL     1       2.811   6.348  19.691  0.00  0.00    +0.000 A 
ATOM      3  C   UNL     1       1.858   7.362  19.825  0.00  0.00    +0.000 A 
ATOM      4  C   UNL     1       1.747   8.367  18.862  0.00  0.00    +0.000 A 
ATOM      5  C   UNL     1       2.603   8.383  17.769  0.00  0.00    +0.000 A 
ATOM      6  C   UNL     1       3.556   7.379  17.623  0.00  0.00    +0.000 A 
ATOM      7  C   UNL     1       3.644   6.324  18.555  0.00  0.00    +0.000 A 
BRANCH   2   9
ATOM      8  C   UNL     1       1.753   4.595  20.896  0.00  0.00    +0.000 C 
ATOM      9  O   UNL     1       2.947   5.307  20.576  0.00  0.00    +0.000 OA
ENDBRANCH   2   9
ENDBRANCH   1   7
BRANCH   1  10
ATOM     10  C   UNL     1       3.815   3.858  18.133  0.00  0.00    +0.000 A 
ATOM     11  C   UNL     1       2.694   3.530  17.397  0.00  0.00    +0.000 A 
ATOM     12  C   UNL     1       2.381   2.187  17.715  0.00  0.00    +0.000 A 
ATOM     13  C   UNL     1       3.354   1.769  18.597  0.00  0.00    +0.000 A 
ATOM     14  O   UNL     1       4.234   2.772  18.850  0.00  0.00    +0.000 OA
ENDBRANCH   1  10
BRANCH   1  15
ATOM     15  N   UNL     1       5.582   4.995  19.327  0.00  0.00    +0.000 N 
ATOM     16  C   UNL     1       6.827   5.570  19.343  0.00  0.00    +0.000 C 
ATOM     17  O   UNL     1       7.533   5.422  20.347  0.00  0.00    +0.000 OA
ATOM     18  H   UNL     1       5.325   4.489  20.166  0.00  0.00    +0.000 HD
BRANCH  16  19
ATOM     19  C   UNL     1       7.272   6.418  18.170  0.00  0.00    +0.000 C 
BRANCH  19  20
ATOM     20  C   UNL     1       7.298   5.596  16.957  0.00  0.00    +0.000 A 
ATOM     21  N   UNL     1       7.856   4.417  16.762  0.00  0.00    +0.000 NA
ATOM     22  N   UNL     1       7.471   4.011  15.504  0.00  0.00    +0.000 NA
ATOM     23  C   UNL     1       6.702   4.966  15.027  0.00  0.00    +0.000 A 
ATOM     24  C   UNL     1       5.994   5.056  13.744  0.00  0.00    +0.000 C 
ATOM     25  O   UNL     1       6.534   6.006  15.899  0.00  0.00    +0.000 OA
ENDBRANCH  19  20
ENDBRANCH  16  19
ENDBRANCH   1  15
TORSDOF 6
ENDMDL
MODEL 3
REMARK VINA RESULT:      -7.2      2.539      3.758
REMARK  Name = 
REMARK  8 active torsions:
REMARK  status: ('A' for Active; 'I' for Inactive)
REMARK    1  A    between atoms: C_1  and  O_2
REMARK    2  A    between atoms: O_2  and  C_3
REMARK    3  A    between atoms: C_8  and  C_9
REMARK    4  A    between atoms: C_9  and  N_10
REMARK    5  A    between atoms: C_9  and  C_20
REMARK    6  A    between atoms: C_11  and  C_13
REMARK    7  A    between atoms: C_13  and  C_14
REMARK    8  A    between atoms: C_17  and  C_18
REMARK                            x       y       z     vdW  Elec       q    Type
REMARK                         _______ _______ _______ _____ _____    ______ ____
ROOT
ATOM      1  C   UNL     1       3.199   5.540  19.166  0.00  0.00    +0.000 C 
ENDROOT
BRANCH   1   7
ATOM      2  C   UNL     1       2.708   7.708  17.911  0.00  0.00    +0.000 A 
ATOM      3  C   UNL     1       2.211   9.015  17.901  0.00  0.00    +0.000 A 
ATOM      4  C   UNL     1       1.503   9.516  18.995  0.00  0.00    +0.000 A 
ATOM      5  C   UNL     1       1.262   8.708  20.099  0.00  0.00    +0.000 A 
ATOM      6  C   UNL     1       1.751   7.406  20.122  0.00  0.00    +0.000 A 
ATOM      7  C   UNL     1       2.519   6.902  19.051  0.00  0.00    +0.000 A 
BRANCH   2   9
ATOM      8  C   UNL     1       4.820   7.556  16.832  0.00  0.00    +0.000 C 
ATOM      9  O   UNL     1       3.449   7.166  16.890  0.00  0.00    +0.000 OA
ENDBRANCH   2   9
ENDBRANCH   1   7
BRANCH   1  10
ATOM     10  C   UNL     1       2.402   4.579  19.985  0.00  0.00    +0.000 A 
ATOM     11  C   UNL     1       2.503   4.181  21.303  0.00  0.00    +0.000 A 
ATOM     12  C   UNL     1       1.531   3.172  21.498  0.00  0.00    +0.000 A 
ATOM     13  C   UNL     1       0.871   3.044  20.294  0.00  0.00    +0.000 A 
ATOM     14  O   UNL     1       1.385   3.898  19.372  0.00  0.00    +0.000 OA
ENDBRANCH   1  10
BRANCH   1  15
ATOM     15  N   UNL     1       4.550   5.651  19.704  0.00  0.00    +0.000 N 
ATOM     16  C   UNL     1       5.645   4.917  19.329  0.00  0.00    +0.000 C 
ATOM     17  O   UNL     1       6.743   5.200  19.820  0.00  0.00    +0.000 OA
ATOM     18  H   UNL     1       4.731   6.397  20.366  0.00  0.00    +0.000 HD
BRANCH  16  19
ATOM     19  C   UNL     1       5.493   3.834  18.281  0.00  0.00    +0.000 C 
BRANCH  19  20
ATOM     20  C   UNL     1       6.166   4.253  17.047  0.00  0.00    +0.000 A 
ATOM     21  N   UNL     1       7.332   4.849  16.896  0.00  0.00    +0.000 NA
ATOM     22  N   UNL     1       7.572   4.890  15.541  0.00  0.00    +0.000 NA
ATOM     23  C   UNL     1       6.541   4.309  14.966  0.00  0.00    +0.000 A 
ATOM     24  C   UNL     1       6.275   4.050  13.546  0.00  0.00    +0.000 C 
ATOM     25  O   UNL     1       5.607   3.865  15.860  0.00  0.00    +0.000 OA
ENDBRANCH  19  20
ENDBRANCH  16  19
ENDBRANCH   1  15
TORSDOF 6
ENDMDL
MODEL 4
REMARK VINA RESULT:      -7.2      2.530      3.242
REMARK  Name = 
REMARK  8 active torsions:
REMARK  status: ('A' for Active; 'I' for Inactive)
REMARK    1  A    between atoms: C_1  and  O_2
REMARK    2  A    between atoms: O_2  and  C_3
REMARK    3  A    between atoms: C_8  and  C_9
REMARK    4  A    between atoms: C_9  and  N_10
REMARK    5  A    between atoms: C_9  and  C_20
REMARK    6  A    between atoms: C_11  and  C_13
REMARK    7  A    between atoms: C_13  and  C_14
REMARK    8  A    between atoms: C_17  and  C_18
REMARK                            x       y       z     vdW  Elec       q    Type
REMARK                         _______ _______ _______ _____ _____    ______ ____
ROOT
ATOM      1  C   UNL     1       3.750   5.313  17.709  0.00  0.00    +0.000 C 
ENDROOT
BRANCH   1   7
ATOM      2  C   UNL     1       2.649   6.655  19.581  0.00  0.00    +0.000 A 
ATOM      3  C   UNL     1       1.905   7.762  20.001  0.00  0.00    +0.000 A 
ATOM      4  C   UNL     1       1.626   8.808  19.119  0.00  0.00    +0.000 A 
ATOM      5  C   UNL     1       2.109   8.771  17.818  0.00  0.00    +0.000 A 
ATOM      6  C   UNL     1       2.851   7.675  17.387  0.00  0.00    +0.000 A 
ATOM      7  C   UNL     1       3.093   6.582  18.246  0.00  0.00    +0.000 A 
BRANCH   2   9
ATOM      8  C   UNL     1       1.829   5.057  21.137  0.00  0.00    +0.000 C 
ATOM      9  O   UNL     1       2.923   5.573  20.381  0.00  0.00    +0.000 OA
ENDBRANCH   2   9
ENDBRANCH   1   7
BRANCH   1  10
ATOM     10  C   UNL     1       2.942   4.092  18.001  0.00  0.00    +0.000 A 
ATOM     11  C   UNL     1       1.637   3.753  17.700  0.00  0.00    +0.000 A 
ATOM     12  C   UNL     1       1.392   2.502  18.315  0.00  0.00    +0.000 A 
ATOM     13  C   UNL     1       2.576   2.139  18.921  0.00  0.00    +0.000 A 
ATOM     14  O   UNL     1       3.525   3.091  18.729  0.00  0.00    +0.000 OA
ENDBRANCH   1  10
BRANCH   1  15
ATOM     15  N   UNL     1       5.106   5.146  18.219  0.00  0.00    +0.000 N 
ATOM     16  C   UNL     1       6.122   4.439  17.630  0.00  0.00    +0.000 C 
ATOM     17  O   UNL     1       7.243   4.473  18.149  0.00  0.00    +0.000 OA
ATOM     18  H   UNL     1       5.361   5.665  19.050  0.00  0.00    +0.000 HD
BRANCH  16  19
ATOM     19  C   UNL     1       5.862   3.696  16.336  0.00  0.00    +0.000 C 
BRANCH  19  20
ATOM     20  C   UNL     1       6.551   4.379  15.237  0.00  0.00    +0.000 A 
ATOM     21  N   UNL     1       7.444   5.346  15.287  0.00  0.00    +0.000 NA
ATOM     22  N   UNL     1       7.887   5.532  13.996  0.00  0.00    +0.000 NA
ATOM     23  C   UNL     1       7.237   4.660  13.255  0.00  0.00    +0.000 A 
ATOM     24  C   UNL     1       7.328   4.393  11.815  0.00  0.00    +0.000 C 
ATOM     25  O   UNL     1       6.376   3.880  13.975  0.00  0.00    +0.000 OA
ENDBRANCH  19  20
ENDBRANCH  16  19
ENDBRANCH   1  15
TORSDOF 6
ENDMDL
MODEL 5
REMARK VINA RESULT:      -7.1      1.558      3.698
REMARK  Name = 
REMARK  8 active torsions:
REMARK  status: ('A' for Active; 'I' for Inactive)
REMARK    1  A    between atoms: C_1  and  O_2
REMARK    2  A    between atoms: O_2  and  C_3
REMARK    3  A    between atoms: C_8  and  C_9
REMARK    4  A    between atoms: C_9  and  N_10
REMARK    5  A    between atoms: C_9  and  C_20
REMARK    6  A    between atoms: C_11  and  C_13
REMARK    7  A    between atoms: C_13  and  C_14
REMARK    8  A    between atoms: C_17  and  C_18
REMARK                            x       y       z     vdW  Elec       q    Type
REMARK                         _______ _______ _______ _____ _____    ______ ____
ROOT
ATOM      1  C   UNL     1       4.059   4.998  18.427  0.00  0.00    +0.000 C 
ENDROOT
BRANCH   1   7
ATOM      2  C   UNL     1       3.391   2.831  19.601  0.00  0.00    +0.000 A 
ATOM      3  C   UNL     1       2.471   1.797  19.802  0.00  0.00    +0.000 A 
ATOM      4  C   UNL     1       1.188   1.871  19.258  0.00  0.00    +0.000 A 
ATOM      5  C   UNL     1       0.801   2.988  18.530  0.00  0.00    +0.000 A 
ATOM      6  C   UNL     1       1.707   4.025  18.323  0.00  0.00    +0.000 A 
ATOM      7  C   UNL     1       3.026   3.942  18.814  0.00  0.00    +0.000 A 
BRANCH   2   9
ATOM      8  C   UNL     1       5.107   1.586  20.674  0.00  0.00    +0.000 C 
ATOM      9  O   UNL     1       4.682   2.806  20.069  0.00  0.00    +0.000 OA
ENDBRANCH   2   9
ENDBRANCH   1   7
BRANCH   1  10
ATOM     10  C   UNL     1       3.447   6.349  18.257  0.00  0.00    +0.000 A 
ATOM     11  C   UNL     1       3.551   7.291  17.252  0.00  0.00    +0.000 A 
ATOM     12  C   UNL     1       2.819   8.423  17.681  0.00  0.00    +0.000 A 
ATOM     13  C   UNL     1       2.282   8.086  18.906  0.00  0.00    +0.000 A 
ATOM     14  O   UNL     1       2.649   6.827  19.260  0.00  0.00    +0.000 OA
ENDBRANCH   1  10
BRANCH   1  15
ATOM     15  N   UNL     1       4.790   4.627  17.221  0.00  0.00    +0.000 N 
ATOM     16  C   UNL     1       6.148   4.673  17.040  0.00  0.00    +0.000 C 
ATOM     17  O   UNL     1       6.618   4.234  15.984  0.00  0.00    +0.000 OA
ATOM     18  H   UNL     1       4.262   4.216  16.461  0.00  0.00    +0.000 HD
BRANCH  16  19
ATOM     19  C   UNL     1       7.033   5.192  18.153  0.00  0.00    +0.000 C 
BRANCH  19  20
ATOM     20  C   UNL     1       7.405   6.582  17.871  0.00  0.00    +0.000 A 
ATOM     21  N   UNL     1       6.946   7.394  16.940  0.00  0.00    +0.000 NA
ATOM     22  N   UNL     1       7.507   8.626  17.191  0.00  0.00    +0.000 NA
ATOM     23  C   UNL     1       8.259   8.478  18.260  0.00  0.00    +0.000 A 
ATOM     24  C   UNL     1       9.068   9.463  18.988  0.00  0.00    +0.000 C 
ATOM     25  O   UNL     1       8.237   7.206  18.760  0.00  0.00    +0.000 OA
ENDBRANCH  19  20
ENDBRANCH  16  19
ENDBRANCH   1  15
TORSDOF 6
ENDMDL
MODEL 6
REMARK VINA RESULT:      -7.0      1.515      3.725
REMARK  Name = 
REMARK  8 active torsions:
REMARK  status: ('A' for Active; 'I' for Inactive)
REMARK    1  A    between atoms: C_1  and  O_2
REMARK    2  A    between atoms: O_2  and  C_3
REMARK    3  A    between atoms: C_8  and  C_9
REMARK    4  A    between atoms: C_9  and  N_10
REMARK    5  A    between atoms: C_9  and  C_20
REMARK    6  A    between atoms: C_11  and  C_13
REMARK    7  A    between atoms: C_13  and  C_14
REMARK    8  A    between atoms: C_17  and  C_18
REMARK                            x       y       z     vdW  Elec       q    Type
REMARK                         _______ _______ _______ _____ _____    ______ ____
ROOT
ATOM      1  C   UNL     1       3.947   5.335  18.904  0.00  0.00    +0.000 C 
ENDROOT
BRANCH   1   7
ATOM      2  C   UNL     1       2.123   3.550  18.942  0.00  0.00    +0.000 A 
ATOM      3  C   UNL     1       1.198   2.780  19.654  0.00  0.00    +0.000 A 
ATOM      4  C   UNL     1       1.200   2.773  21.049  0.00  0.00    +0.000 A 
ATOM      5  C   UNL     1       2.143   3.516  21.749  0.00  0.00    +0.000 A 
ATOM      6  C   UNL     1       3.070   4.286  21.053  0.00  0.00    +0.000 A 
ATOM      7  C   UNL     1       3.045   4.351  19.644  0.00  0.00    +0.000 A 
BRANCH   2   9
ATOM      8  C   UNL     1       2.654   2.496  16.880  0.00  0.00    +0.000 C 
ATOM      9  O   UNL     1       2.150   3.636  17.572  0.00  0.00    +0.000 OA
ENDBRANCH   2   9
ENDBRANCH   1   7
BRANCH   1  10
ATOM     10  C   UNL     1       3.235   6.602  18.557  0.00  0.00    +0.000 A 
ATOM     11  C   UNL     1       3.312   7.434  17.457  0.00  0.00    +0.000 A 
ATOM     12  C   UNL     1       2.469   8.538  17.725  0.00  0.00    +0.000 A 
ATOM     13  C   UNL     1       1.901   8.291  18.957  0.00  0.00    +0.000 A 
ATOM     14  O   UNL     1       2.352   7.115  19.466  0.00  0.00    +0.000 OA
ENDBRANCH   1  10
BRANCH   1  15
ATOM     15  N   UNL     1       4.526   4.745  17.703  0.00  0.00    +0.000 N 
ATOM     16  C   UNL     1       5.860   4.610  17.417  0.00  0.00    +0.000 C 
ATOM     17  O   UNL     1       6.186   4.001  16.392  0.00  0.00    +0.000 OA
ATOM     18  H   UNL     1       3.893   4.313  17.041  0.00  0.00    +0.000 HD
BRANCH  16  19
ATOM     19  C   UNL     1       6.889   5.149  18.388  0.00  0.00    +0.000 C 
BRANCH  19  20
ATOM     20  C   UNL     1       7.286   6.499  17.979  0.00  0.00    +0.000 A 
ATOM     21  N   UNL     1       6.823   7.239  16.992  0.00  0.00    +0.000 NA
ATOM     22  N   UNL     1       7.417   8.475  17.123  0.00  0.00    +0.000 NA
ATOM     23  C   UNL     1       8.192   8.400  18.183  0.00  0.00    +0.000 A 
ATOM     24  C   UNL     1       9.041   9.424  18.806  0.00  0.00    +0.000 C 
ATOM     25  O   UNL     1       8.153   7.176  18.792  0.00  0.00    +0.000 OA
ENDBRANCH  19  20
ENDBRANCH  16  19
ENDBRANCH   1  15
TORSDOF 6
ENDMDL
MODEL 7
REMARK VINA RESULT:      -7.0      1.713      2.540
REMARK  Name = 
REMARK  8 active torsions:
REMARK  status: ('A' for Active; 'I' for Inactive)
REMARK    1  A    between atoms: C_1  and  O_2
REMARK    2  A    between atoms: O_2  and  C_3
REMARK    3  A    between atoms: C_8  and  C_9
REMARK    4  A    between atoms: C_9  and  N_10
REMARK    5  A    between atoms: C_9  and  C_20
REMARK    6  A    between atoms: C_11  and  C_13
REMARK    7  A    between atoms: C_13  and  C_14
REMARK    8  A    between atoms: C_17  and  C_18
REMARK                            x       y       z     vdW  Elec       q    Type
REMARK                         _______ _______ _______ _____ _____    ______ ____
ROOT
ATOM      1  C   UNL     1       4.292   5.206  18.319  0.00  0.00    +0.000 C 
ENDROOT
BRANCH   1   7
ATOM      2  C   UNL     1       2.686   6.032  20.123  0.00  0.00    +0.000 A 
ATOM      3  C   UNL     1       1.717   6.942  20.556  0.00  0.00    +0.000 A 
ATOM      4  C   UNL     1       1.437   8.091  19.814  0.00  0.00    +0.000 A 
ATOM      5  C   UNL     1       2.140   8.355  18.646  0.00  0.00    +0.000 A 
ATOM      6  C   UNL     1       3.107   7.458  18.204  0.00  0.00    +0.000 A 
ATOM      7  C   UNL     1       3.362   6.263  18.909  0.00  0.00    +0.000 A 
BRANCH   2   9
ATOM      8  C   UNL     1       1.867   4.063  21.172  0.00  0.00    +0.000 C 
ATOM      9  O   UNL     1       2.982   4.862  20.779  0.00  0.00    +0.000 OA
ENDBRANCH   2   9
ENDBRANCH   1   7
BRANCH   1  10
ATOM     10  C   UNL     1       3.585   3.919  18.047  0.00  0.00    +0.000 A 
ATOM     11  C   UNL     1       2.387   3.637  17.420  0.00  0.00    +0.000 A 
ATOM     12  C   UNL     1       2.185   2.242  17.542  0.00  0.00    +0.000 A 
ATOM     13  C   UNL     1       3.293   1.755  18.202  0.00  0.00    +0.000 A 
ATOM     14  O   UNL     1       4.152   2.762  18.505  0.00  0.00    +0.000 OA
ENDBRANCH   1  10
BRANCH   1  15
ATOM     15  N   UNL     1       5.452   4.965  19.171  0.00  0.00    +0.000 N 
ATOM     16  C   UNL     1       6.661   5.608  19.111  0.00  0.00    +0.000 C 
ATOM     17  O   UNL     1       7.511   5.349  19.969  0.00  0.00    +0.000 OA
ATOM     18  H   UNL     1       5.340   4.318  19.942  0.00  0.00    +0.000 HD
BRANCH  16  19
ATOM     19  C   UNL     1       6.895   6.658  18.044  0.00  0.00    +0.000 C 
BRANCH  19  20
ATOM     20  C   UNL     1       6.358   6.182  16.766  0.00  0.00    +0.000 A 
ATOM     21  N   UNL     1       5.651   6.835  15.866  0.00  0.00    +0.000 NA
ATOM     22  N   UNL     1       5.523   5.988  14.787  0.00  0.00    +0.000 NA
ATOM     23  C   UNL     1       6.166   4.886  15.105  0.00  0.00    +0.000 A 
ATOM     24  C   UNL     1       6.379   3.660  14.326  0.00  0.00    +0.000 C 
ATOM     25  O   UNL     1       6.736   4.936  16.347  0.00  0.00    +0.000 OA
ENDBRANCH  19  20
ENDBRANCH  16  19
ENDBRANCH   1  15
TORSDOF 6
ENDMDL
MODEL 8
REMARK VINA RESULT:      -6.9      2.476      5.806
REMARK  Name = 
REMARK  8 active torsions:
REMARK  status: ('A' for Active; 'I' for Inactive)
REMARK    1  A    between atoms: C_1  and  O_2
REMARK    2  A    between atoms: O_2  and  C_3
REMARK    3  A    between atoms: C_8  and  C_9
REMARK    4  A    between atoms: C_9  and  N_10
REMARK    5  A    between atoms: C_9  and  C_20
REMARK    6  A    between atoms: C_11  and  C_13
REMARK    7  A    between atoms: C_13  and  C_14
REMARK    8  A    between atoms: C_17  and  C_18
REMARK                            x       y       z     vdW  Elec       q    Type
REMARK                         _______ _______ _______ _____ _____    ______ ____
ROOT
ATOM      1  C   UNL     1       4.487   4.902  17.532  0.00  0.00    +0.000 C 
ENDROOT
BRANCH   1   7
ATOM      2  C   UNL     1       6.726   5.506  16.466  0.00  0.00    +0.000 A 
ATOM      3  C   UNL     1       7.569   5.527  15.350  0.00  0.00    +0.000 A 
ATOM      4  C   UNL     1       7.231   4.829  14.189  0.00  0.00    +0.000 A 
ATOM      5  C   UNL     1       6.061   4.083  14.140  0.00  0.00    +0.000 A 
ATOM      6  C   UNL     1       5.213   4.053  15.243  0.00  0.00    +0.000 A 
ATOM      7  C   UNL     1       5.509   4.799  16.403  0.00  0.00    +0.000 A 
BRANCH   2   9
ATOM      8  C   UNL     1       7.536   7.505  17.464  0.00  0.00    +0.000 C 
ATOM      9  O   UNL     1       6.974   6.203  17.622  0.00  0.00    +0.000 OA
ENDBRANCH   2   9
ENDBRANCH   1   7
BRANCH   1  10
ATOM     10  C   UNL     1       3.718   3.635  17.716  0.00  0.00    +0.000 A 
ATOM     11  C   UNL     1       2.471   3.238  17.276  0.00  0.00    +0.000 A 
ATOM     12  C   UNL     1       2.231   1.962  17.839  0.00  0.00    +0.000 A 
ATOM     13  C   UNL     1       3.364   1.645  18.557  0.00  0.00    +0.000 A 
ATOM     14  O   UNL     1       4.276   2.648  18.482  0.00  0.00    +0.000 OA
ENDBRANCH   1  10
BRANCH   1  15
ATOM     15  N   UNL     1       3.567   6.017  17.333  0.00  0.00    +0.000 N 
ATOM     16  C   UNL     1       2.979   6.779  18.309  0.00  0.00    +0.000 C 
ATOM     17  O   UNL     1       2.295   7.750  17.968  0.00  0.00    +0.000 OA
ATOM     18  H   UNL     1       3.400   6.322  16.382  0.00  0.00    +0.000 HD
BRANCH  16  19
ATOM     19  C   UNL     1       3.237   6.455  19.766  0.00  0.00    +0.000 C 
BRANCH  19  20
ATOM     20  C   UNL     1       2.298   5.420  20.208  0.00  0.00    +0.000 A 
ATOM     21  N   UNL     1       1.053   5.209  19.830  0.00  0.00    +0.000 NA
ATOM     22  N   UNL     1       0.661   4.032  20.428  0.00  0.00    +0.000 NA
ATOM     23  C   UNL     1       1.697   3.607  21.119  0.00  0.00    +0.000 A 
ATOM     24  C   UNL     1       1.856   2.394  21.930  0.00  0.00    +0.000 C 
ATOM     25  O   UNL     1       2.783   4.431  21.019  0.00  0.00    +0.000 OA
ENDBRANCH  19  20
ENDBRANCH  16  19
ENDBRANCH   1  15
TORSDOF 6
ENDMDL
MODEL 9
REMARK VINA RESULT:      -6.9      3.011      5.639
REMARK  Name = 
REMARK  8 active torsions:
REMARK  status: ('A' for Active; 'I' for Inactive)
REMARK    1  A    between atoms: C_1  and  O_2
REMARK    2  A    between atoms: O_2  and  C_3
REMARK    3  A    between atoms: C_8  and  C_9
REMARK    4  A    between atoms: C_9  and  N_10
REMARK    5  A    between atoms: C_9  and  C_20
REMARK    6  A    between atoms: C_11  and  C_13
REMARK    7  A    between atoms: C_13  and  C_14
REMARK    8  A    between atoms: C_17  and  C_18
REMARK                            x       y       z     vdW  Elec       q    Type
REMARK                         _______ _______ _______ _____ _____    ______ ____
ROOT
ATOM      1  C   UNL     1       3.710   5.144  18.281  0.00  0.00    +0.000 C 
ENDROOT
BRANCH   1   7
ATOM      2  C   UNL     1       6.223   4.906  17.902  0.00  0.00    +0.000 A 
ATOM      3  C   UNL     1       7.300   4.673  17.041  0.00  0.00    +0.000 A 
ATOM      4  C   UNL     1       7.086   4.237  15.733  0.00  0.00    +0.000 A 
ATOM      5  C   UNL     1       5.794   4.005  15.278  0.00  0.00    +0.000 A 
ATOM      6  C   UNL     1       4.713   4.232  16.124  0.00  0.00    +0.000 A 
ATOM      7  C   UNL     1       4.907   4.729  17.430  0.00  0.00    +0.000 A 
BRANCH   2   9
ATOM      8  C   UNL     1       7.681   5.725  19.589  0.00  0.00    +0.000 C 
ATOM      9  O   UNL     1       6.359   5.376  19.184  0.00  0.00    +0.000 OA
ENDBRANCH   2   9
ENDBRANCH   1   7
BRANCH   1  10
ATOM     10  C   UNL     1       2.746   4.021  18.485  0.00  0.00    +0.000 A 
ATOM     11  C   UNL     1       1.432   3.849  18.097  0.00  0.00    +0.000 A 
ATOM     12  C   UNL     1       1.002   2.623  18.656  0.00  0.00    +0.000 A 
ATOM     13  C   UNL     1       2.094   2.105  19.319  0.00  0.00    +0.000 A 
ATOM     14  O   UNL     1       3.160   2.940  19.214  0.00  0.00    +0.000 OA
ENDBRANCH   1  10
BRANCH   1  15
ATOM     15  N   UNL     1       3.018   6.298  17.720  0.00  0.00    +0.000 N 
ATOM     16  C   UNL     1       2.379   7.290  18.417  0.00  0.00    +0.000 C 
ATOM     17  O   UNL     1       1.920   8.251  17.791  0.00  0.00    +0.000 OA
ATOM     18  H   UNL     1       3.076   6.438  16.718  0.00  0.00    +0.000 HD
BRANCH  16  19
ATOM     19  C   UNL     1       2.313   7.216  19.928  0.00  0.00    +0.000 C 
BRANCH  19  20
ATOM     20  C   UNL     1       1.511   8.333  20.436  0.00  0.00    +0.000 A 
ATOM     21  N   UNL     1       0.960   9.331  19.774  0.00  0.00    +0.000 NA
ATOM     22  N   UNL     1       0.194  10.023  20.686  0.00  0.00    +0.000 NA
ATOM     23  C   UNL     1       0.327   9.393  21.833  0.00  0.00    +0.000 A 
ATOM     24  C   UNL     1      -0.283   9.672  23.139  0.00  0.00    +0.000 C 
ATOM     25  O   UNL     1       1.141   8.298  21.753  0.00  0.00    +0.000 OA
ENDBRANCH  19  20
ENDBRANCH  16  19
ENDBRANCH   1  15
TORSDOF 6
ENDMDL
