MODEL 1
REMARK VINA RESULT:      -6.4      0.000      0.000
REMARK  Name = 
REMARK  6 active torsions:
REMARK  status: ('A' for Active; 'I' for Inactive)
REMARK    1  A    between atoms: C_1  and  N_2
REMARK    2  A    between atoms: C_5  and  N_6
REMARK    3  A    between atoms: N_9  and  C_10
REMARK    4  A    between atoms: C_17  and  C_18
REMARK    5  A    between atoms: N_22  and  C_23
REMARK    6  A    between atoms: N_22  and  C_24
REMARK                            x       y       z     vdW  Elec       q    Type
REMARK                         _______ _______ _______ _____ _____    ______ ____
ROOT
ATOM      1  N   UNL     1       1.034  15.648  21.588  0.00  0.00    +0.000 N 
ATOM      2  C   UNL     1       0.974  17.037  21.890  0.00  0.00    +0.000 A 
ATOM      3  O   UNL     1       1.689  17.931  21.468  0.00  0.00    +0.000 OA
ATOM      4  N   UNL     1      -0.085  17.202  22.788  0.00  0.00    +0.000 N 
ATOM      5  C   UNL     1      -0.507  18.450  23.358  0.00  0.00    +0.000 C 
ATOM      6  C   UNL     1      -0.665  15.961  23.042  0.00  0.00    +0.000 A 
ATOM      7  C   UNL     1      -1.715  15.650  23.855  0.00  0.00    +0.000 A 
ATOM      8  N   UNL     1      -2.135  14.381  23.968  0.00  0.00    +0.000 NA
ATOM      9  C   UNL     1      -1.490  13.428  23.261  0.00  0.00    +0.000 A 
ATOM     10  C   UNL     1      -1.965  12.145  23.417  0.00  0.00    +0.000 A 
ATOM     11  C   UNL     1      -1.375  11.077  22.757  0.00  0.00    +0.000 A 
ATOM     12  C   UNL     1      -0.280  11.309  21.935  0.00  0.00    +0.000 A 
ATOM     13  N   UNL     1       0.200  12.571  21.731  0.00  0.00    +0.000 NA
ATOM     14  C   UNL     1      -0.384  13.626  22.389  0.00  0.00    +0.000 A 
ATOM     15  C   UNL     1       0.006  14.969  22.311  0.00  0.00    +0.000 A 
ENDROOT
BRANCH  12  16
ATOM     16  C   UNL     1       0.426  10.193  21.280  0.00  0.00    +0.000 A 
ATOM     17  C   UNL     1       0.607   8.951  21.880  0.00  0.00    +0.000 A 
ATOM     18  C   UNL     1       1.253   7.913  21.188  0.00  0.00    +0.000 A 
ATOM     19  C   UNL     1       1.731   8.101  19.888  0.00  0.00    +0.000 A 
ATOM     20  N   UNL     1       2.239   7.055  19.129  0.00  0.00    +0.000 N 
ATOM     21  C   UNL     1       3.016   5.983  19.735  0.00  0.00    +0.000 C 
ATOM     22  C   UNL     1       2.572   7.338  17.734  0.00  0.00    +0.000 C 
ATOM     23  N   UNL     1       1.591   9.312  19.313  0.00  0.00    +0.000 NA
ATOM     24  C   UNL     1       0.955  10.300  19.996  0.00  0.00    +0.000 A 
ENDBRANCH  12  16
BRANCH   1  29
ATOM     25  C   UNL     1       5.235  14.942  17.820  0.00  0.00    +0.000 C 
ATOM     26  N   UNL     1       4.214  15.395  18.762  0.00  0.00    +0.000 NA
ATOM     27  C   UNL     1       2.872  15.031  18.294  0.00  0.00    +0.000 C 
ATOM     28  C   UNL     1       1.793  15.559  19.236  0.00  0.00    +0.000 C 
ATOM     29  C   UNL     1       2.013  15.070  20.677  0.00  0.00    +0.000 C 
ATOM     30  C   UNL     1       3.451  15.389  21.116  0.00  0.00    +0.000 C 
ATOM     31  C   UNL     1       4.474  14.868  20.107  0.00  0.00    +0.000 C 
ENDBRANCH   1  29
TORSDOF 2
ENDMDL
MODEL 2
REMARK VINA RESULT:      -6.3      0.542      1.070
REMARK  Name = 
REMARK  6 active torsions:
REMARK  status: ('A' for Active; 'I' for Inactive)
REMARK    1  A    between atoms: C_1  and  N_2
REMARK    2  A    between atoms: C_5  and  N_6
REMARK    3  A    between atoms: N_9  and  C_10
REMARK    4  A    between atoms: C_17  and  C_18
REMARK    5  A    between atoms: N_22  and  C_23
REMARK    6  A    between atoms: N_22  and  C_24
REMARK                            x       y       z     vdW  Elec       q    Type
REMARK                         _______ _______ _______ _____ _____    ______ ____
ROOT
ATOM      1  N   UNL     1       0.975  15.569  21.654  0.00  0.00    +0.000 N 
ATOM      2  C   UNL     1       0.929  16.946  22.008  0.00  0.00    +0.000 A 
ATOM      3  O   UNL     1       1.635  17.852  21.600  0.00  0.00    +0.000 OA
ATOM      4  N   UNL     1      -0.103  17.080  22.942  0.00  0.00    +0.000 N 
ATOM      5  C   UNL     1      -0.504  18.307  23.569  0.00  0.00    +0.000 C 
ATOM      6  C   UNL     1      -0.680  15.832  23.166  0.00  0.00    +0.000 A 
ATOM      7  C   UNL     1      -1.708  15.494  23.997  0.00  0.00    +0.000 A 
ATOM      8  N   UNL     1      -2.130  14.224  24.075  0.00  0.00    +0.000 NA
ATOM      9  C   UNL     1      -1.509  13.296  23.315  0.00  0.00    +0.000 A 
ATOM     10  C   UNL     1      -1.985  12.009  23.437  0.00  0.00    +0.000 A 
ATOM     11  C   UNL     1      -1.418  10.964  22.721  0.00  0.00    +0.000 A 
ATOM     12  C   UNL     1      -0.346  11.224  21.877  0.00  0.00    +0.000 A 
ATOM     13  N   UNL     1       0.133  12.490  21.706  0.00  0.00    +0.000 NA
ATOM     14  C   UNL     1      -0.428  13.522  22.419  0.00  0.00    +0.000 A 
ATOM     15  C   UNL     1      -0.034  14.866  22.380  0.00  0.00    +0.000 A 
ENDROOT
BRANCH  12  16
ATOM     16  C   UNL     1       0.336  10.131  21.161  0.00  0.00    +0.000 A 
ATOM     17  C   UNL     1       0.849  10.267  19.875  0.00  0.00    +0.000 A 
ATOM     18  C   UNL     1       1.526   9.199  19.261  0.00  0.00    +0.000 A 
ATOM     19  C   UNL     1       1.696   7.979  19.920  0.00  0.00    +0.000 A 
ATOM     20  N   UNL     1       2.485   6.962  19.399  0.00  0.00    +0.000 N 
ATOM     21  C   UNL     1       2.543   6.703  17.968  0.00  0.00    +0.000 C 
ATOM     22  C   UNL     1       2.711   5.789  20.243  0.00  0.00    +0.000 C 
ATOM     23  N   UNL     1       1.171   7.828  21.153  0.00  0.00    +0.000 NA
ATOM     24  C   UNL     1       0.529   8.875  21.732  0.00  0.00    +0.000 A 
ENDBRANCH  12  16
BRANCH   1  29
ATOM     25  C   UNL     1       5.122  14.981  17.805  0.00  0.00    +0.000 C 
ATOM     26  N   UNL     1       4.124  15.403  18.788  0.00  0.00    +0.000 NA
ATOM     27  C   UNL     1       2.767  15.125  18.307  0.00  0.00    +0.000 C 
ATOM     28  C   UNL     1       1.715  15.624  19.294  0.00  0.00    +0.000 C 
ATOM     29  C   UNL     1       1.925  15.022  20.694  0.00  0.00    +0.000 C 
ATOM     30  C   UNL     1       3.377  15.252  21.141  0.00  0.00    +0.000 C 
ATOM     31  C   UNL     1       4.372  14.769  20.088  0.00  0.00    +0.000 C 
ENDBRANCH   1  29
TORSDOF 2
ENDMDL
MODEL 3
REMARK VINA RESULT:      -6.3      3.849      7.022
REMARK  Name = 
REMARK  6 active torsions:
REMARK  status: ('A' for Active; 'I' for Inactive)
REMARK    1  A    between atoms: C_1  and  N_2
REMARK    2  A    between atoms: C_5  and  N_6
REMARK    3  A    between atoms: N_9  and  C_10
REMARK    4  A    between atoms: C_17  and  C_18
REMARK    5  A    between atoms: N_22  and  C_23
REMARK    6  A    between atoms: N_22  and  C_24
REMARK                            x       y       z     vdW  Elec       q    Type
REMARK                         _______ _______ _______ _____ _____    ______ ____
ROOT
ATOM      1  N   UNL     1      -4.590  13.475  21.724  0.00  0.00    +0.000 N 
ATOM      2  C   UNL     1      -5.959  13.329  22.085  0.00  0.00    +0.000 A 
ATOM      3  O   UNL     1      -6.539  13.804  23.046  0.00  0.00    +0.000 OA
ATOM      4  N   UNL     1      -6.540  12.513  21.109  0.00  0.00    +0.000 N 
ATOM      5  C   UNL     1      -7.916  12.105  21.076  0.00  0.00    +0.000 C 
ATOM      6  C   UNL     1      -5.571  12.159  20.174  0.00  0.00    +0.000 A 
ATOM      7  C   UNL     1      -5.689  11.376  19.063  0.00  0.00    +0.000 A 
ATOM      8  N   UNL     1      -4.628  11.150  18.274  0.00  0.00    +0.000 NA
ATOM      9  C   UNL     1      -3.448  11.714  18.612  0.00  0.00    +0.000 A 
ATOM     10  C   UNL     1      -2.395  11.447  17.764  0.00  0.00    +0.000 A 
ATOM     11  C   UNL     1      -1.128  11.954  18.014  0.00  0.00    +0.000 A 
ATOM     12  C   UNL     1      -0.921  12.736  19.143  0.00  0.00    +0.000 A 
ATOM     13  N   UNL     1      -1.946  13.048  19.989  0.00  0.00    +0.000 NA
ATOM     14  C   UNL     1      -3.199  12.540  19.741  0.00  0.00    +0.000 A 
ATOM     15  C   UNL     1      -4.343  12.741  20.525  0.00  0.00    +0.000 A 
ENDROOT
BRANCH  12  16
ATOM     16  C   UNL     1       0.425  13.227  19.487  0.00  0.00    +0.000 A 
ATOM     17  C   UNL     1       1.284  13.806  18.559  0.00  0.00    +0.000 A 
ATOM     18  C   UNL     1       2.541  14.292  18.957  0.00  0.00    +0.000 A 
ATOM     19  C   UNL     1       2.960  14.204  20.287  0.00  0.00    +0.000 A 
ATOM     20  N   UNL     1       4.128  14.806  20.736  0.00  0.00    +0.000 N 
ATOM     21  C   UNL     1       5.319  14.870  19.901  0.00  0.00    +0.000 C 
ATOM     22  C   UNL     1       4.391  14.774  22.174  0.00  0.00    +0.000 C 
ATOM     23  N   UNL     1       2.148  13.611  21.186  0.00  0.00    +0.000 NA
ATOM     24  C   UNL     1       0.933  13.157  20.783  0.00  0.00    +0.000 A 
ENDBRANCH  12  16
BRANCH   1  29
ATOM     25  C   UNL     1      -2.206  16.895  25.593  0.00  0.00    +0.000 C 
ATOM     26  N   UNL     1      -3.055  16.066  24.739  0.00  0.00    +0.000 NA
ATOM     27  C   UNL     1      -3.069  16.575  23.364  0.00  0.00    +0.000 C 
ATOM     28  C   UNL     1      -4.006  15.757  22.479  0.00  0.00    +0.000 C 
ATOM     29  C   UNL     1      -3.640  14.263  22.498  0.00  0.00    +0.000 C 
ATOM     30  C   UNL     1      -3.550  13.774  23.951  0.00  0.00    +0.000 C 
ATOM     31  C   UNL     1      -2.630  14.662  24.787  0.00  0.00    +0.000 C 
ENDBRANCH   1  29
TORSDOF 2
ENDMDL
MODEL 4
REMARK VINA RESULT:      -6.2      3.788      7.514
REMARK  Name = 
REMARK  6 active torsions:
REMARK  status: ('A' for Active; 'I' for Inactive)
REMARK    1  A    between atoms: C_1  and  N_2
REMARK    2  A    between atoms: C_5  and  N_6
REMARK    3  A    between atoms: N_9  and  C_10
REMARK    4  A    between atoms: C_17  and  C_18
REMARK    5  A    between atoms: N_22  and  C_23
REMARK    6  A    between atoms: N_22  and  C_24
REMARK                            x       y       z     vdW  Elec       q    Type
REMARK                         _______ _______ _______ _____ _____    ______ ____
ROOT
ATOM      1  N   UNL     1      -2.260  12.551  19.309  0.00  0.00    +0.000 N 
ATOM      2  C   UNL     1      -2.377  11.866  18.068  0.00  0.00    +0.000 A 
ATOM      3  O   UNL     1      -1.509  11.657  17.238  0.00  0.00    +0.000 OA
ATOM      4  N   UNL     1      -3.713  11.464  17.963  0.00  0.00    +0.000 N 
ATOM      5  C   UNL     1      -4.278  10.734  16.865  0.00  0.00    +0.000 C 
ATOM      6  C   UNL     1      -4.406  11.884  19.096  0.00  0.00    +0.000 A 
ATOM      7  C   UNL     1      -5.722  11.716  19.413  0.00  0.00    +0.000 A 
ATOM      8  N   UNL     1      -6.210  12.196  20.567  0.00  0.00    +0.000 NA
ATOM      9  C   UNL     1      -5.366  12.849  21.396  0.00  0.00    +0.000 A 
ATOM     10  C   UNL     1      -5.924  13.319  22.564  0.00  0.00    +0.000 A 
ATOM     11  C   UNL     1      -5.164  14.021  23.489  0.00  0.00    +0.000 A 
ATOM     12  C   UNL     1      -3.822  14.259  23.223  0.00  0.00    +0.000 A 
ATOM     13  N   UNL     1      -3.227  13.782  22.091  0.00  0.00    +0.000 NA
ATOM     14  C   UNL     1      -3.983  13.091  21.175  0.00  0.00    +0.000 A 
ATOM     15  C   UNL     1      -3.532  12.565  19.958  0.00  0.00    +0.000 A 
ENDROOT
BRANCH  12  16
ATOM     16  C   UNL     1      -3.000  15.069  24.140  0.00  0.00    +0.000 A 
ATOM     17  C   UNL     1      -3.401  16.309  24.627  0.00  0.00    +0.000 A 
ATOM     18  C   UNL     1      -2.591  17.015  25.532  0.00  0.00    +0.000 A 
ATOM     19  C   UNL     1      -1.367  16.495  25.961  0.00  0.00    +0.000 A 
ATOM     20  N   UNL     1      -0.617  17.099  26.963  0.00  0.00    +0.000 N 
ATOM     21  C   UNL     1      -0.554  18.547  27.096  0.00  0.00    +0.000 C 
ATOM     22  C   UNL     1       0.571  16.389  27.432  0.00  0.00    +0.000 C 
ATOM     23  N   UNL     1      -0.954  15.311  25.466  0.00  0.00    +0.000 NA
ATOM     24  C   UNL     1      -1.757  14.640  24.600  0.00  0.00    +0.000 A 
ENDBRANCH  12  16
BRANCH   1  29
ATOM     25  C   UNL     1       3.182  14.120  19.833  0.00  0.00    +0.000 C 
ATOM     26  N   UNL     1       1.869  13.597  19.461  0.00  0.00    +0.000 NA
ATOM     27  C   UNL     1       1.384  12.640  20.461  0.00  0.00    +0.000 C 
ATOM     28  C   UNL     1       0.044  12.037  20.049  0.00  0.00    +0.000 C 
ATOM     29  C   UNL     1      -1.010  13.127  19.789  0.00  0.00    +0.000 C 
ATOM     30  C   UNL     1      -0.448  14.162  18.802  0.00  0.00    +0.000 C 
ATOM     31  C   UNL     1       0.911  14.691  19.256  0.00  0.00    +0.000 C 
ENDBRANCH   1  29
TORSDOF 2
ENDMDL
MODEL 5
REMARK VINA RESULT:      -6.2      4.683      8.231
REMARK  Name = 
REMARK  6 active torsions:
REMARK  status: ('A' for Active; 'I' for Inactive)
REMARK    1  A    between atoms: C_1  and  N_2
REMARK    2  A    between atoms: C_5  and  N_6
REMARK    3  A    between atoms: N_9  and  C_10
REMARK    4  A    between atoms: C_17  and  C_18
REMARK    5  A    between atoms: N_22  and  C_23
REMARK    6  A    between atoms: N_22  and  C_24
REMARK                            x       y       z     vdW  Elec       q    Type
REMARK                         _______ _______ _______ _____ _____    ______ ____
ROOT
ATOM      1  N   UNL     1       9.356  14.796  19.760  0.00  0.00    +0.000 N 
ATOM      2  C   UNL     1      10.738  15.126  19.833  0.00  0.00    +0.000 A 
ATOM      3  O   UNL     1      11.696  14.375  19.767  0.00  0.00    +0.000 OA
ATOM      4  N   UNL     1      10.805  16.513  20.004  0.00  0.00    +0.000 N 
ATOM      5  C   UNL     1      12.012  17.279  20.123  0.00  0.00    +0.000 C 
ATOM      6  C   UNL     1       9.513  17.031  20.039  0.00  0.00    +0.000 A 
ATOM      7  C   UNL     1       9.105  18.324  20.193  0.00  0.00    +0.000 A 
ATOM      8  N   UNL     1       7.800  18.630  20.198  0.00  0.00    +0.000 NA
ATOM      9  C   UNL     1       6.907  17.627  20.050  0.00  0.00    +0.000 A 
ATOM     10  C   UNL     1       5.581  18.002  20.064  0.00  0.00    +0.000 A 
ATOM     11  C   UNL     1       4.570  17.060  19.939  0.00  0.00    +0.000 A 
ATOM     12  C   UNL     1       4.904  15.718  19.809  0.00  0.00    +0.000 A 
ATOM     13  N   UNL     1       6.206  15.312  19.761  0.00  0.00    +0.000 NA
ATOM     14  C   UNL     1       7.206  16.246  19.889  0.00  0.00    +0.000 A 
ATOM     15  C   UNL     1       8.583  15.990  19.889  0.00  0.00    +0.000 A 
ENDROOT
BRANCH  12  16
ATOM     16  C   UNL     1       3.860  14.680  19.756  0.00  0.00    +0.000 A 
ATOM     17  C   UNL     1       3.381  14.143  18.565  0.00  0.00    +0.000 A 
ATOM     18  C   UNL     1       2.412  13.125  18.581  0.00  0.00    +0.000 A 
ATOM     19  C   UNL     1       1.905  12.631  19.785  0.00  0.00    +0.000 A 
ATOM     20  N   UNL     1       1.061  11.529  19.835  0.00  0.00    +0.000 N 
ATOM     21  C   UNL     1       0.062  11.289  18.803  0.00  0.00    +0.000 C 
ATOM     22  C   UNL     1       0.712  11.010  21.157  0.00  0.00    +0.000 C 
ATOM     23  N   UNL     1       2.338  13.171  20.942  0.00  0.00    +0.000 NA
ATOM     24  C   UNL     1       3.281  14.147  20.906  0.00  0.00    +0.000 A 
ENDBRANCH  12  16
BRANCH   1  29
ATOM     25  C   UNL     1       8.999   9.219  18.698  0.00  0.00    +0.000 C 
ATOM     26  N   UNL     1       9.362  10.619  18.913  0.00  0.00    +0.000 NA
ATOM     27  C   UNL     1       8.661  11.493  17.967  0.00  0.00    +0.000 C 
ATOM     28  C   UNL     1       9.083  12.949  18.137  0.00  0.00    +0.000 C 
ATOM     29  C   UNL     1       8.868  13.434  19.581  0.00  0.00    +0.000 C 
ATOM     30  C   UNL     1       9.541  12.459  20.558  0.00  0.00    +0.000 C 
ATOM     31  C   UNL     1       9.104  11.017  20.303  0.00  0.00    +0.000 C 
ENDBRANCH   1  29
TORSDOF 2
ENDMDL
MODEL 6
REMARK VINA RESULT:      -6.2      3.547      7.142
REMARK  Name = 
REMARK  6 active torsions:
REMARK  status: ('A' for Active; 'I' for Inactive)
REMARK    1  A    between atoms: C_1  and  N_2
REMARK    2  A    between atoms: C_5  and  N_6
REMARK    3  A    between atoms: N_9  and  C_10
REMARK    4  A    between atoms: C_17  and  C_18
REMARK    5  A    between atoms: N_22  and  C_23
REMARK    6  A    between atoms: N_22  and  C_24
REMARK                            x       y       z     vdW  Elec       q    Type
REMARK                         _______ _______ _______ _____ _____    ______ ____
ROOT
ATOM      1  N   UNL     1      -2.149  12.625  19.524  0.00  0.00    +0.000 N 
ATOM      2  C   UNL     1      -2.509  11.948  18.326  0.00  0.00    +0.000 A 
ATOM      3  O   UNL     1      -1.808  11.706  17.358  0.00  0.00    +0.000 OA
ATOM      4  N   UNL     1      -3.857  11.599  18.458  0.00  0.00    +0.000 N 
ATOM      5  C   UNL     1      -4.634  10.894  17.479  0.00  0.00    +0.000 C 
ATOM      6  C   UNL     1      -4.324  12.044  19.692  0.00  0.00    +0.000 A 
ATOM      7  C   UNL     1      -5.570  11.928  20.236  0.00  0.00    +0.000 A 
ATOM      8  N   UNL     1      -5.830  12.424  21.454  0.00  0.00    +0.000 NA
ATOM      9  C   UNL     1      -4.829  13.041  22.120  0.00  0.00    +0.000 A 
ATOM     10  C   UNL     1      -5.155  13.531  23.366  0.00  0.00    +0.000 A 
ATOM     11  C   UNL     1      -4.218  14.200  24.140  0.00  0.00    +0.000 A 
ATOM     12  C   UNL     1      -2.934  14.385  23.642  0.00  0.00    +0.000 A 
ATOM     13  N   UNL     1      -2.566  13.887  22.426  0.00  0.00    +0.000 NA
ATOM     14  C   UNL     1      -3.497  13.229  21.660  0.00  0.00    +0.000 A 
ATOM     15  C   UNL     1      -3.287  12.687  20.385  0.00  0.00    +0.000 A 
ENDROOT
BRANCH  12  16
ATOM     16  C   UNL     1      -1.934  15.159  24.398  0.00  0.00    +0.000 A 
ATOM     17  C   UNL     1      -2.016  15.376  25.769  0.00  0.00    +0.000 A 
ATOM     18  C   UNL     1      -1.008  16.089  26.440  0.00  0.00    +0.000 A 
ATOM     19  C   UNL     1       0.095  16.599  25.751  0.00  0.00    +0.000 A 
ATOM     20  N   UNL     1       1.174  17.177  26.407  0.00  0.00    +0.000 N 
ATOM     21  C   UNL     1       0.992  17.980  27.607  0.00  0.00    +0.000 C 
ATOM     22  C   UNL     1       2.335  17.542  25.597  0.00  0.00    +0.000 C 
ATOM     23  N   UNL     1       0.164  16.425  24.416  0.00  0.00    +0.000 NA
ATOM     24  C   UNL     1      -0.816  15.724  23.788  0.00  0.00    +0.000 A 
ENDBRANCH  12  16
BRANCH   1  29
ATOM     25  C   UNL     1       3.303  14.156  18.996  0.00  0.00    +0.000 C 
ATOM     26  N   UNL     1       1.930  13.671  18.869  0.00  0.00    +0.000 NA
ATOM     27  C   UNL     1       1.660  12.604  19.838  0.00  0.00    +0.000 C 
ATOM     28  C   UNL     1       0.250  12.044  19.669  0.00  0.00    +0.000 C 
ATOM     29  C   UNL     1      -0.813  13.149  19.775  0.00  0.00    +0.000 C 
ATOM     30  C   UNL     1      -0.464  14.294  18.811  0.00  0.00    +0.000 C 
ATOM     31  C   UNL     1       0.972  14.776  19.008  0.00  0.00    +0.000 C 
ENDBRANCH   1  29
TORSDOF 2
ENDMDL
MODEL 7
REMARK VINA RESULT:      -6.2      1.564      2.814
REMARK  Name = 
REMARK  6 active torsions:
REMARK  status: ('A' for Active; 'I' for Inactive)
REMARK    1  A    between atoms: C_1  and  N_2
REMARK    2  A    between atoms: C_5  and  N_6
REMARK    3  A    between atoms: N_9  and  C_10
REMARK    4  A    between atoms: C_17  and  C_18
REMARK    5  A    between atoms: N_22  and  C_23
REMARK    6  A    between atoms: N_22  and  C_24
REMARK                            x       y       z     vdW  Elec       q    Type
REMARK                         _______ _______ _______ _____ _____    ______ ____
ROOT
ATOM      1  N   UNL     1       0.768  13.577  21.283  0.00  0.00    +0.000 N 
ATOM      2  C   UNL     1       0.323  14.773  21.912  0.00  0.00    +0.000 A 
ATOM      3  O   UNL     1       0.712  15.913  21.721  0.00  0.00    +0.000 OA
ATOM      4  N   UNL     1      -0.670  14.397  22.823  0.00  0.00    +0.000 N 
ATOM      5  C   UNL     1      -1.398  15.291  23.677  0.00  0.00    +0.000 C 
ATOM      6  C   UNL     1      -0.839  13.016  22.767  0.00  0.00    +0.000 A 
ATOM      7  C   UNL     1      -1.690  12.222  23.479  0.00  0.00    +0.000 A 
ATOM      8  N   UNL     1      -1.710  10.895  23.281  0.00  0.00    +0.000 NA
ATOM      9  C   UNL     1      -0.865  10.373  22.365  0.00  0.00    +0.000 A 
ATOM     10  C   UNL     1      -0.930   9.006  22.205  0.00  0.00    +0.000 A 
ATOM     11  C   UNL     1      -0.100   8.350  21.307  0.00  0.00    +0.000 A 
ATOM     12  C   UNL     1       0.816   9.087  20.566  0.00  0.00    +0.000 A 
ATOM     13  N   UNL     1       0.888  10.446  20.675  0.00  0.00    +0.000 NA
ATOM     14  C   UNL     1       0.068  11.092  21.568  0.00  0.00    +0.000 A 
ATOM     15  C   UNL     1       0.040  12.471  21.818  0.00  0.00    +0.000 A 
ENDROOT
BRANCH  12  16
ATOM     16  C   UNL     1       1.769   8.420  19.662  0.00  0.00    +0.000 A 
ATOM     17  C   UNL     1       2.223   8.993  18.478  0.00  0.00    +0.000 A 
ATOM     18  C   UNL     1       3.164   8.324  17.678  0.00  0.00    +0.000 A 
ATOM     19  C   UNL     1       3.664   7.072  18.046  0.00  0.00    +0.000 A 
ATOM     20  N   UNL     1       4.700   6.457  17.354  0.00  0.00    +0.000 N 
ATOM     21  C   UNL     1       4.823   6.575  15.909  0.00  0.00    +0.000 C 
ATOM     22  C   UNL     1       5.240   5.220  17.916  0.00  0.00    +0.000 C 
ATOM     23  N   UNL     1       3.202   6.494  19.173  0.00  0.00    +0.000 NA
ATOM     24  C   UNL     1       2.300   7.162  19.938  0.00  0.00    +0.000 A 
ENDBRANCH  12  16
BRANCH   1  29
ATOM     25  C   UNL     1       4.833  15.052  17.590  0.00  0.00    +0.000 C 
ATOM     26  N   UNL     1       3.783  14.945  18.601  0.00  0.00    +0.000 NA
ATOM     27  C   UNL     1       2.535  14.453  18.009  0.00  0.00    +0.000 C 
ATOM     28  C   UNL     1       1.413  14.402  19.043  0.00  0.00    +0.000 C 
ATOM     29  C   UNL     1       1.805  13.549  20.261  0.00  0.00    +0.000 C 
ATOM     30  C   UNL     1       3.156  14.030  20.813  0.00  0.00    +0.000 C 
ATOM     31  C   UNL     1       4.219  14.096  19.717  0.00  0.00    +0.000 C 
ENDBRANCH   1  29
TORSDOF 2
ENDMDL
MODEL 8
REMARK VINA RESULT:      -6.1      3.934      7.253
REMARK  Name = 
REMARK  6 active torsions:
REMARK  status: ('A' for Active; 'I' for Inactive)
REMARK    1  A    between atoms: C_1  and  N_2
REMARK    2  A    between atoms: C_5  and  N_6
REMARK    3  A    between atoms: N_9  and  C_10
REMARK    4  A    between atoms: C_17  and  C_18
REMARK    5  A    between atoms: N_22  and  C_23
REMARK    6  A    between atoms: N_22  and  C_24
REMARK                            x       y       z     vdW  Elec       q    Type
REMARK                         _______ _______ _______ _____ _____    ______ ____
ROOT
ATOM      1  N   UNL     1      -4.718  13.251  21.597  0.00  0.00    +0.000 N 
ATOM      2  C   UNL     1      -6.045  12.971  22.029  0.00  0.00    +0.000 A 
ATOM      3  O   UNL     1      -6.620  13.396  23.016  0.00  0.00    +0.000 OA
ATOM      4  N   UNL     1      -6.590  12.090  21.089  0.00  0.00    +0.000 N 
ATOM      5  C   UNL     1      -7.917  11.545  21.130  0.00  0.00    +0.000 C 
ATOM      6  C   UNL     1      -5.638  11.827  20.107  0.00  0.00    +0.000 A 
ATOM      7  C   UNL     1      -5.733  11.024  19.007  0.00  0.00    +0.000 A 
ATOM      8  N   UNL     1      -4.696  10.898  18.166  0.00  0.00    +0.000 NA
ATOM      9  C   UNL     1      -3.564  11.582  18.439  0.00  0.00    +0.000 A 
ATOM     10  C   UNL     1      -2.534  11.413  17.539  0.00  0.00    +0.000 A 
ATOM     11  C   UNL     1      -1.314  12.049  17.720  0.00  0.00    +0.000 A 
ATOM     12  C   UNL     1      -1.130  12.860  18.833  0.00  0.00    +0.000 A 
ATOM     13  N   UNL     1      -2.136  13.075  19.729  0.00  0.00    +0.000 NA
ATOM     14  C   UNL     1      -3.342  12.441  19.550  0.00  0.00    +0.000 A 
ATOM     15  C   UNL     1      -4.459  12.534  20.390  0.00  0.00    +0.000 A 
ENDROOT
BRANCH  12  16
ATOM     16  C   UNL     1       0.176  13.488  19.104  0.00  0.00    +0.000 A 
ATOM     17  C   UNL     1       1.377  12.786  19.084  0.00  0.00    +0.000 A 
ATOM     18  C   UNL     1       2.594  13.450  19.311  0.00  0.00    +0.000 A 
ATOM     19  C   UNL     1       2.630  14.824  19.565  0.00  0.00    +0.000 A 
ATOM     20  N   UNL     1       3.823  15.530  19.646  0.00  0.00    +0.000 N 
ATOM     21  C   UNL     1       5.017  14.940  20.235  0.00  0.00    +0.000 C 
ATOM     22  C   UNL     1       3.735  16.984  19.768  0.00  0.00    +0.000 C 
ATOM     23  N   UNL     1       1.467  15.504  19.623  0.00  0.00    +0.000 NA
ATOM     24  C   UNL     1       0.302  14.845  19.390  0.00  0.00    +0.000 A 
ENDBRANCH  12  16
BRANCH   1  29
ATOM     25  C   UNL     1      -2.334  16.594  25.533  0.00  0.00    +0.000 C 
ATOM     26  N   UNL     1      -3.150  15.703  24.710  0.00  0.00    +0.000 NA
ATOM     27  C   UNL     1      -3.585  16.377  23.482  0.00  0.00    +0.000 C 
ATOM     28  C   UNL     1      -4.494  15.479  22.648  0.00  0.00    +0.000 C 
ATOM     29  C   UNL     1      -3.815  14.140  22.316  0.00  0.00    +0.000 C 
ATOM     30  C   UNL     1      -3.295  13.492  23.609  0.00  0.00    +0.000 C 
ATOM     31  C   UNL     1      -2.428  14.460  24.412  0.00  0.00    +0.000 C 
ENDBRANCH   1  29
TORSDOF 2
ENDMDL
MODEL 9
REMARK VINA RESULT:      -6.0      6.515      9.264
REMARK  Name = 
REMARK  6 active torsions:
REMARK  status: ('A' for Active; 'I' for Inactive)
REMARK    1  A    between atoms: C_1  and  N_2
REMARK    2  A    between atoms: C_5  and  N_6
REMARK    3  A    between atoms: N_9  and  C_10
REMARK    4  A    between atoms: C_17  and  C_18
REMARK    5  A    between atoms: N_22  and  C_23
REMARK    6  A    between atoms: N_22  and  C_24
REMARK                            x       y       z     vdW  Elec       q    Type
REMARK                         _______ _______ _______ _____ _____    ______ ____
ROOT
ATOM      1  N   UNL     1       8.498  16.248  19.914  0.00  0.00    +0.000 N 
ATOM      2  C   UNL     1       8.814  17.110  18.826  0.00  0.00    +0.000 A 
ATOM      3  O   UNL     1       8.453  18.260  18.647  0.00  0.00    +0.000 OA
ATOM      4  N   UNL     1       9.638  16.376  17.966  0.00  0.00    +0.000 N 
ATOM      5  C   UNL     1      10.198  16.858  16.736  0.00  0.00    +0.000 C 
ATOM      6  C   UNL     1       9.829  15.101  18.496  0.00  0.00    +0.000 A 
ATOM      7  C   UNL     1      10.552  14.059  17.994  0.00  0.00    +0.000 A 
ATOM      8  N   UNL     1      10.619  12.896  18.659  0.00  0.00    +0.000 NA
ATOM      9  C   UNL     1       9.952  12.788  19.829  0.00  0.00    +0.000 A 
ATOM     10  C   UNL     1      10.057  11.571  20.465  0.00  0.00    +0.000 A 
ATOM     11  C   UNL     1       9.403  11.331  21.665  0.00  0.00    +0.000 A 
ATOM     12  C   UNL     1       8.622  12.334  22.224  0.00  0.00    +0.000 A 
ATOM     13  N   UNL     1       8.518  13.563  21.639  0.00  0.00    +0.000 NA
ATOM     14  C   UNL     1       9.164  13.796  20.448  0.00  0.00    +0.000 A 
ATOM     15  C   UNL     1       9.134  14.986  19.709  0.00  0.00    +0.000 A 
ENDROOT
BRANCH  12  16
ATOM     16  C   UNL     1       7.847  12.094  23.455  0.00  0.00    +0.000 A 
ATOM     17  C   UNL     1       6.507  11.720  23.449  0.00  0.00    +0.000 A 
ATOM     18  C   UNL     1       5.833  11.464  24.655  0.00  0.00    +0.000 A 
ATOM     19  C   UNL     1       6.486  11.583  25.885  0.00  0.00    +0.000 A 
ATOM     20  N   UNL     1       5.890  11.196  27.078  0.00  0.00    +0.000 N 
ATOM     21  C   UNL     1       4.466  11.386  27.313  0.00  0.00    +0.000 C 
ATOM     22  C   UNL     1       6.719  11.226  28.282  0.00  0.00    +0.000 C 
ATOM     23  N   UNL     1       7.774  11.980  25.901  0.00  0.00    +0.000 NA
ATOM     24  C   UNL     1       8.410  12.212  24.723  0.00  0.00    +0.000 A 
ENDBRANCH  12  16
BRANCH   1  29
ATOM     25  C   UNL     1       5.505  16.304  24.750  0.00  0.00    +0.000 C 
ATOM     26  N   UNL     1       6.336  16.027  23.579  0.00  0.00    +0.000 NA
ATOM     27  C   UNL     1       5.551  16.129  22.345  0.00  0.00    +0.000 C 
ATOM     28  C   UNL     1       6.392  15.775  21.121  0.00  0.00    +0.000 C 
ATOM     29  C   UNL     1       7.654  16.650  21.032  0.00  0.00    +0.000 C 
ATOM     30  C   UNL     1       8.416  16.593  22.364  0.00  0.00    +0.000 C 
ATOM     31  C   UNL     1       7.504  16.916  23.547  0.00  0.00    +0.000 C 
ENDBRANCH   1  29
TORSDOF 2
ENDMDL
