MODEL 1
REMARK VINA RESULT:      -8.2      0.000      0.000
REMARK  Name = 
REMARK  8 active torsions:
REMARK  status: ('A' for Active; 'I' for Inactive)
REMARK    1  A    between atoms: C_1  and  C_2
REMARK    2  A    between atoms: C_5  and  N_6
REMARK    3  A    between atoms: N_9  and  C_10
REMARK    4  A    between atoms: C_10  and  C_11
REMARK    5  A    between atoms: C_11  and  O_12
REMARK    6  A    between atoms: C_11  and  C_13
REMARK    7  A    between atoms: C_13  and  N_14
REMARK    8  A    between atoms: C_22  and  N_23
REMARK                            x       y       z     vdW  Elec       q    Type
REMARK                         _______ _______ _______ _____ _____    ______ ____
ROOT
ATOM      1  N   UNL     1       1.384   8.770  19.950  0.00  0.00    +0.000 N 
ATOM      2  C   UNL     1       0.866   9.370  18.811  0.00  0.00    +0.000 C 
ATOM      3  O   UNL     1       1.225   9.065  17.675  0.00  0.00    +0.000 OA
ATOM      4  C   UNL     1      -0.181  10.397  19.000  0.00  0.00    +0.000 A 
ATOM      5  C   UNL     1      -0.755  10.957  17.856  0.00  0.00    +0.000 A 
ATOM      6  C   UNL     1      -1.695  11.960  17.990  0.00  0.00    +0.000 A 
ATOM      7  C   UNL     1      -2.054  12.394  19.266  0.00  0.00    +0.000 A 
ATOM      8  C   UNL     1      -1.567  11.799  20.459  0.00  0.00    +0.000 A 
ATOM      9  C   UNL     1      -1.992  12.175  21.784  0.00  0.00    +0.000 A 
ATOM     10  C   UNL     1      -1.326  11.572  22.870  0.00  0.00    +0.000 A 
ATOM     11  C   UNL     1      -0.335  10.606  22.695  0.00  0.00    +0.000 A 
ATOM     12  C   UNL     1       0.018  10.194  21.411  0.00  0.00    +0.000 A 
ATOM     13  C   UNL     1      -0.571  10.787  20.291  0.00  0.00    +0.000 A 
ATOM     14  C   UNL     1       1.020   9.106  21.253  0.00  0.00    +0.000 C 
ATOM     15  O   UNL     1       1.490   8.559  22.248  0.00  0.00    +0.000 OA
ENDROOT
BRANCH   9  16
ATOM     16  N   UNL     1      -3.032  13.071  22.041  0.00  0.00    +0.000 N 
ATOM     17  C   UNL     1      -2.786  14.488  22.345  0.00  0.00    +0.000 C 
ATOM     18  C   UNL     1      -3.319  14.838  23.735  0.00  0.00    +0.000 C 
ATOM     19  C   UNL     1      -4.796  14.473  23.862  0.00  0.00    +0.000 C 
ATOM     20  C   UNL     1      -5.005  13.002  23.534  0.00  0.00    +0.000 C 
ATOM     21  C   UNL     1      -4.427  12.633  22.172  0.00  0.00    +0.000 C 
ENDBRANCH   9  16
BRANCH   1  22
ATOM     22  C   UNL     1       2.372   7.716  19.756  0.00  0.00    +0.000 C 
BRANCH  22  23
ATOM     23  C   UNL     1       1.805   6.284  19.841  0.00  0.00    +0.000 C 
BRANCH  23  24
ATOM     24  O   UNL     1       2.223   5.723  21.098  0.00  0.00    +0.000 OA
ATOM     25  H   UNL     1       3.190   5.603  21.078  0.00  0.00    +0.000 HD
ENDBRANCH  23  24
BRANCH  23  26
ATOM     26  C   UNL     1       2.253   5.341  18.709  0.00  0.00    +0.000 C 
BRANCH  26  32
ATOM     27  C   UNL     1       5.345   5.548  18.637  0.00  0.00    +0.000 C 
ATOM     28  C   UNL     1       4.563   4.380  19.126  0.00  0.00    +0.000 A 
ATOM     29  N   UNL     1       5.112   3.268  19.577  0.00  0.00    +0.000 NA
ATOM     30  C   UNL     1       4.078   2.455  19.949  0.00  0.00    +0.000 A 
ATOM     31  C   UNL     1       2.880   3.072  19.706  0.00  0.00    +0.000 A 
ATOM     32  N   UNL     1       3.177   4.307  19.175  0.00  0.00    +0.000 N 
BRANCH  31  33
ATOM     33  N   UNL     1       1.579   2.545  19.956  0.00  0.00    +0.000 N 
ATOM     34  O   UNL     1       1.066   1.879  19.045  0.00  0.00    +0.000 OA
ATOM     35  O   UNL     1       1.057   2.792  21.051  0.00  0.00    +0.000 OA
ENDBRANCH  31  33
ENDBRANCH  26  32
ENDBRANCH  23  26
ENDBRANCH  22  23
ENDBRANCH   1  22
TORSDOF 7
ENDMDL
MODEL 2
REMARK VINA RESULT:      -8.2      0.599      1.166
REMARK  Name = 
REMARK  8 active torsions:
REMARK  status: ('A' for Active; 'I' for Inactive)
REMARK    1  A    between atoms: C_1  and  C_2
REMARK    2  A    between atoms: C_5  and  N_6
REMARK    3  A    between atoms: N_9  and  C_10
REMARK    4  A    between atoms: C_10  and  C_11
REMARK    5  A    between atoms: C_11  and  O_12
REMARK    6  A    between atoms: C_11  and  C_13
REMARK    7  A    between atoms: C_13  and  N_14
REMARK    8  A    between atoms: C_22  and  N_23
REMARK                            x       y       z     vdW  Elec       q    Type
REMARK                         _______ _______ _______ _____ _____    ______ ____
ROOT
ATOM      1  N   UNL     1       1.366   8.776  19.958  0.00  0.00    +0.000 N 
ATOM      2  C   UNL     1       0.839   9.367  18.819  0.00  0.00    +0.000 C 
ATOM      3  O   UNL     1       1.198   9.062  17.682  0.00  0.00    +0.000 OA
ATOM      4  C   UNL     1      -0.217  10.384  19.007  0.00  0.00    +0.000 A 
ATOM      5  C   UNL     1      -0.801  10.935  17.864  0.00  0.00    +0.000 A 
ATOM      6  C   UNL     1      -1.750  11.929  17.998  0.00  0.00    +0.000 A 
ATOM      7  C   UNL     1      -2.109  12.364  19.274  0.00  0.00    +0.000 A 
ATOM      8  C   UNL     1      -1.613  11.776  20.467  0.00  0.00    +0.000 A 
ATOM      9  C   UNL     1      -2.037  12.153  21.792  0.00  0.00    +0.000 A 
ATOM     10  C   UNL     1      -1.362  11.560  22.877  0.00  0.00    +0.000 A 
ATOM     11  C   UNL     1      -0.361  10.603  22.702  0.00  0.00    +0.000 A 
ATOM     12  C   UNL     1      -0.009  10.190  21.419  0.00  0.00    +0.000 A 
ATOM     13  C   UNL     1      -0.607  10.774  20.299  0.00  0.00    +0.000 A 
ATOM     14  C   UNL     1       1.003   9.113  21.260  0.00  0.00    +0.000 C 
ATOM     15  O   UNL     1       1.483   8.572  22.255  0.00  0.00    +0.000 OA
ENDROOT
BRANCH   9  16
ATOM     16  N   UNL     1      -3.085  13.039  22.049  0.00  0.00    +0.000 N 
ATOM     17  C   UNL     1      -4.491  12.611  22.040  0.00  0.00    +0.000 C 
ATOM     18  C   UNL     1      -5.277  13.374  20.972  0.00  0.00    +0.000 C 
ATOM     19  C   UNL     1      -5.138  14.882  21.163  0.00  0.00    +0.000 C 
ATOM     20  C   UNL     1      -3.669  15.279  21.171  0.00  0.00    +0.000 C 
ATOM     21  C   UNL     1      -2.868  14.484  22.197  0.00  0.00    +0.000 C 
ENDBRANCH   9  16
BRANCH   1  22
ATOM     22  C   UNL     1       2.365   7.731  19.764  0.00  0.00    +0.000 C 
BRANCH  22  23
ATOM     23  C   UNL     1       1.805   6.294  19.816  0.00  0.00    +0.000 C 
BRANCH  23  24
ATOM     24  O   UNL     1       2.197   5.719  21.075  0.00  0.00    +0.000 OA
ATOM     25  H   UNL     1       2.756   6.362  21.549  0.00  0.00    +0.000 HD
ENDBRANCH  23  24
BRANCH  23  26
ATOM     26  C   UNL     1       2.286   5.370  18.682  0.00  0.00    +0.000 C 
BRANCH  26  32
ATOM     27  C   UNL     1       5.383   5.509  18.646  0.00  0.00    +0.000 C 
ATOM     28  C   UNL     1       4.571   4.361  19.129  0.00  0.00    +0.000 A 
ATOM     29  N   UNL     1       5.091   3.238  19.589  0.00  0.00    +0.000 NA
ATOM     30  C   UNL     1       4.035   2.449  19.951  0.00  0.00    +0.000 A 
ATOM     31  C   UNL     1       2.853   3.091  19.693  0.00  0.00    +0.000 A 
ATOM     32  N   UNL     1       3.183   4.318  19.163  0.00  0.00    +0.000 N 
BRANCH  31  33
ATOM     33  N   UNL     1       1.539   2.593  19.930  0.00  0.00    +0.000 N 
ATOM     34  O   UNL     1       0.979   2.031  18.978  0.00  0.00    +0.000 OA
ATOM     35  O   UNL     1       1.052   2.759  21.056  0.00  0.00    +0.000 OA
ENDBRANCH  31  33
ENDBRANCH  26  32
ENDBRANCH  23  26
ENDBRANCH  22  23
ENDBRANCH   1  22
TORSDOF 7
ENDMDL
MODEL 3
REMARK VINA RESULT:      -8.0      1.162      2.547
REMARK  Name = 
REMARK  8 active torsions:
REMARK  status: ('A' for Active; 'I' for Inactive)
REMARK    1  A    between atoms: C_1  and  C_2
REMARK    2  A    between atoms: C_5  and  N_6
REMARK    3  A    between atoms: N_9  and  C_10
REMARK    4  A    between atoms: C_10  and  C_11
REMARK    5  A    between atoms: C_11  and  O_12
REMARK    6  A    between atoms: C_11  and  C_13
REMARK    7  A    between atoms: C_13  and  N_14
REMARK    8  A    between atoms: C_22  and  N_23
REMARK                            x       y       z     vdW  Elec       q    Type
REMARK                         _______ _______ _______ _____ _____    ______ ____
ROOT
ATOM      1  N   UNL     1       1.648   8.487  19.490  0.00  0.00    +0.000 N 
ATOM      2  C   UNL     1       1.321   8.448  20.839  0.00  0.00    +0.000 C 
ATOM      3  O   UNL     1       1.801   7.625  21.617  0.00  0.00    +0.000 OA
ATOM      4  C   UNL     1       0.374   9.467  21.338  0.00  0.00    +0.000 A 
ATOM      5  C   UNL     1       0.092   9.476  22.706  0.00  0.00    +0.000 A 
ATOM      6  C   UNL     1      -0.831  10.376  23.203  0.00  0.00    +0.000 A 
ATOM      7  C   UNL     1      -1.463  11.259  22.328  0.00  0.00    +0.000 A 
ATOM      8  C   UNL     1      -1.148  11.350  20.947  0.00  0.00    +0.000 A 
ATOM      9  C   UNL     1      -1.727  12.315  20.046  0.00  0.00    +0.000 A 
ATOM     10  C   UNL     1      -1.400  12.197  18.680  0.00  0.00    +0.000 A 
ATOM     11  C   UNL     1      -0.511  11.233  18.205  0.00  0.00    +0.000 A 
ATOM     12  C   UNL     1       0.103  10.352  19.094  0.00  0.00    +0.000 A 
ATOM     13  C   UNL     1      -0.215  10.385  20.454  0.00  0.00    +0.000 A 
ATOM     14  C   UNL     1       1.107   9.387  18.574  0.00  0.00    +0.000 C 
ATOM     15  O   UNL     1       1.414   9.405  17.384  0.00  0.00    +0.000 OA
ENDROOT
BRANCH   9  16
ATOM     16  N   UNL     1      -2.560  13.358  20.456  0.00  0.00    +0.000 N 
ATOM     17  C   UNL     1      -2.027  14.631  20.961  0.00  0.00    +0.000 C 
ATOM     18  C   UNL     1      -2.487  14.873  22.399  0.00  0.00    +0.000 C 
ATOM     19  C   UNL     1      -4.008  14.805  22.506  0.00  0.00    +0.000 C 
ATOM     20  C   UNL     1      -4.516  13.476  21.969  0.00  0.00    +0.000 C 
ATOM     21  C   UNL     1      -4.017  13.203  20.554  0.00  0.00    +0.000 C 
ENDBRANCH   9  16
BRANCH   1  22
ATOM     22  C   UNL     1       2.629   7.518  19.015  0.00  0.00    +0.000 C 
BRANCH  22  23
ATOM     23  C   UNL     1       2.221   6.044  19.219  0.00  0.00    +0.000 C 
BRANCH  23  24
ATOM     24  O   UNL     1       3.195   5.438  20.087  0.00  0.00    +0.000 OA
ATOM     25  H   UNL     1       2.783   4.673  20.528  0.00  0.00    +0.000 HD
ENDBRANCH  23  24
BRANCH  23  26
ATOM     26  C   UNL     1       2.130   5.213  17.925  0.00  0.00    +0.000 C 
BRANCH  26  32
ATOM     27  C   UNL     1       4.845   4.377  16.684  0.00  0.00    +0.000 C 
ATOM     28  C   UNL     1       3.954   3.503  17.493  0.00  0.00    +0.000 A 
ATOM     29  N   UNL     1       4.217   2.238  17.762  0.00  0.00    +0.000 NA
ATOM     30  C   UNL     1       3.185   1.791  18.539  0.00  0.00    +0.000 A 
ATOM     31  C   UNL     1       2.270   2.791  18.733  0.00  0.00    +0.000 A 
ATOM     32  N   UNL     1       2.749   3.894  18.064  0.00  0.00    +0.000 N 
BRANCH  31  33
ATOM     33  N   UNL     1       1.060   2.711  19.483  0.00  0.00    +0.000 N 
ATOM     34  O   UNL     1       0.068   2.262  18.888  0.00  0.00    +0.000 OA
ATOM     35  O   UNL     1       1.082   3.095  20.659  0.00  0.00    +0.000 OA
ENDBRANCH  31  33
ENDBRANCH  26  32
ENDBRANCH  23  26
ENDBRANCH  22  23
ENDBRANCH   1  22
TORSDOF 7
ENDMDL
MODEL 4
REMARK VINA RESULT:      -8.0      2.422      3.470
REMARK  Name = 
REMARK  8 active torsions:
REMARK  status: ('A' for Active; 'I' for Inactive)
REMARK    1  A    between atoms: C_1  and  C_2
REMARK    2  A    between atoms: C_5  and  N_6
REMARK    3  A    between atoms: N_9  and  C_10
REMARK    4  A    between atoms: C_10  and  C_11
REMARK    5  A    between atoms: C_11  and  O_12
REMARK    6  A    between atoms: C_11  and  C_13
REMARK    7  A    between atoms: C_13  and  N_14
REMARK    8  A    between atoms: C_22  and  N_23
REMARK                            x       y       z     vdW  Elec       q    Type
REMARK                         _______ _______ _______ _____ _____    ______ ____
ROOT
ATOM      1  N   UNL     1       1.719   8.045  19.216  0.00  0.00    +0.000 N 
ATOM      2  C   UNL     1       1.571   9.205  18.469  0.00  0.00    +0.000 C 
ATOM      3  O   UNL     1       1.986   9.312  17.316  0.00  0.00    +0.000 OA
ATOM      4  C   UNL     1       0.857  10.334  19.101  0.00  0.00    +0.000 A 
ATOM      5  C   UNL     1       0.645  11.481  18.332  0.00  0.00    +0.000 A 
ATOM      6  C   UNL     1       0.032  12.578  18.905  0.00  0.00    +0.000 A 
ATOM      7  C   UNL     1      -0.364  12.520  20.241  0.00  0.00    +0.000 A 
ATOM      8  C   UNL     1      -0.252  11.351  21.038  0.00  0.00    +0.000 A 
ATOM      9  C   UNL     1      -0.735  11.245  22.392  0.00  0.00    +0.000 A 
ATOM     10  C   UNL     1      -0.440  10.057  23.090  0.00  0.00    +0.000 A 
ATOM     11  C   UNL     1       0.238   8.991  22.497  0.00  0.00    +0.000 A 
ATOM     12  C   UNL     1       0.635   9.073  21.164  0.00  0.00    +0.000 A 
ATOM     13  C   UNL     1       0.416  10.242  20.431  0.00  0.00    +0.000 A 
ATOM     14  C   UNL     1       1.285   7.895  20.532  0.00  0.00    +0.000 C 
ATOM     15  O   UNL     1       1.425   6.855  21.174  0.00  0.00    +0.000 OA
ENDROOT
BRANCH   9  16
ATOM     16  N   UNL     1      -1.491  12.233  23.026  0.00  0.00    +0.000 N 
ATOM     17  C   UNL     1      -2.920  12.054  23.324  0.00  0.00    +0.000 C 
ATOM     18  C   UNL     1      -3.754  13.117  22.606  0.00  0.00    +0.000 C 
ATOM     19  C   UNL     1      -3.267  14.521  22.953  0.00  0.00    +0.000 C 
ATOM     20  C   UNL     1      -1.786  14.660  22.634  0.00  0.00    +0.000 C 
ATOM     21  C   UNL     1      -0.953  13.571  23.304  0.00  0.00    +0.000 C 
ENDBRANCH   9  16
BRANCH   1  22
ATOM     22  C   UNL     1       2.371   6.914  18.567  0.00  0.00    +0.000 C 
BRANCH  22  23
ATOM     23  C   UNL     1       3.908   7.021  18.488  0.00  0.00    +0.000 C 
BRANCH  23  24
ATOM     24  O   UNL     1       4.253   7.361  17.134  0.00  0.00    +0.000 OA
ATOM     25  H   UNL     1       3.435   7.401  16.606  0.00  0.00    +0.000 HD
ENDBRANCH  23  24
BRANCH  23  26
ATOM     26  C   UNL     1       4.667   5.740  18.882  0.00  0.00    +0.000 C 
BRANCH  26  32
ATOM     27  C   UNL     1       3.740   3.365  17.118  0.00  0.00    +0.000 C 
ATOM     28  C   UNL     1       5.029   4.096  16.984  0.00  0.00    +0.000 A 
ATOM     29  N   UNL     1       5.952   3.795  16.089  0.00  0.00    +0.000 NA
ATOM     30  C   UNL     1       6.963   4.697  16.266  0.00  0.00    +0.000 A 
ATOM     31  C   UNL     1       6.662   5.551  17.293  0.00  0.00    +0.000 A 
ATOM     32  N   UNL     1       5.425   5.174  17.765  0.00  0.00    +0.000 N 
BRANCH  31  33
ATOM     33  N   UNL     1       7.466   6.623  17.779  0.00  0.00    +0.000 N 
ATOM     34  O   UNL     1       7.437   7.677  17.127  0.00  0.00    +0.000 OA
ATOM     35  O   UNL     1       8.135   6.426  18.802  0.00  0.00    +0.000 OA
ENDBRANCH  31  33
ENDBRANCH  26  32
ENDBRANCH  23  26
ENDBRANCH  22  23
ENDBRANCH   1  22
TORSDOF 7
ENDMDL
MODEL 5
REMARK VINA RESULT:      -8.0      1.512      3.151
REMARK  Name = 
REMARK  8 active torsions:
REMARK  status: ('A' for Active; 'I' for Inactive)
REMARK    1  A    between atoms: C_1  and  C_2
REMARK    2  A    between atoms: C_5  and  N_6
REMARK    3  A    between atoms: N_9  and  C_10
REMARK    4  A    between atoms: C_10  and  C_11
REMARK    5  A    between atoms: C_11  and  O_12
REMARK    6  A    between atoms: C_11  and  C_13
REMARK    7  A    between atoms: C_13  and  N_14
REMARK    8  A    between atoms: C_22  and  N_23
REMARK                            x       y       z     vdW  Elec       q    Type
REMARK                         _______ _______ _______ _____ _____    ______ ____
ROOT
ATOM      1  N   UNL     1       1.595   8.511  19.595  0.00  0.00    +0.000 N 
ATOM      2  C   UNL     1       1.290   8.532  20.949  0.00  0.00    +0.000 C 
ATOM      3  O   UNL     1       1.799   7.759  21.759  0.00  0.00    +0.000 OA
ATOM      4  C   UNL     1       0.331   9.556  21.413  0.00  0.00    +0.000 A 
ATOM      5  C   UNL     1       0.070   9.629  22.784  0.00  0.00    +0.000 A 
ATOM      6  C   UNL     1      -0.863  10.534  23.250  0.00  0.00    +0.000 A 
ATOM      7  C   UNL     1      -1.527  11.360  22.344  0.00  0.00    +0.000 A 
ATOM      8  C   UNL     1      -1.235  11.388  20.955  0.00  0.00    +0.000 A 
ATOM      9  C   UNL     1      -1.848  12.295  20.017  0.00  0.00    +0.000 A 
ATOM     10  C   UNL     1      -1.540  12.116  18.654  0.00  0.00    +0.000 A 
ATOM     11  C   UNL     1      -0.639  11.147  18.212  0.00  0.00    +0.000 A 
ATOM     12  C   UNL     1       0.006  10.324  19.133  0.00  0.00    +0.000 A 
ATOM     13  C   UNL     1      -0.291  10.418  20.495  0.00  0.00    +0.000 A 
ATOM     14  C   UNL     1       1.021   9.353  18.645  0.00  0.00    +0.000 C 
ATOM     15  O   UNL     1       1.309   9.318  17.450  0.00  0.00    +0.000 OA
ENDROOT
BRANCH   9  16
ATOM     16  N   UNL     1      -2.695  13.341  20.389  0.00  0.00    +0.000 N 
ATOM     17  C   UNL     1      -2.179  14.647  20.825  0.00  0.00    +0.000 C 
ATOM     18  C   UNL     1      -2.625  14.948  22.257  0.00  0.00    +0.000 C 
ATOM     19  C   UNL     1      -4.143  14.858  22.388  0.00  0.00    +0.000 C 
ATOM     20  C   UNL     1      -4.633  13.495  21.922  0.00  0.00    +0.000 C 
ATOM     21  C   UNL     1      -4.147  13.164  20.514  0.00  0.00    +0.000 C 
ENDBRANCH   9  16
BRANCH   1  22
ATOM     22  C   UNL     1       2.587   7.538  19.152  0.00  0.00    +0.000 C 
BRANCH  22  23
ATOM     23  C   UNL     1       2.146   6.067  19.292  0.00  0.00    +0.000 C 
BRANCH  23  24
ATOM     24  O   UNL     1       2.737   5.547  20.496  0.00  0.00    +0.000 OA
ATOM     25  H   UNL     1       3.707   5.574  20.402  0.00  0.00    +0.000 HD
ENDBRANCH  23  24
BRANCH  23  26
ATOM     26  C   UNL     1       2.545   5.156  18.116  0.00  0.00    +0.000 C 
BRANCH  26  32
ATOM     27  C   UNL     1       0.945   2.541  18.575  0.00  0.00    +0.000 C 
ATOM     28  C   UNL     1       2.406   2.715  18.793  0.00  0.00    +0.000 A 
ATOM     29  N   UNL     1       3.200   1.758  19.237  0.00  0.00    +0.000 NA
ATOM     30  C   UNL     1       4.456   2.294  19.280  0.00  0.00    +0.000 A 
ATOM     31  C   UNL     1       4.428   3.602  18.875  0.00  0.00    +0.000 A 
ATOM     32  N   UNL     1       3.118   3.886  18.562  0.00  0.00    +0.000 N 
BRANCH  31  33
ATOM     33  N   UNL     1       5.536   4.495  18.787  0.00  0.00    +0.000 N 
ATOM     34  O   UNL     1       5.649   5.328  19.699  0.00  0.00    +0.000 OA
ATOM     35  O   UNL     1       6.294   4.382  17.815  0.00  0.00    +0.000 OA
ENDBRANCH  31  33
ENDBRANCH  26  32
ENDBRANCH  23  26
ENDBRANCH  22  23
ENDBRANCH   1  22
TORSDOF 7
ENDMDL
MODEL 6
REMARK VINA RESULT:      -7.9      1.370      2.020
REMARK  Name = 
REMARK  8 active torsions:
REMARK  status: ('A' for Active; 'I' for Inactive)
REMARK    1  A    between atoms: C_1  and  C_2
REMARK    2  A    between atoms: C_5  and  N_6
REMARK    3  A    between atoms: N_9  and  C_10
REMARK    4  A    between atoms: C_10  and  C_11
REMARK    5  A    between atoms: C_11  and  O_12
REMARK    6  A    between atoms: C_11  and  C_13
REMARK    7  A    between atoms: C_13  and  N_14
REMARK    8  A    between atoms: C_22  and  N_23
REMARK                            x       y       z     vdW  Elec       q    Type
REMARK                         _______ _______ _______ _____ _____    ______ ____
ROOT
ATOM      1  N   UNL     1       1.603   8.589  19.665  0.00  0.00    +0.000 N 
ATOM      2  C   UNL     1       1.151   9.416  18.646  0.00  0.00    +0.000 C 
ATOM      3  O   UNL     1       1.506   9.286  17.476  0.00  0.00    +0.000 OA
ATOM      4  C   UNL     1       0.180  10.470  19.007  0.00  0.00    +0.000 A 
ATOM      5  C   UNL     1      -0.332  11.262  17.977  0.00  0.00    +0.000 A 
ATOM      6  C   UNL     1      -1.198  12.294  18.280  0.00  0.00    +0.000 A 
ATOM      7  C   UNL     1      -1.546  12.526  19.611  0.00  0.00    +0.000 A 
ATOM      8  C   UNL     1      -1.125  11.697  20.683  0.00  0.00    +0.000 A 
ATOM      9  C   UNL     1      -1.543  11.868  22.052  0.00  0.00    +0.000 A 
ATOM     10  C   UNL     1      -0.942  11.037  23.018  0.00  0.00    +0.000 A 
ATOM     11  C   UNL     1      -0.022  10.044  22.681  0.00  0.00    +0.000 A 
ATOM     12  C   UNL     1       0.321   9.836  21.346  0.00  0.00    +0.000 A 
ATOM     13  C   UNL     1      -0.203  10.657  20.345  0.00  0.00    +0.000 A 
ATOM     14  C   UNL     1       1.243   8.720  21.005  0.00  0.00    +0.000 C 
ATOM     15  O   UNL     1       1.655   7.973  21.890  0.00  0.00    +0.000 OA
ENDROOT
BRANCH   9  16
ATOM     16  N   UNL     1      -2.518  12.782  22.457  0.00  0.00    +0.000 N 
ATOM     17  C   UNL     1      -2.217  14.205  22.667  0.00  0.00    +0.000 C 
ATOM     18  C   UNL     1      -2.497  14.605  24.116  0.00  0.00    +0.000 C 
ATOM     19  C   UNL     1      -3.930  14.258  24.512  0.00  0.00    +0.000 C 
ATOM     20  C   UNL     1      -4.199  12.779  24.274  0.00  0.00    +0.000 C 
ATOM     21  C   UNL     1      -3.871  12.362  22.845  0.00  0.00    +0.000 C 
ENDBRANCH   9  16
BRANCH   1  22
ATOM     22  C   UNL     1       2.515   7.513  19.293  0.00  0.00    +0.000 C 
BRANCH  22  23
ATOM     23  C   UNL     1       1.923   6.096  19.438  0.00  0.00    +0.000 C 
BRANCH  23  24
ATOM     24  O   UNL     1       2.479   5.511  20.629  0.00  0.00    +0.000 OA
ATOM     25  H   UNL     1       3.239   4.956  20.377  0.00  0.00    +0.000 HD
ENDBRANCH  23  24
BRANCH  23  26
ATOM     26  C   UNL     1       2.201   5.153  18.252  0.00  0.00    +0.000 C 
BRANCH  26  32
ATOM     27  C   UNL     1       0.651   2.525  18.799  0.00  0.00    +0.000 C 
ATOM     28  C   UNL     1       2.120   2.714  18.943  0.00  0.00    +0.000 A 
ATOM     29  N   UNL     1       2.944   1.766  19.348  0.00  0.00    +0.000 NA
ATOM     30  C   UNL     1       4.196   2.313  19.327  0.00  0.00    +0.000 A 
ATOM     31  C   UNL     1       4.134   3.620  18.919  0.00  0.00    +0.000 A 
ATOM     32  N   UNL     1       2.808   3.890  18.673  0.00  0.00    +0.000 N 
BRANCH  31  33
ATOM     33  N   UNL     1       5.228   4.523  18.773  0.00  0.00    +0.000 N 
ATOM     34  O   UNL     1       5.901   4.415  17.738  0.00  0.00    +0.000 OA
ATOM     35  O   UNL     1       5.429   5.338  19.682  0.00  0.00    +0.000 OA
ENDBRANCH  31  33
ENDBRANCH  26  32
ENDBRANCH  23  26
ENDBRANCH  22  23
ENDBRANCH   1  22
TORSDOF 7
ENDMDL
MODEL 7
REMARK VINA RESULT:      -7.9      2.449      3.992
REMARK  Name = 
REMARK  8 active torsions:
REMARK  status: ('A' for Active; 'I' for Inactive)
REMARK    1  A    between atoms: C_1  and  C_2
REMARK    2  A    between atoms: C_5  and  N_6
REMARK    3  A    between atoms: N_9  and  C_10
REMARK    4  A    between atoms: C_10  and  C_11
REMARK    5  A    between atoms: C_11  and  O_12
REMARK    6  A    between atoms: C_11  and  C_13
REMARK    7  A    between atoms: C_13  and  N_14
REMARK    8  A    between atoms: C_22  and  N_23
REMARK                            x       y       z     vdW  Elec       q    Type
REMARK                         _______ _______ _______ _____ _____    ______ ____
ROOT
ATOM      1  N   UNL     1       1.810   7.892  19.244  0.00  0.00    +0.000 N 
ATOM      2  C   UNL     1       1.312   7.733  20.530  0.00  0.00    +0.000 C 
ATOM      3  O   UNL     1       1.407   6.677  21.155  0.00  0.00    +0.000 OA
ATOM      4  C   UNL     1       0.670   8.905  21.161  0.00  0.00    +0.000 A 
ATOM      5  C   UNL     1       0.227   8.773  22.479  0.00  0.00    +0.000 A 
ATOM      6  C   UNL     1      -0.429   9.827  23.083  0.00  0.00    +0.000 A 
ATOM      7  C   UNL     1      -0.637  11.005  22.366  0.00  0.00    +0.000 A 
ATOM      8  C   UNL     1      -0.129  11.222  21.058  0.00  0.00    +0.000 A 
ATOM      9  C   UNL     1      -0.258  12.462  20.335  0.00  0.00    +0.000 A 
ATOM     10  C   UNL     1       0.193  12.479  19.001  0.00  0.00    +0.000 A 
ATOM     11  C   UNL     1       0.796  11.373  18.401  0.00  0.00    +0.000 A 
ATOM     12  C   UNL     1       0.984  10.201  19.131  0.00  0.00    +0.000 A 
ATOM     13  C   UNL     1       0.516  10.103  20.444  0.00  0.00    +0.000 A 
ATOM     14  C   UNL     1       1.699   9.063  18.496  0.00  0.00    +0.000 C 
ATOM     15  O   UNL     1       2.151   9.182  17.359  0.00  0.00    +0.000 OA
ENDROOT
BRANCH   9  16
ATOM     16  N   UNL     1      -0.773  13.635  20.891  0.00  0.00    +0.000 N 
ATOM     17  C   UNL     1       0.030  14.507  21.761  0.00  0.00    +0.000 C 
ATOM     18  C   UNL     1      -0.606  14.614  23.147  0.00  0.00    +0.000 C 
ATOM     19  C   UNL     1      -2.057  15.081  23.049  0.00  0.00    +0.000 C 
ATOM     20  C   UNL     1      -2.848  14.155  22.138  0.00  0.00    +0.000 C 
ATOM     21  C   UNL     1      -2.191  14.000  20.771  0.00  0.00    +0.000 C 
ENDBRANCH   9  16
BRANCH   1  22
ATOM     22  C   UNL     1       2.496   6.751  18.650  0.00  0.00    +0.000 C 
BRANCH  22  23
ATOM     23  C   UNL     1       4.027   6.757  18.837  0.00  0.00    +0.000 C 
BRANCH  23  24
ATOM     24  O   UNL     1       4.611   7.285  17.633  0.00  0.00    +0.000 OA
ATOM     25  H   UNL     1       3.920   7.758  17.134  0.00  0.00    +0.000 HD
ENDBRANCH  23  24
BRANCH  23  26
ATOM     26  C   UNL     1       4.650   5.377  19.122  0.00  0.00    +0.000 C 
BRANCH  26  32
ATOM     27  C   UNL     1       3.647   3.602  16.787  0.00  0.00    +0.000 C 
ATOM     28  C   UNL     1       5.041   4.083  16.975  0.00  0.00    +0.000 A 
ATOM     29  N   UNL     1       6.035   3.784  16.160  0.00  0.00    +0.000 NA
ATOM     30  C   UNL     1       7.138   4.426  16.651  0.00  0.00    +0.000 A 
ATOM     31  C   UNL     1       6.818   5.112  17.793  0.00  0.00    +0.000 A 
ATOM     32  N   UNL     1       5.476   4.898  18.013  0.00  0.00    +0.000 N 
BRANCH  31  33
ATOM     33  N   UNL     1       7.696   5.897  18.594  0.00  0.00    +0.000 N 
ATOM     34  O   UNL     1       7.856   7.077  18.248  0.00  0.00    +0.000 OA
ATOM     35  O   UNL     1       8.237   5.351  19.564  0.00  0.00    +0.000 OA
ENDBRANCH  31  33
ENDBRANCH  26  32
ENDBRANCH  23  26
ENDBRANCH  22  23
ENDBRANCH   1  22
TORSDOF 7
ENDMDL
MODEL 8
REMARK VINA RESULT:      -7.8      1.059      2.538
REMARK  Name = 
REMARK  8 active torsions:
REMARK  status: ('A' for Active; 'I' for Inactive)
REMARK    1  A    between atoms: C_1  and  C_2
REMARK    2  A    between atoms: C_5  and  N_6
REMARK    3  A    between atoms: N_9  and  C_10
REMARK    4  A    between atoms: C_10  and  C_11
REMARK    5  A    between atoms: C_11  and  O_12
REMARK    6  A    between atoms: C_11  and  C_13
REMARK    7  A    between atoms: C_13  and  N_14
REMARK    8  A    between atoms: C_22  and  N_23
REMARK                            x       y       z     vdW  Elec       q    Type
REMARK                         _______ _______ _______ _____ _____    ______ ____
ROOT
ATOM      1  N   UNL     1       1.801   8.393  19.466  0.00  0.00    +0.000 N 
ATOM      2  C   UNL     1       1.429   8.325  20.801  0.00  0.00    +0.000 C 
ATOM      3  O   UNL     1       1.871   7.475  21.573  0.00  0.00    +0.000 OA
ATOM      4  C   UNL     1       0.482   9.346  21.296  0.00  0.00    +0.000 A 
ATOM      5  C   UNL     1       0.155   9.325  22.654  0.00  0.00    +0.000 A 
ATOM      6  C   UNL     1      -0.769  10.227  23.144  0.00  0.00    +0.000 A 
ATOM      7  C   UNL     1      -1.359  11.142  22.273  0.00  0.00    +0.000 A 
ATOM      8  C   UNL     1      -0.997  11.263  20.906  0.00  0.00    +0.000 A 
ATOM      9  C   UNL     1      -1.531  12.260  20.011  0.00  0.00    +0.000 A 
ATOM     10  C   UNL     1      -1.161  12.173  18.655  0.00  0.00    +0.000 A 
ATOM     11  C   UNL     1      -0.271  11.207  18.184  0.00  0.00    +0.000 A 
ATOM     12  C   UNL     1       0.299  10.294  19.068  0.00  0.00    +0.000 A 
ATOM     13  C   UNL     1      -0.063  10.297  20.418  0.00  0.00    +0.000 A 
ATOM     14  C   UNL     1       1.304   9.326  18.557  0.00  0.00    +0.000 C 
ATOM     15  O   UNL     1       1.651   9.369  17.378  0.00  0.00    +0.000 OA
ENDROOT
BRANCH   9  16
ATOM     16  N   UNL     1      -2.360  13.306  20.422  0.00  0.00    +0.000 N 
ATOM     17  C   UNL     1      -1.823  14.568  20.952  0.00  0.00    +0.000 C 
ATOM     18  C   UNL     1      -2.305  14.795  22.386  0.00  0.00    +0.000 C 
ATOM     19  C   UNL     1      -3.829  14.741  22.466  0.00  0.00    +0.000 C 
ATOM     20  C   UNL     1      -4.340  13.423  21.903  0.00  0.00    +0.000 C 
ATOM     21  C   UNL     1      -3.820  13.164  20.493  0.00  0.00    +0.000 C 
ENDBRANCH   9  16
BRANCH   1  22
ATOM     22  C   UNL     1       2.782   7.421  18.997  0.00  0.00    +0.000 C 
BRANCH  22  23
ATOM     23  C   UNL     1       2.175   6.097  18.489  0.00  0.00    +0.000 C 
BRANCH  23  24
ATOM     24  O   UNL     1       1.701   5.366  19.634  0.00  0.00    +0.000 OA
ATOM     25  H   UNL     1       1.781   5.936  20.421  0.00  0.00    +0.000 HD
ENDBRANCH  23  24
BRANCH  23  26
ATOM     26  C   UNL     1       3.148   5.199  17.702  0.00  0.00    +0.000 C 
BRANCH  26  32
ATOM     27  C   UNL     1       5.867   5.364  19.181  0.00  0.00    +0.000 C 
ATOM     28  C   UNL     1       4.951   4.193  19.177  0.00  0.00    +0.000 A 
ATOM     29  N   UNL     1       5.208   3.059  19.801  0.00  0.00    +0.000 NA
ATOM     30  C   UNL     1       4.129   2.249  19.583  0.00  0.00    +0.000 A 
ATOM     31  C   UNL     1       3.206   2.891  18.799  0.00  0.00    +0.000 A 
ATOM     32  N   UNL     1       3.723   4.138  18.529  0.00  0.00    +0.000 N 
BRANCH  31  33
ATOM     33  N   UNL     1       1.955   2.374  18.353  0.00  0.00    +0.000 N 
ATOM     34  O   UNL     1       1.921   1.923  17.199  0.00  0.00    +0.000 OA
ATOM     35  O   UNL     1       0.999   2.416  19.139  0.00  0.00    +0.000 OA
ENDBRANCH  31  33
ENDBRANCH  26  32
ENDBRANCH  23  26
ENDBRANCH  22  23
ENDBRANCH   1  22
TORSDOF 7
ENDMDL
MODEL 9
REMARK VINA RESULT:      -7.8      1.243      1.561
REMARK  Name = 
REMARK  8 active torsions:
REMARK  status: ('A' for Active; 'I' for Inactive)
REMARK    1  A    between atoms: C_1  and  C_2
REMARK    2  A    between atoms: C_5  and  N_6
REMARK    3  A    between atoms: N_9  and  C_10
REMARK    4  A    between atoms: C_10  and  C_11
REMARK    5  A    between atoms: C_11  and  O_12
REMARK    6  A    between atoms: C_11  and  C_13
REMARK    7  A    between atoms: C_13  and  N_14
REMARK    8  A    between atoms: C_22  and  N_23
REMARK                            x       y       z     vdW  Elec       q    Type
REMARK                         _______ _______ _______ _____ _____    ______ ____
ROOT
ATOM      1  N   UNL     1       1.779   8.512  19.463  0.00  0.00    +0.000 N 
ATOM      2  C   UNL     1       1.478   9.578  18.627  0.00  0.00    +0.000 C 
ATOM      3  O   UNL     1       1.890   9.654  17.471  0.00  0.00    +0.000 OA
ATOM      4  C   UNL     1       0.600  10.638  19.166  0.00  0.00    +0.000 A 
ATOM      5  C   UNL     1       0.237  11.679  18.309  0.00  0.00    +0.000 A 
ATOM      6  C   UNL     1      -0.535  12.717  18.792  0.00  0.00    +0.000 A 
ATOM      7  C   UNL     1      -0.939  12.706  20.127  0.00  0.00    +0.000 A 
ATOM      8  C   UNL     1      -0.673  11.630  21.013  0.00  0.00    +0.000 A 
ATOM      9  C   UNL     1      -1.155  11.560  22.370  0.00  0.00    +0.000 A 
ATOM     10  C   UNL     1      -0.704  10.483  23.159  0.00  0.00    +0.000 A 
ATOM     11  C   UNL     1       0.129   9.484  22.654  0.00  0.00    +0.000 A 
ATOM     12  C   UNL     1       0.530   9.520  21.321  0.00  0.00    +0.000 A 
ATOM     13  C   UNL     1       0.156  10.585  20.498  0.00  0.00    +0.000 A 
ATOM     14  C   UNL     1       1.352   8.402  20.785  0.00  0.00    +0.000 C 
ATOM     15  O   UNL     1       1.629   7.446  21.507  0.00  0.00    +0.000 OA
ENDROOT
BRANCH   9  16
ATOM     16  N   UNL     1      -2.055  12.474  22.922  0.00  0.00    +0.000 N 
ATOM     17  C   UNL     1      -3.509  12.340  22.754  0.00  0.00    +0.000 C 
ATOM     18  C   UNL     1      -4.079  13.558  22.026  0.00  0.00    +0.000 C 
ATOM     19  C   UNL     1      -3.702  14.851  22.744  0.00  0.00    +0.000 C 
ATOM     20  C   UNL     1      -2.192  14.946  22.900  0.00  0.00    +0.000 C 
ATOM     21  C   UNL     1      -1.608  13.710  23.578  0.00  0.00    +0.000 C 
ENDBRANCH   9  16
BRANCH   1  22
ATOM     22  C   UNL     1       2.596   7.440  18.906  0.00  0.00    +0.000 C 
BRANCH  22  23
ATOM     23  C   UNL     1       2.059   6.020  19.179  0.00  0.00    +0.000 C 
BRANCH  23  24
ATOM     24  O   UNL     1       2.959   5.383  20.104  0.00  0.00    +0.000 OA
ATOM     25  H   UNL     1       3.856   5.734  19.956  0.00  0.00    +0.000 HD
ENDBRANCH  23  24
BRANCH  23  26
ATOM     26  C   UNL     1       1.926   5.127  17.930  0.00  0.00    +0.000 C 
BRANCH  26  32
ATOM     27  C   UNL     1       4.671   4.484  16.642  0.00  0.00    +0.000 C 
ATOM     28  C   UNL     1       3.864   3.555  17.478  0.00  0.00    +0.000 A 
ATOM     29  N   UNL     1       4.226   2.316  17.754  0.00  0.00    +0.000 NA
ATOM     30  C   UNL     1       3.246   1.801  18.556  0.00  0.00    +0.000 A 
ATOM     31  C   UNL     1       2.262   2.732  18.758  0.00  0.00    +0.000 A 
ATOM     32  N   UNL     1       2.645   3.861  18.070  0.00  0.00    +0.000 N 
BRANCH  31  33
ATOM     33  N   UNL     1       1.077   2.570  19.533  0.00  0.00    +0.000 N 
ATOM     34  O   UNL     1       0.082   2.132  18.938  0.00  0.00    +0.000 OA
ATOM     35  O   UNL     1       1.122   2.880  20.731  0.00  0.00    +0.000 OA
ENDBRANCH  31  33
ENDBRANCH  26  32
ENDBRANCH  23  26
ENDBRANCH  22  23
ENDBRANCH   1  22
TORSDOF 7
ENDMDL
