MODEL 1
REMARK VINA RESULT:      -6.4      0.000      0.000
REMARK  Name = 
REMARK  9 active torsions:
REMARK  status: ('A' for Active; 'I' for Inactive)
REMARK    1  A    between atoms: C_1  and  O_2
REMARK    2  A    between atoms: O_2  and  C_3
REMARK    3  A    between atoms: C_3  and  C_4
REMARK    4  A    between atoms: C_3  and  C_5
REMARK    5  A    between atoms: C_5  and  N_6
REMARK    6  A    between atoms: C_9  and  C_10
REMARK    7  A    between atoms: C_15  and  O_16
REMARK    8  A    between atoms: C_20  and  C_21
REMARK    9  A    between atoms: C_20  and  C_22
REMARK                            x       y       z     vdW  Elec       q    Type
REMARK                         _______ _______ _______ _____ _____    ______ ____
ROOT
ATOM      1  N   UNL     1       2.582   6.996  18.272  0.00  0.00    +0.000 NA
ATOM      2  C   UNL     1       1.590   6.009  17.826  0.00  0.00    +0.000 C 
ATOM      3  C   UNL     1       2.317   4.518  17.513  0.00  0.00    +0.000 C 
ATOM      4  C   UNL     1       4.066   4.241  17.881  0.00  0.00    +0.000 C 
ATOM      5  C   UNL     1       4.260   2.871  17.195  0.00  0.00    +0.000 C 
ATOM      6  C   UNL     1       5.749   4.822  17.895  0.00  0.00    +0.000 A 
ATOM      7  C   UNL     1       6.639   4.579  19.016  0.00  0.00    +0.000 A 
ATOM      8  C   UNL     1       7.602   5.527  19.452  0.00  0.00    +0.000 A 
ATOM      9  C   UNL     1       7.892   6.659  18.706  0.00  0.00    +0.000 A 
ATOM     10  C   UNL     1       7.168   6.867  17.562  0.00  0.00    +0.000 A 
ATOM     11  C   UNL     1       6.062   6.045  17.287  0.00  0.00    +0.000 A 
ATOM     12  C   UNL     1       4.856   6.718  16.826  0.00  0.00    +0.000 C 
ATOM     13  C   UNL     1       3.848   6.362  18.024  0.00  0.00    +0.000 C 
ATOM     14  C   UNL     1       4.018   4.957  19.237  0.00  0.00    +0.000 C 
ATOM     15  C   UNL     1       4.097   3.447  19.830  0.00  0.00    +0.000 C 
ATOM     16  C   UNL     1       2.977   5.371  20.331  0.00  0.00    +0.000 C 
ENDROOT
BRANCH  10  17
ATOM     17  O   UNL     1       7.345   7.998  16.823  0.00  0.00    +0.000 OA
ATOM     18  H   UNL     1       8.057   7.857  16.194  0.00  0.00    +0.000 HD
ENDBRANCH  10  17
BRANCH   1  19
ATOM     19  C   UNL     1       2.576   8.408  17.919  0.00  0.00    +0.000 C 
BRANCH  19  20
ATOM     20  C   UNL     1       1.370   9.104  18.649  0.00  0.00    +0.000 C 
ATOM     21  C   UNL     1       1.457  10.626  18.550  0.00  0.00    +0.000 C 
BRANCH  20  23
ATOM     22  C   UNL     1       0.537   9.584  20.830  0.00  0.00    +0.000 C 
ATOM     23  O   UNL     1       1.375   8.743  20.051  0.00  0.00    +0.000 OA
ENDBRANCH  20  23
ENDBRANCH  19  20
ENDBRANCH   1  19
TORSDOF 4
ENDMDL
MODEL 2
REMARK VINA RESULT:      -6.1      0.756      1.123
REMARK  Name = 
REMARK  9 active torsions:
REMARK  status: ('A' for Active; 'I' for Inactive)
REMARK    1  A    between atoms: C_1  and  O_2
REMARK    2  A    between atoms: O_2  and  C_3
REMARK    3  A    between atoms: C_3  and  C_4
REMARK    4  A    between atoms: C_3  and  C_5
REMARK    5  A    between atoms: C_5  and  N_6
REMARK    6  A    between atoms: C_9  and  C_10
REMARK    7  A    between atoms: C_15  and  O_16
REMARK    8  A    between atoms: C_20  and  C_21
REMARK    9  A    between atoms: C_20  and  C_22
REMARK                            x       y       z     vdW  Elec       q    Type
REMARK                         _______ _______ _______ _____ _____    ______ ____
ROOT
ATOM      1  N   UNL     1       2.536   6.594  18.553  0.00  0.00    +0.000 NA
ATOM      2  C   UNL     1       1.623   5.569  18.030  0.00  0.00    +0.000 C 
ATOM      3  C   UNL     1       2.480   4.244  17.430  0.00  0.00    +0.000 C 
ATOM      4  C   UNL     1       4.275   4.135  17.618  0.00  0.00    +0.000 C 
ATOM      5  C   UNL     1       4.555   2.918  16.710  0.00  0.00    +0.000 C 
ATOM      6  C   UNL     1       5.877   4.911  17.599  0.00  0.00    +0.000 A 
ATOM      7  C   UNL     1       6.888   4.616  18.598  0.00  0.00    +0.000 A 
ATOM      8  C   UNL     1       7.777   5.600  19.106  0.00  0.00    +0.000 A 
ATOM      9  C   UNL     1       7.869   6.858  18.531  0.00  0.00    +0.000 A 
ATOM     10  C   UNL     1       7.023   7.143  17.492  0.00  0.00    +0.000 A 
ATOM     11  C   UNL     1       5.994   6.241  17.172  0.00  0.00    +0.000 A 
ATOM     12  C   UNL     1       4.683   6.820  16.916  0.00  0.00    +0.000 C 
ATOM     13  C   UNL     1       3.837   6.167  18.113  0.00  0.00    +0.000 C 
ATOM     14  C   UNL     1       4.274   4.628  19.070  0.00  0.00    +0.000 C 
ATOM     15  C   UNL     1       4.575   3.068  19.407  0.00  0.00    +0.000 C 
ATOM     16  C   UNL     1       3.300   4.741  20.291  0.00  0.00    +0.000 C 
ENDROOT
BRANCH  10  17
ATOM     17  O   UNL     1       7.004   8.385  16.932  0.00  0.00    +0.000 OA
ATOM     18  H   UNL     1       6.426   8.956  17.445  0.00  0.00    +0.000 HD
ENDBRANCH  10  17
BRANCH   1  19
ATOM     19  C   UNL     1       2.341   8.032  18.432  0.00  0.00    +0.000 C 
BRANCH  19  20
ATOM     20  C   UNL     1       1.835   8.589  19.811  0.00  0.00    +0.000 C 
ATOM     21  C   UNL     1       1.421   7.460  20.755  0.00  0.00    +0.000 C 
BRANCH  20  23
ATOM     22  C   UNL     1       0.875  10.353  18.528  0.00  0.00    +0.000 C 
ATOM     23  O   UNL     1       0.685   9.443  19.601  0.00  0.00    +0.000 OA
ENDBRANCH  20  23
ENDBRANCH  19  20
ENDBRANCH   1  19
TORSDOF 4
ENDMDL
MODEL 3
REMARK VINA RESULT:      -6.1      8.220      9.903
REMARK  Name = 
REMARK  9 active torsions:
REMARK  status: ('A' for Active; 'I' for Inactive)
REMARK    1  A    between atoms: C_1  and  O_2
REMARK    2  A    between atoms: O_2  and  C_3
REMARK    3  A    between atoms: C_3  and  C_4
REMARK    4  A    between atoms: C_3  and  C_5
REMARK    5  A    between atoms: C_5  and  N_6
REMARK    6  A    between atoms: C_9  and  C_10
REMARK    7  A    between atoms: C_15  and  O_16
REMARK    8  A    between atoms: C_20  and  C_21
REMARK    9  A    between atoms: C_20  and  C_22
REMARK                            x       y       z     vdW  Elec       q    Type
REMARK                         _______ _______ _______ _____ _____    ______ ____
ROOT
ATOM      1  N   UNL     1       9.511  14.879  17.995  0.00  0.00    +0.000 NA
ATOM      2  C   UNL     1      10.671  14.520  17.169  0.00  0.00    +0.000 C 
ATOM      3  C   UNL     1      11.602  13.327  17.917  0.00  0.00    +0.000 C 
ATOM      4  C   UNL     1      11.053  12.544  19.452  0.00  0.00    +0.000 C 
ATOM      5  C   UNL     1      12.333  11.762  19.815  0.00  0.00    +0.000 C 
ATOM      6  C   UNL     1      10.297  12.666  21.059  0.00  0.00    +0.000 A 
ATOM      7  C   UNL     1       9.350  11.677  21.542  0.00  0.00    +0.000 A 
ATOM      8  C   UNL     1       8.228  12.015  22.344  0.00  0.00    +0.000 A 
ATOM      9  C   UNL     1       8.081  13.284  22.885  0.00  0.00    +0.000 A 
ATOM     10  C   UNL     1       9.026  14.222  22.566  0.00  0.00    +0.000 A 
ATOM     11  C   UNL     1       9.985  13.928  21.581  0.00  0.00    +0.000 A 
ATOM     12  C   UNL     1      10.246  14.973  20.601  0.00  0.00    +0.000 C 
ATOM     13  C   UNL     1       9.765  14.238  19.257  0.00  0.00    +0.000 C 
ATOM     14  C   UNL     1       9.595  12.400  18.997  0.00  0.00    +0.000 C 
ATOM     15  C   UNL     1       9.990  10.833  18.844  0.00  0.00    +0.000 C 
ATOM     16  C   UNL     1       8.756  12.356  17.676  0.00  0.00    +0.000 C 
ENDROOT
BRANCH  10  17
ATOM     17  O   UNL     1       8.902  15.508  22.998  0.00  0.00    +0.000 OA
ATOM     18  H   UNL     1       8.832  16.093  22.239  0.00  0.00    +0.000 HD
ENDBRANCH  10  17
BRANCH   1  19
ATOM     19  C   UNL     1       8.968  16.222  18.139  0.00  0.00    +0.000 C 
BRANCH  19  20
ATOM     20  C   UNL     1       7.489  16.113  18.659  0.00  0.00    +0.000 C 
ATOM     21  C   UNL     1       6.641  15.220  17.755  0.00  0.00    +0.000 C 
BRANCH  20  23
ATOM     22  C   UNL     1       5.793  17.504  19.592  0.00  0.00    +0.000 C 
ATOM     23  O   UNL     1       6.884  17.428  18.687  0.00  0.00    +0.000 OA
ENDBRANCH  20  23
ENDBRANCH  19  20
ENDBRANCH   1  19
TORSDOF 4
ENDMDL
MODEL 4
REMARK VINA RESULT:      -5.8      3.546      6.496
REMARK  Name = 
REMARK  9 active torsions:
REMARK  status: ('A' for Active; 'I' for Inactive)
REMARK    1  A    between atoms: C_1  and  O_2
REMARK    2  A    between atoms: O_2  and  C_3
REMARK    3  A    between atoms: C_3  and  C_4
REMARK    4  A    between atoms: C_3  and  C_5
REMARK    5  A    between atoms: C_5  and  N_6
REMARK    6  A    between atoms: C_9  and  C_10
REMARK    7  A    between atoms: C_15  and  O_16
REMARK    8  A    between atoms: C_20  and  C_21
REMARK    9  A    between atoms: C_20  and  C_22
REMARK                            x       y       z     vdW  Elec       q    Type
REMARK                         _______ _______ _______ _____ _____    ______ ____
ROOT
ATOM      1  N   UNL     1       5.952   4.072  15.030  0.00  0.00    +0.000 NA
ATOM      2  C   UNL     1       6.159   5.482  14.675  0.00  0.00    +0.000 C 
ATOM      3  C   UNL     1       5.558   6.504  15.876  0.00  0.00    +0.000 C 
ATOM      4  C   UNL     1       4.921   5.838  17.432  0.00  0.00    +0.000 C 
ATOM      5  C   UNL     1       4.296   7.119  18.024  0.00  0.00    +0.000 C 
ATOM      6  C   UNL     1       3.991   4.602  18.313  0.00  0.00    +0.000 A 
ATOM      7  C   UNL     1       4.452   4.041  19.570  0.00  0.00    +0.000 A 
ATOM      8  C   UNL     1       4.253   2.680  19.923  0.00  0.00    +0.000 A 
ATOM      9  C   UNL     1       3.426   1.853  19.178  0.00  0.00    +0.000 A 
ATOM     10  C   UNL     1       2.857   2.377  18.048  0.00  0.00    +0.000 A 
ATOM     11  C   UNL     1       3.263   3.644  17.595  0.00  0.00    +0.000 A 
ATOM     12  C   UNL     1       3.511   3.770  16.165  0.00  0.00    +0.000 C 
ATOM     13  C   UNL     1       5.077   4.120  16.171  0.00  0.00    +0.000 C 
ATOM     14  C   UNL     1       6.054   4.817  17.597  0.00  0.00    +0.000 C 
ATOM     15  C   UNL     1       6.566   5.845  18.745  0.00  0.00    +0.000 C 
ATOM     16  C   UNL     1       7.521   4.573  17.109  0.00  0.00    +0.000 C 
ENDROOT
BRANCH  10  17
ATOM     17  O   UNL     1       2.097   1.599  17.227  0.00  0.00    +0.000 OA
ATOM     18  H   UNL     1       1.170   1.716  17.447  0.00  0.00    +0.000 HD
ENDBRANCH  10  17
BRANCH   1  19
ATOM     19  C   UNL     1       5.605   3.013  14.093  0.00  0.00    +0.000 C 
BRANCH  19  20
ATOM     20  C   UNL     1       5.784   3.558  12.631  0.00  0.00    +0.000 C 
ATOM     21  C   UNL     1       4.483   3.465  11.834  0.00  0.00    +0.000 C 
BRANCH  20  23
ATOM     22  C   UNL     1       6.247   1.634  11.301  0.00  0.00    +0.000 C 
ATOM     23  O   UNL     1       6.791   2.779  11.940  0.00  0.00    +0.000 OA
ENDBRANCH  20  23
ENDBRANCH  19  20
ENDBRANCH   1  19
TORSDOF 4
ENDMDL
MODEL 5
REMARK VINA RESULT:      -5.8      6.350      9.048
REMARK  Name = 
REMARK  9 active torsions:
REMARK  status: ('A' for Active; 'I' for Inactive)
REMARK    1  A    between atoms: C_1  and  O_2
REMARK    2  A    between atoms: O_2  and  C_3
REMARK    3  A    between atoms: C_3  and  C_4
REMARK    4  A    between atoms: C_3  and  C_5
REMARK    5  A    between atoms: C_5  and  N_6
REMARK    6  A    between atoms: C_9  and  C_10
REMARK    7  A    between atoms: C_15  and  O_16
REMARK    8  A    between atoms: C_20  and  C_21
REMARK    9  A    between atoms: C_20  and  C_22
REMARK                            x       y       z     vdW  Elec       q    Type
REMARK                         _______ _______ _______ _____ _____    ______ ____
ROOT
ATOM      1  N   UNL     1       0.099  13.826  19.808  0.00  0.00    +0.000 NA
ATOM      2  C   UNL     1       0.929  13.373  20.932  0.00  0.00    +0.000 C 
ATOM      3  C   UNL     1       0.821  11.700  21.129  0.00  0.00    +0.000 C 
ATOM      4  C   UNL     1      -0.090  10.681  19.945  0.00  0.00    +0.000 C 
ATOM      5  C   UNL     1      -0.087   9.337  20.705  0.00  0.00    +0.000 C 
ATOM      6  C   UNL     1      -1.502  10.436  18.887  0.00  0.00    +0.000 A 
ATOM      7  C   UNL     1      -1.377   9.878  17.553  0.00  0.00    +0.000 A 
ATOM      8  C   UNL     1      -2.178  10.309  16.462  0.00  0.00    +0.000 A 
ATOM      9  C   UNL     1      -3.268  11.144  16.651  0.00  0.00    +0.000 A 
ATOM     10  C   UNL     1      -3.509  11.595  17.921  0.00  0.00    +0.000 A 
ATOM     11  C   UNL     1      -2.563  11.350  18.931  0.00  0.00    +0.000 A 
ATOM     12  C   UNL     1      -2.246  12.471  19.806  0.00  0.00    +0.000 C 
ATOM     13  C   UNL     1      -0.691  12.675  19.466  0.00  0.00    +0.000 C 
ATOM     14  C   UNL     1       0.456  11.413  18.712  0.00  0.00    +0.000 C 
ATOM     15  C   UNL     1       1.344  10.066  18.533  0.00  0.00    +0.000 C 
ATOM     16  C   UNL     1       1.669  12.312  18.299  0.00  0.00    +0.000 C 
ENDROOT
BRANCH  10  17
ATOM     17  O   UNL     1      -4.515  12.482  18.165  0.00  0.00    +0.000 OA
ATOM     18  H   UNL     1      -5.342  12.004  18.261  0.00  0.00    +0.000 HD
ENDBRANCH  10  17
BRANCH   1  19
ATOM     19  C   UNL     1      -0.662  15.067  19.776  0.00  0.00    +0.000 C 
BRANCH  19  20
ATOM     20  C   UNL     1      -0.159  15.934  18.566  0.00  0.00    +0.000 C 
ATOM     21  C   UNL     1       1.294  16.368  18.752  0.00  0.00    +0.000 C 
BRANCH  20  23
ATOM     22  C   UNL     1      -0.562  17.958  17.373  0.00  0.00    +0.000 C 
ATOM     23  O   UNL     1      -0.973  17.125  18.447  0.00  0.00    +0.000 OA
ENDBRANCH  20  23
ENDBRANCH  19  20
ENDBRANCH   1  19
TORSDOF 4
ENDMDL
MODEL 6
REMARK VINA RESULT:      -5.7      6.158      8.979
REMARK  Name = 
REMARK  9 active torsions:
REMARK  status: ('A' for Active; 'I' for Inactive)
REMARK    1  A    between atoms: C_1  and  O_2
REMARK    2  A    between atoms: O_2  and  C_3
REMARK    3  A    between atoms: C_3  and  C_4
REMARK    4  A    between atoms: C_3  and  C_5
REMARK    5  A    between atoms: C_5  and  N_6
REMARK    6  A    between atoms: C_9  and  C_10
REMARK    7  A    between atoms: C_15  and  O_16
REMARK    8  A    between atoms: C_20  and  C_21
REMARK    9  A    between atoms: C_20  and  C_22
REMARK                            x       y       z     vdW  Elec       q    Type
REMARK                         _______ _______ _______ _____ _____    ______ ____
ROOT
ATOM      1  N   UNL     1       0.005  13.844  19.766  0.00  0.00    +0.000 NA
ATOM      2  C   UNL     1       0.814  13.416  20.915  0.00  0.00    +0.000 C 
ATOM      3  C   UNL     1       0.716  11.746  21.138  0.00  0.00    +0.000 C 
ATOM      4  C   UNL     1      -0.160  10.700  19.952  0.00  0.00    +0.000 C 
ATOM      5  C   UNL     1      -0.162   9.369  20.735  0.00  0.00    +0.000 C 
ATOM      6  C   UNL     1      -1.545  10.424  18.867  0.00  0.00    +0.000 A 
ATOM      7  C   UNL     1      -1.387   9.844  17.547  0.00  0.00    +0.000 A 
ATOM      8  C   UNL     1      -2.166  10.249  16.431  0.00  0.00    +0.000 A 
ATOM      9  C   UNL     1      -3.268  11.078  16.581  0.00  0.00    +0.000 A 
ATOM     10  C   UNL     1      -3.541  11.548  17.838  0.00  0.00    +0.000 A 
ATOM     11  C   UNL     1      -2.615  11.329  18.873  0.00  0.00    +0.000 A 
ATOM     12  C   UNL     1      -2.327  12.467  19.734  0.00  0.00    +0.000 C 
ATOM     13  C   UNL     1      -0.767  12.679  19.425  0.00  0.00    +0.000 C 
ATOM     14  C   UNL     1       0.407  11.415  18.719  0.00  0.00    +0.000 C 
ATOM     15  C   UNL     1       1.311  10.073  18.582  0.00  0.00    +0.000 C 
ATOM     16  C   UNL     1       1.621  12.318  18.317  0.00  0.00    +0.000 C 
ENDROOT
BRANCH  10  17
ATOM     17  O   UNL     1      -4.559  12.430  18.045  0.00  0.00    +0.000 OA
ATOM     18  H   UNL     1      -4.327  13.019  18.767  0.00  0.00    +0.000 HD
ENDBRANCH  10  17
BRANCH   1  19
ATOM     19  C   UNL     1      -0.766  15.076  19.695  0.00  0.00    +0.000 C 
BRANCH  19  20
ATOM     20  C   UNL     1       0.171  16.226  19.177  0.00  0.00    +0.000 C 
ATOM     21  C   UNL     1      -0.544  17.121  18.166  0.00  0.00    +0.000 C 
BRANCH  20  23
ATOM     22  C   UNL     1       2.284  16.640  18.153  0.00  0.00    +0.000 C 
ATOM     23  O   UNL     1       1.333  15.655  18.529  0.00  0.00    +0.000 OA
ENDBRANCH  20  23
ENDBRANCH  19  20
ENDBRANCH   1  19
TORSDOF 4
ENDMDL
MODEL 7
REMARK VINA RESULT:      -5.7      7.579      9.790
REMARK  Name = 
REMARK  9 active torsions:
REMARK  status: ('A' for Active; 'I' for Inactive)
REMARK    1  A    between atoms: C_1  and  O_2
REMARK    2  A    between atoms: O_2  and  C_3
REMARK    3  A    between atoms: C_3  and  C_4
REMARK    4  A    between atoms: C_3  and  C_5
REMARK    5  A    between atoms: C_5  and  N_6
REMARK    6  A    between atoms: C_9  and  C_10
REMARK    7  A    between atoms: C_15  and  O_16
REMARK    8  A    between atoms: C_20  and  C_21
REMARK    9  A    between atoms: C_20  and  C_22
REMARK                            x       y       z     vdW  Elec       q    Type
REMARK                         _______ _______ _______ _____ _____    ______ ____
ROOT
ATOM      1  N   UNL     1       8.111  15.242  21.210  0.00  0.00    +0.000 NA
ATOM      2  C   UNL     1       8.948  16.447  21.286  0.00  0.00    +0.000 C 
ATOM      3  C   UNL     1      10.453  16.186  20.567  0.00  0.00    +0.000 C 
ATOM      4  C   UNL     1      10.812  14.643  19.697  0.00  0.00    +0.000 C 
ATOM      5  C   UNL     1      12.330  14.820  19.474  0.00  0.00    +0.000 C 
ATOM      6  C   UNL     1      10.687  12.870  19.586  0.00  0.00    +0.000 A 
ATOM      7  C   UNL     1      10.409  12.194  18.332  0.00  0.00    +0.000 A 
ATOM      8  C   UNL     1       9.603  11.027  18.250  0.00  0.00    +0.000 A 
ATOM      9  C   UNL     1       9.202  10.344  19.388  0.00  0.00    +0.000 A 
ATOM     10  C   UNL     1       9.555  10.872  20.601  0.00  0.00    +0.000 A 
ATOM     11  C   UNL     1      10.139  12.150  20.655  0.00  0.00    +0.000 A 
ATOM     12  C   UNL     1       9.630  13.050  21.680  0.00  0.00    +0.000 C 
ATOM     13  C   UNL     1       9.012  14.214  20.765  0.00  0.00    +0.000 C 
ATOM     14  C   UNL     1       9.451  14.583  18.992  0.00  0.00    +0.000 C 
ATOM     15  C   UNL     1      10.314  15.018  17.687  0.00  0.00    +0.000 C 
ATOM     16  C   UNL     1       8.279  15.535  18.579  0.00  0.00    +0.000 C 
ENDROOT
BRANCH  10  17
ATOM     17  O   UNL     1       9.127  10.297  21.760  0.00  0.00    +0.000 OA
ATOM     18  H   UNL     1       9.586   9.463  21.889  0.00  0.00    +0.000 HD
ENDBRANCH  10  17
BRANCH   1  19
ATOM     19  C   UNL     1       7.200  14.788  22.251  0.00  0.00    +0.000 C 
BRANCH  19  20
ATOM     20  C   UNL     1       5.820  14.431  21.590  0.00  0.00    +0.000 C 
ATOM     21  C   UNL     1       5.207  15.639  20.884  0.00  0.00    +0.000 C 
BRANCH  20  23
ATOM     22  C   UNL     1       5.380  14.211  23.923  0.00  0.00    +0.000 C 
ATOM     23  O   UNL     1       4.892  13.986  22.609  0.00  0.00    +0.000 OA
ENDBRANCH  20  23
ENDBRANCH  19  20
ENDBRANCH   1  19
TORSDOF 4
ENDMDL
MODEL 8
REMARK VINA RESULT:      -5.7      7.453      9.735
REMARK  Name = 
REMARK  9 active torsions:
REMARK  status: ('A' for Active; 'I' for Inactive)
REMARK    1  A    between atoms: C_1  and  O_2
REMARK    2  A    between atoms: O_2  and  C_3
REMARK    3  A    between atoms: C_3  and  C_4
REMARK    4  A    between atoms: C_3  and  C_5
REMARK    5  A    between atoms: C_5  and  N_6
REMARK    6  A    between atoms: C_9  and  C_10
REMARK    7  A    between atoms: C_15  and  O_16
REMARK    8  A    between atoms: C_20  and  C_21
REMARK    9  A    between atoms: C_20  and  C_22
REMARK                            x       y       z     vdW  Elec       q    Type
REMARK                         _______ _______ _______ _____ _____    ______ ____
ROOT
ATOM      1  N   UNL     1       7.934  15.261  20.751  0.00  0.00    +0.000 NA
ATOM      2  C   UNL     1       8.717  16.501  20.834  0.00  0.00    +0.000 C 
ATOM      3  C   UNL     1      10.301  16.254  20.307  0.00  0.00    +0.000 C 
ATOM      4  C   UNL     1      10.807  14.672  19.592  0.00  0.00    +0.000 C 
ATOM      5  C   UNL     1      12.333  14.895  19.527  0.00  0.00    +0.000 C 
ATOM      6  C   UNL     1      10.753  12.892  19.593  0.00  0.00    +0.000 A 
ATOM      7  C   UNL     1      10.641  12.124  18.367  0.00  0.00    +0.000 A 
ATOM      8  C   UNL     1       9.888  10.923  18.279  0.00  0.00    +0.000 A 
ATOM      9  C   UNL     1       9.383  10.301  19.412  0.00  0.00    +0.000 A 
ATOM     10  C   UNL     1       9.579  10.922  20.616  0.00  0.00    +0.000 A 
ATOM     11  C   UNL     1      10.111  12.223  20.644  0.00  0.00    +0.000 A 
ATOM     12  C   UNL     1       9.461  13.168  21.540  0.00  0.00    +0.000 C 
ATOM     13  C   UNL     1       8.912  14.243  20.483  0.00  0.00    +0.000 C 
ATOM     14  C   UNL     1       9.537  14.511  18.747  0.00  0.00    +0.000 C 
ATOM     15  C   UNL     1      10.528  14.893  17.518  0.00  0.00    +0.000 C 
ATOM     16  C   UNL     1       8.388  15.385  18.141  0.00  0.00    +0.000 C 
ENDROOT
BRANCH  10  17
ATOM     17  O   UNL     1       9.042  10.408  21.758  0.00  0.00    +0.000 OA
ATOM     18  H   UNL     1       8.570   9.598  21.551  0.00  0.00    +0.000 HD
ENDBRANCH  10  17
BRANCH   1  19
ATOM     19  C   UNL     1       6.926  14.840  21.714  0.00  0.00    +0.000 C 
BRANCH  19  20
ATOM     20  C   UNL     1       5.511  15.260  21.177  0.00  0.00    +0.000 C 
ATOM     21  C   UNL     1       4.393  14.499  21.889  0.00  0.00    +0.000 C 
BRANCH  20  23
ATOM     22  C   UNL     1       4.077  14.874  19.312  0.00  0.00    +0.000 C 
ATOM     23  O   UNL     1       5.421  14.971  19.761  0.00  0.00    +0.000 OA
ENDBRANCH  20  23
ENDBRANCH  19  20
ENDBRANCH   1  19
TORSDOF 4
ENDMDL
MODEL 9
REMARK VINA RESULT:      -5.6      8.028      9.707
REMARK  Name = 
REMARK  9 active torsions:
REMARK  status: ('A' for Active; 'I' for Inactive)
REMARK    1  A    between atoms: C_1  and  O_2
REMARK    2  A    between atoms: O_2  and  C_3
REMARK    3  A    between atoms: C_3  and  C_4
REMARK    4  A    between atoms: C_3  and  C_5
REMARK    5  A    between atoms: C_5  and  N_6
REMARK    6  A    between atoms: C_9  and  C_10
REMARK    7  A    between atoms: C_15  and  O_16
REMARK    8  A    between atoms: C_20  and  C_21
REMARK    9  A    between atoms: C_20  and  C_22
REMARK                            x       y       z     vdW  Elec       q    Type
REMARK                         _______ _______ _______ _____ _____    ______ ____
ROOT
ATOM      1  N   UNL     1       8.500  15.505  18.463  0.00  0.00    +0.000 NA
ATOM      2  C   UNL     1       9.537  15.731  17.447  0.00  0.00    +0.000 C 
ATOM      3  C   UNL     1      10.849  14.695  17.680  0.00  0.00    +0.000 C 
ATOM      4  C   UNL     1      10.799  13.400  18.941  0.00  0.00    +0.000 C 
ATOM      5  C   UNL     1      12.274  12.945  18.902  0.00  0.00    +0.000 C 
ATOM      6  C   UNL     1      10.349  12.857  20.577  0.00  0.00    +0.000 A 
ATOM      7  C   UNL     1       9.774  11.548  20.823  0.00  0.00    +0.000 A 
ATOM      8  C   UNL     1       8.773  11.321  21.805  0.00  0.00    +0.000 A 
ATOM      9  C   UNL     1       8.432  12.296  22.729  0.00  0.00    +0.000 A 
ATOM     10  C   UNL     1       9.048  13.514  22.621  0.00  0.00    +0.000 A 
ATOM     11  C   UNL     1       9.848  13.786  21.498  0.00  0.00    +0.000 A 
ATOM     12  C   UNL     1       9.664  15.088  20.873  0.00  0.00    +0.000 C 
ATOM     13  C   UNL     1       9.130  14.644  19.426  0.00  0.00    +0.000 C 
ATOM     14  C   UNL     1       9.359  12.978  18.622  0.00  0.00    +0.000 C 
ATOM     15  C   UNL     1      10.081  11.691  17.944  0.00  0.00    +0.000 C 
ATOM     16  C   UNL     1       8.323  13.060  17.451  0.00  0.00    +0.000 C 
ENDROOT
BRANCH  10  17
ATOM     17  O   UNL     1       8.703  14.543  23.446  0.00  0.00    +0.000 OA
ATOM     18  H   UNL     1       9.498  14.922  23.830  0.00  0.00    +0.000 HD
ENDBRANCH  10  17
BRANCH   1  19
ATOM     19  C   UNL     1       7.688  16.546  19.078  0.00  0.00    +0.000 C 
BRANCH  19  20
ATOM     20  C   UNL     1       6.191  16.069  19.099  0.00  0.00    +0.000 C 
ATOM     21  C   UNL     1       5.899  15.192  20.315  0.00  0.00    +0.000 C 
BRANCH  20  23
ATOM     22  C   UNL     1       4.547  14.898  17.831  0.00  0.00    +0.000 C 
ATOM     23  O   UNL     1       5.908  15.295  17.908  0.00  0.00    +0.000 OA
ENDBRANCH  20  23
ENDBRANCH  19  20
ENDBRANCH   1  19
TORSDOF 4
ENDMDL
