MODEL 1
REMARK VINA RESULT:      -9.1      0.000      0.000
REMARK  Name = 
REMARK  9 active torsions:
REMARK  status: ('A' for Active; 'I' for Inactive)
REMARK    1  A    between atoms: C_2  and  O_3
REMARK    2  A    between atoms: C_2  and  C_4
REMARK    3  A    between atoms: C_4  and  C_5
REMARK    4  A    between atoms: C_5  and  C_6
REMARK    5  A    between atoms: C_10  and  O_11
REMARK    6  A    between atoms: O_11  and  C_12
REMARK    7  A    between atoms: C_12  and  C_13
REMARK    8  A    between atoms: C_14  and  C_15
REMARK    9  A    between atoms: N_21  and  C_22
REMARK                            x       y       z     vdW  Elec       q    Type
REMARK                         _______ _______ _______ _____ _____    ______ ____
ROOT
ATOM      1  C   UNL     1       2.428   5.878  18.569  0.00  0.00    +0.000 C 
ENDROOT
BRANCH   1   2
ATOM      2  C   UNL     1       3.006   4.615  19.166  0.00  0.00    +0.000 A 
ATOM      3  C   UNL     1       2.398   3.575  19.894  0.00  0.00    +0.000 A 
ATOM      4  C   UNL     1       3.388   2.563  20.050  0.00  0.00    +0.000 A 
ATOM      5  C   UNL     1       4.534   2.980  19.429  0.00  0.00    +0.000 A 
ATOM      6  N   UNL     1       4.346   4.251  18.925  0.00  0.00    +0.000 N 
BRANCH   6   7
ATOM      7  C   UNL     1       5.375   4.980  18.248  0.00  0.00    +0.000 A 
ATOM      8  C   UNL     1       5.362   5.149  16.857  0.00  0.00    +0.000 A 
ATOM      9  C   UNL     1       6.405   5.819  16.208  0.00  0.00    +0.000 A 
ATOM     10  C   UNL     1       7.456   6.356  16.945  0.00  0.00    +0.000 A 
ATOM     11  C   UNL     1       7.443   6.235  18.330  0.00  0.00    +0.000 A 
ATOM     12  F   UNL     1       8.446   6.766  19.041  0.00  0.00    +0.000 F 
ATOM     13  C   UNL     1       6.416   5.563  18.987  0.00  0.00    +0.000 A 
ENDBRANCH   6   7
BRANCH   3  14
ATOM     14  C   UNL     1       1.003   3.354  20.436  0.00  0.00    +0.000 C 
ATOM     15  F   UNL     1       0.153   2.636  19.677  0.00  0.00    +0.000 F 
ATOM     16  F   UNL     1       1.055   2.727  21.643  0.00  0.00    +0.000 F 
ATOM     17  F   UNL     1       0.389   4.549  20.661  0.00  0.00    +0.000 F 
ENDBRANCH   3  14
ENDBRANCH   1   2
BRANCH   1  18
ATOM     18  O   UNL     1       2.835   6.977  19.365  0.00  0.00    +0.000 OA
BRANCH  18  23
ATOM     19  C   UNL     1       0.012  10.066  19.525  0.00  0.00    +0.000 A 
ATOM     20  C   UNL     1       0.769   9.881  18.360  0.00  0.00    +0.000 A 
ATOM     21  C   UNL     1       1.746   8.886  18.295  0.00  0.00    +0.000 A 
ATOM     22  F   UNL     1       2.399   8.728  17.135  0.00  0.00    +0.000 F 
ATOM     23  C   UNL     1       2.001   8.060  19.384  0.00  0.00    +0.000 A 
ATOM     24  C   UNL     1       1.274   8.277  20.557  0.00  0.00    +0.000 A 
ATOM     25  F   UNL     1       1.514   7.539  21.651  0.00  0.00    +0.000 F 
ATOM     26  C   UNL     1       0.293   9.266  20.636  0.00  0.00    +0.000 A 
BRANCH  19  27
ATOM     27  C   UNL     1      -1.081  11.104  19.586  0.00  0.00    +0.000 C 
BRANCH  27  28
ATOM     28  C   UNL     1      -1.179  11.919  18.296  0.00  0.00    +0.000 C 
BRANCH  28  30
ATOM     29  O   UNL     1      -3.527  11.371  18.016  0.00  0.00    +0.000 OA
ATOM     30  C   UNL     1      -2.426  11.572  17.526  0.00  0.00    +0.000 C 
BRANCH  30  31
ATOM     31  O   UNL     1      -2.209  11.514  16.192  0.00  0.00    +0.000 OA
ATOM     32  H   UNL     1      -2.466  10.666  15.782  0.00  0.00    +0.000 HD
ENDBRANCH  30  31
ENDBRANCH  28  30
ENDBRANCH  27  28
ENDBRANCH  19  27
ENDBRANCH  18  23
ENDBRANCH   1  18
TORSDOF 9
ENDMDL
MODEL 2
REMARK VINA RESULT:      -9.1      1.399      1.831
REMARK  Name = 
REMARK  9 active torsions:
REMARK  status: ('A' for Active; 'I' for Inactive)
REMARK    1  A    between atoms: C_2  and  O_3
REMARK    2  A    between atoms: C_2  and  C_4
REMARK    3  A    between atoms: C_4  and  C_5
REMARK    4  A    between atoms: C_5  and  C_6
REMARK    5  A    between atoms: C_10  and  O_11
REMARK    6  A    between atoms: O_11  and  C_12
REMARK    7  A    between atoms: C_12  and  C_13
REMARK    8  A    between atoms: C_14  and  C_15
REMARK    9  A    between atoms: N_21  and  C_22
REMARK                            x       y       z     vdW  Elec       q    Type
REMARK                         _______ _______ _______ _____ _____    ______ ____
ROOT
ATOM      1  C   UNL     1       2.606   5.664  18.281  0.00  0.00    +0.000 C 
ENDROOT
BRANCH   1   2
ATOM      2  C   UNL     1       2.981   4.279  18.758  0.00  0.00    +0.000 A 
ATOM      3  C   UNL     1       2.300   3.374  19.593  0.00  0.00    +0.000 A 
ATOM      4  C   UNL     1       3.041   2.158  19.557  0.00  0.00    +0.000 A 
ATOM      5  C   UNL     1       4.113   2.331  18.724  0.00  0.00    +0.000 A 
ATOM      6  N   UNL     1       4.130   3.632  18.262  0.00  0.00    +0.000 N 
BRANCH   6   7
ATOM      7  C   UNL     1       5.152   4.137  17.397  0.00  0.00    +0.000 A 
ATOM      8  C   UNL     1       6.216   4.905  17.887  0.00  0.00    +0.000 A 
ATOM      9  C   UNL     1       7.176   5.435  17.017  0.00  0.00    +0.000 A 
ATOM     10  C   UNL     1       7.100   5.177  15.652  0.00  0.00    +0.000 A 
ATOM     11  C   UNL     1       6.074   4.373  15.171  0.00  0.00    +0.000 A 
ATOM     12  F   UNL     1       6.010   4.110  13.859  0.00  0.00    +0.000 F 
ATOM     13  C   UNL     1       5.107   3.846  16.024  0.00  0.00    +0.000 A 
ENDBRANCH   6   7
BRANCH   3  14
ATOM     14  C   UNL     1       1.019   3.452  20.396  0.00  0.00    +0.000 C 
ATOM     15  F   UNL     1       1.019   2.878  21.614  0.00  0.00    +0.000 F 
ATOM     16  F   UNL     1       0.658   4.751  20.590  0.00  0.00    +0.000 F 
ATOM     17  F   UNL     1      -0.005   2.877  19.708  0.00  0.00    +0.000 F 
ENDBRANCH   3  14
ENDBRANCH   1   2
BRANCH   1  18
ATOM     18  O   UNL     1       2.878   6.585  19.322  0.00  0.00    +0.000 OA
BRANCH  18  23
ATOM     19  C   UNL     1       0.478  10.017  19.307  0.00  0.00    +0.000 A 
ATOM     20  C   UNL     1       1.251   9.710  18.180  0.00  0.00    +0.000 A 
ATOM     21  C   UNL     1       2.092   8.595  18.174  0.00  0.00    +0.000 A 
ATOM     22  F   UNL     1       2.767   8.329  17.047  0.00  0.00    +0.000 F 
ATOM     23  C   UNL     1       2.192   7.767  19.287  0.00  0.00    +0.000 A 
ATOM     24  C   UNL     1       1.451   8.102  20.422  0.00  0.00    +0.000 A 
ATOM     25  F   UNL     1       1.548   7.363  21.537  0.00  0.00    +0.000 F 
ATOM     26  C   UNL     1       0.605   9.211  20.442  0.00  0.00    +0.000 A 
BRANCH  19  27
ATOM     27  C   UNL     1      -0.473  11.189  19.302  0.00  0.00    +0.000 C 
BRANCH  27  28
ATOM     28  C   UNL     1      -1.826  10.835  18.685  0.00  0.00    +0.000 C 
BRANCH  28  30
ATOM     29  O   UNL     1      -2.703  11.074  16.435  0.00  0.00    +0.000 OA
ATOM     30  C   UNL     1      -2.000  11.492  17.341  0.00  0.00    +0.000 C 
BRANCH  30  31
ATOM     31  O   UNL     1      -1.288  12.637  17.231  0.00  0.00    +0.000 OA
ATOM     32  H   UNL     1      -1.550  13.333  17.864  0.00  0.00    +0.000 HD
ENDBRANCH  30  31
ENDBRANCH  28  30
ENDBRANCH  27  28
ENDBRANCH  19  27
ENDBRANCH  18  23
ENDBRANCH   1  18
TORSDOF 9
ENDMDL
MODEL 3
REMARK VINA RESULT:      -9.1      0.664      1.630
REMARK  Name = 
REMARK  9 active torsions:
REMARK  status: ('A' for Active; 'I' for Inactive)
REMARK    1  A    between atoms: C_2  and  O_3
REMARK    2  A    between atoms: C_2  and  C_4
REMARK    3  A    between atoms: C_4  and  C_5
REMARK    4  A    between atoms: C_5  and  C_6
REMARK    5  A    between atoms: C_10  and  O_11
REMARK    6  A    between atoms: O_11  and  C_12
REMARK    7  A    between atoms: C_12  and  C_13
REMARK    8  A    between atoms: C_14  and  C_15
REMARK    9  A    between atoms: N_21  and  C_22
REMARK                            x       y       z     vdW  Elec       q    Type
REMARK                         _______ _______ _______ _____ _____    ______ ____
ROOT
ATOM      1  C   UNL     1       2.475   5.572  18.236  0.00  0.00    +0.000 C 
ENDROOT
BRANCH   1   2
ATOM      2  C   UNL     1       3.039   4.404  19.014  0.00  0.00    +0.000 A 
ATOM      3  C   UNL     1       2.407   3.443  19.824  0.00  0.00    +0.000 A 
ATOM      4  C   UNL     1       3.404   2.483  20.160  0.00  0.00    +0.000 A 
ATOM      5  C   UNL     1       4.578   2.853  19.562  0.00  0.00    +0.000 A 
ATOM      6  N   UNL     1       4.398   4.050  18.898  0.00  0.00    +0.000 N 
BRANCH   6   7
ATOM      7  C   UNL     1       5.453   4.720  18.201  0.00  0.00    +0.000 A 
ATOM      8  C   UNL     1       5.577   4.643  16.807  0.00  0.00    +0.000 A 
ATOM      9  C   UNL     1       6.646   5.262  16.149  0.00  0.00    +0.000 A 
ATOM     10  C   UNL     1       7.585   5.989  16.874  0.00  0.00    +0.000 A 
ATOM     11  C   UNL     1       7.434   6.109  18.250  0.00  0.00    +0.000 A 
ATOM     12  F   UNL     1       8.329   6.823  18.946  0.00  0.00    +0.000 F 
ATOM     13  C   UNL     1       6.381   5.492  18.918  0.00  0.00    +0.000 A 
ENDBRANCH   6   7
BRANCH   3  14
ATOM     14  C   UNL     1       0.984   3.252  20.304  0.00  0.00    +0.000 C 
ATOM     15  F   UNL     1       0.157   2.542  19.513  0.00  0.00    +0.000 F 
ATOM     16  F   UNL     1       0.971   2.634  21.518  0.00  0.00    +0.000 F 
ATOM     17  F   UNL     1       0.383   4.459  20.492  0.00  0.00    +0.000 F 
ENDBRANCH   3  14
ENDBRANCH   1   2
BRANCH   1  18
ATOM     18  O   UNL     1       3.023   6.767  18.763  0.00  0.00    +0.000 OA
BRANCH  18  23
ATOM     19  C   UNL     1       0.548   9.920  19.977  0.00  0.00    +0.000 A 
ATOM     20  C   UNL     1       0.762   8.838  20.840  0.00  0.00    +0.000 A 
ATOM     21  C   UNL     1       1.548   7.754  20.445  0.00  0.00    +0.000 A 
ATOM     22  F   UNL     1       1.754   6.774  21.336  0.00  0.00    +0.000 F 
ATOM     23  C   UNL     1       2.132   7.715  19.183  0.00  0.00    +0.000 A 
ATOM     24  C   UNL     1       1.880   8.776  18.310  0.00  0.00    +0.000 A 
ATOM     25  F   UNL     1       2.380   8.764  17.066  0.00  0.00    +0.000 F 
ATOM     26  C   UNL     1       1.099   9.867  18.692  0.00  0.00    +0.000 A 
BRANCH  19  27
ATOM     27  C   UNL     1      -0.256  11.119  20.416  0.00  0.00    +0.000 C 
BRANCH  27  28
ATOM     28  C   UNL     1      -0.267  12.227  19.363  0.00  0.00    +0.000 C 
BRANCH  28  30
ATOM     29  O   UNL     1      -2.673  12.071  19.089  0.00  0.00    +0.000 OA
ATOM     30  C   UNL     1      -1.567  12.243  18.602  0.00  0.00    +0.000 C 
BRANCH  30  31
ATOM     31  O   UNL     1      -1.388  12.485  17.283  0.00  0.00    +0.000 OA
ATOM     32  H   UNL     1      -2.206  12.727  16.807  0.00  0.00    +0.000 HD
ENDBRANCH  30  31
ENDBRANCH  28  30
ENDBRANCH  27  28
ENDBRANCH  19  27
ENDBRANCH  18  23
ENDBRANCH   1  18
TORSDOF 9
ENDMDL
MODEL 4
REMARK VINA RESULT:      -9.0      1.007      1.938
REMARK  Name = 
REMARK  9 active torsions:
REMARK  status: ('A' for Active; 'I' for Inactive)
REMARK    1  A    between atoms: C_2  and  O_3
REMARK    2  A    between atoms: C_2  and  C_4
REMARK    3  A    between atoms: C_4  and  C_5
REMARK    4  A    between atoms: C_5  and  C_6
REMARK    5  A    between atoms: C_10  and  O_11
REMARK    6  A    between atoms: O_11  and  C_12
REMARK    7  A    between atoms: C_12  and  C_13
REMARK    8  A    between atoms: C_14  and  C_15
REMARK    9  A    between atoms: N_21  and  C_22
REMARK                            x       y       z     vdW  Elec       q    Type
REMARK                         _______ _______ _______ _____ _____    ______ ____
ROOT
ATOM      1  C   UNL     1       2.586   5.521  18.439  0.00  0.00    +0.000 C 
ENDROOT
BRANCH   1   2
ATOM      2  C   UNL     1       3.262   4.330  19.081  0.00  0.00    +0.000 A 
ATOM      3  C   UNL     1       2.862   3.508  20.150  0.00  0.00    +0.000 A 
ATOM      4  C   UNL     1       3.803   2.440  20.209  0.00  0.00    +0.000 A 
ATOM      5  C   UNL     1       4.718   2.616  19.207  0.00  0.00    +0.000 A 
ATOM      6  N   UNL     1       4.442   3.789  18.534  0.00  0.00    +0.000 N 
BRANCH   6   7
ATOM      7  C   UNL     1       5.243   4.273  17.451  0.00  0.00    +0.000 A 
ATOM      8  C   UNL     1       5.160   3.714  16.169  0.00  0.00    +0.000 A 
ATOM      9  C   UNL     1       5.990   4.165  15.136  0.00  0.00    +0.000 A 
ATOM     10  C   UNL     1       6.890   5.201  15.366  0.00  0.00    +0.000 A 
ATOM     11  C   UNL     1       6.938   5.791  16.624  0.00  0.00    +0.000 A 
ATOM     12  F   UNL     1       7.792   6.799  16.841  0.00  0.00    +0.000 F 
ATOM     13  C   UNL     1       6.124   5.346  17.662  0.00  0.00    +0.000 A 
ENDBRANCH   6   7
BRANCH   3  14
ATOM     14  C   UNL     1       1.694   3.536  21.112  0.00  0.00    +0.000 C 
ATOM     15  F   UNL     1       0.712   4.425  20.864  0.00  0.00    +0.000 F 
ATOM     16  F   UNL     1       1.094   2.315  21.169  0.00  0.00    +0.000 F 
ATOM     17  F   UNL     1       2.129   3.799  22.375  0.00  0.00    +0.000 F 
ENDBRANCH   3  14
ENDBRANCH   1   2
BRANCH   1  18
ATOM     18  O   UNL     1       3.088   6.700  19.043  0.00  0.00    +0.000 OA
BRANCH  18  23
ATOM     19  C   UNL     1       0.668  10.100  19.391  0.00  0.00    +0.000 A 
ATOM     20  C   UNL     1       0.726   9.182  20.448  0.00  0.00    +0.000 A 
ATOM     21  C   UNL     1       1.492   8.019  20.342  0.00  0.00    +0.000 A 
ATOM     22  F   UNL     1       1.544   7.208  21.407  0.00  0.00    +0.000 F 
ATOM     23  C   UNL     1       2.208   7.737  19.184  0.00  0.00    +0.000 A 
ATOM     24  C   UNL     1       2.112   8.634  18.118  0.00  0.00    +0.000 A 
ATOM     25  F   UNL     1       2.746   8.384  16.962  0.00  0.00    +0.000 F 
ATOM     26  C   UNL     1       1.354   9.801  18.210  0.00  0.00    +0.000 A 
BRANCH  19  27
ATOM     27  C   UNL     1      -0.114  11.384  19.518  0.00  0.00    +0.000 C 
BRANCH  27  28
ATOM     28  C   UNL     1      -1.579  11.213  19.116  0.00  0.00    +0.000 C 
BRANCH  28  30
ATOM     29  O   UNL     1      -2.659  11.357  16.948  0.00  0.00    +0.000 OA
ATOM     30  C   UNL     1      -1.838  11.781  17.745  0.00  0.00    +0.000 C 
BRANCH  30  31
ATOM     31  O   UNL     1      -1.055  12.851  17.475  0.00  0.00    +0.000 OA
ATOM     32  H   UNL     1      -0.548  12.776  16.644  0.00  0.00    +0.000 HD
ENDBRANCH  30  31
ENDBRANCH  28  30
ENDBRANCH  27  28
ENDBRANCH  19  27
ENDBRANCH  18  23
ENDBRANCH   1  18
TORSDOF 9
ENDMDL
MODEL 5
REMARK VINA RESULT:      -9.0      0.878      1.158
REMARK  Name = 
REMARK  9 active torsions:
REMARK  status: ('A' for Active; 'I' for Inactive)
REMARK    1  A    between atoms: C_2  and  O_3
REMARK    2  A    between atoms: C_2  and  C_4
REMARK    3  A    between atoms: C_4  and  C_5
REMARK    4  A    between atoms: C_5  and  C_6
REMARK    5  A    between atoms: C_10  and  O_11
REMARK    6  A    between atoms: O_11  and  C_12
REMARK    7  A    between atoms: C_12  and  C_13
REMARK    8  A    between atoms: C_14  and  C_15
REMARK    9  A    between atoms: N_21  and  C_22
REMARK                            x       y       z     vdW  Elec       q    Type
REMARK                         _______ _______ _______ _____ _____    ______ ____
ROOT
ATOM      1  C   UNL     1       2.429   5.583  18.357  0.00  0.00    +0.000 C 
ENDROOT
BRANCH   1   2
ATOM      2  C   UNL     1       2.995   4.371  19.063  0.00  0.00    +0.000 A 
ATOM      3  C   UNL     1       2.383   3.420  19.900  0.00  0.00    +0.000 A 
ATOM      4  C   UNL     1       3.356   2.407  20.135  0.00  0.00    +0.000 A 
ATOM      5  C   UNL     1       4.496   2.737  19.455  0.00  0.00    +0.000 A 
ATOM      6  N   UNL     1       4.322   3.957  18.832  0.00  0.00    +0.000 N 
BRANCH   6   7
ATOM      7  C   UNL     1       5.350   4.595  18.068  0.00  0.00    +0.000 A 
ATOM      8  C   UNL     1       5.450   4.420  16.681  0.00  0.00    +0.000 A 
ATOM      9  C   UNL     1       6.495   5.010  15.959  0.00  0.00    +0.000 A 
ATOM     10  C   UNL     1       7.432   5.806  16.610  0.00  0.00    +0.000 A 
ATOM     11  C   UNL     1       7.304   6.022  17.978  0.00  0.00    +0.000 A 
ATOM     12  F   UNL     1       8.196   6.802  18.602  0.00  0.00    +0.000 F 
ATOM     13  C   UNL     1       6.275   5.435  18.709  0.00  0.00    +0.000 A 
ENDBRANCH   6   7
BRANCH   3  14
ATOM     14  C   UNL     1       0.995   3.283  20.488  0.00  0.00    +0.000 C 
ATOM     15  F   UNL     1       0.889   2.663  21.678  0.00  0.00    +0.000 F 
ATOM     16  F   UNL     1       0.423   4.509  20.647  0.00  0.00    +0.000 F 
ATOM     17  F   UNL     1       0.186   2.600  19.633  0.00  0.00    +0.000 F 
ENDBRANCH   3  14
ENDBRANCH   1   2
BRANCH   1  18
ATOM     18  O   UNL     1       3.050   6.740  18.888  0.00  0.00    +0.000 OA
BRANCH  18  23
ATOM     19  C   UNL     1       0.276   9.721  19.869  0.00  0.00    +0.000 A 
ATOM     20  C   UNL     1       0.923   9.761  18.626  0.00  0.00    +0.000 A 
ATOM     21  C   UNL     1       1.883   8.804  18.291  0.00  0.00    +0.000 A 
ATOM     22  F   UNL     1       2.428   8.869  17.068  0.00  0.00    +0.000 F 
ATOM     23  C   UNL     1       2.229   7.793  19.181  0.00  0.00    +0.000 A 
ATOM     24  C   UNL     1       1.613   7.784  20.434  0.00  0.00    +0.000 A 
ATOM     25  F   UNL     1       1.945   6.859  21.347  0.00  0.00    +0.000 F 
ATOM     26  C   UNL     1       0.650   8.731  20.783  0.00  0.00    +0.000 A 
BRANCH  19  27
ATOM     27  C   UNL     1      -0.799  10.719  20.218  0.00  0.00    +0.000 C 
BRANCH  27  28
ATOM     28  C   UNL     1      -1.583  11.181  18.989  0.00  0.00    +0.000 C 
BRANCH  28  30
ATOM     29  O   UNL     1      -0.963  13.496  19.373  0.00  0.00    +0.000 OA
ATOM     30  C   UNL     1      -1.202  12.585  18.596  0.00  0.00    +0.000 C 
BRANCH  30  31
ATOM     31  O   UNL     1      -1.136  12.744  17.255  0.00  0.00    +0.000 OA
ATOM     32  H   UNL     1      -1.814  12.245  16.759  0.00  0.00    +0.000 HD
ENDBRANCH  30  31
ENDBRANCH  28  30
ENDBRANCH  27  28
ENDBRANCH  19  27
ENDBRANCH  18  23
ENDBRANCH   1  18
TORSDOF 9
ENDMDL
MODEL 6
REMARK VINA RESULT:      -8.9      2.007      2.738
REMARK  Name = 
REMARK  9 active torsions:
REMARK  status: ('A' for Active; 'I' for Inactive)
REMARK    1  A    between atoms: C_2  and  O_3
REMARK    2  A    between atoms: C_2  and  C_4
REMARK    3  A    between atoms: C_4  and  C_5
REMARK    4  A    between atoms: C_5  and  C_6
REMARK    5  A    between atoms: C_10  and  O_11
REMARK    6  A    between atoms: O_11  and  C_12
REMARK    7  A    between atoms: C_12  and  C_13
REMARK    8  A    between atoms: C_14  and  C_15
REMARK    9  A    between atoms: N_21  and  C_22
REMARK                            x       y       z     vdW  Elec       q    Type
REMARK                         _______ _______ _______ _____ _____    ______ ____
ROOT
ATOM      1  C   UNL     1       2.430   5.422  18.090  0.00  0.00    +0.000 C 
ENDROOT
BRANCH   1   2
ATOM      2  C   UNL     1       2.965   4.253  18.887  0.00  0.00    +0.000 A 
ATOM      3  C   UNL     1       2.324   3.369  19.774  0.00  0.00    +0.000 A 
ATOM      4  C   UNL     1       3.276   2.360  20.094  0.00  0.00    +0.000 A 
ATOM      5  C   UNL     1       4.433   2.627  19.414  0.00  0.00    +0.000 A 
ATOM      6  N   UNL     1       4.289   3.805  18.708  0.00  0.00    +0.000 N 
BRANCH   6   7
ATOM      7  C   UNL     1       5.340   4.374  17.922  0.00  0.00    +0.000 A 
ATOM      8  C   UNL     1       5.494   4.061  16.564  0.00  0.00    +0.000 A 
ATOM      9  C   UNL     1       6.560   4.587  15.826  0.00  0.00    +0.000 A 
ATOM     10  C   UNL     1       7.465   5.457  16.427  0.00  0.00    +0.000 A 
ATOM     11  C   UNL     1       7.283   5.809  17.759  0.00  0.00    +0.000 A 
ATOM     12  F   UNL     1       8.144   6.659  18.334  0.00  0.00    +0.000 F 
ATOM     13  C   UNL     1       6.232   5.286  18.508  0.00  0.00    +0.000 A 
ENDBRANCH   6   7
BRANCH   3  14
ATOM     14  C   UNL     1       0.924   3.292  20.344  0.00  0.00    +0.000 C 
ATOM     15  F   UNL     1       0.268   4.455  20.528  0.00  0.00    +0.000 F 
ATOM     16  F   UNL     1       0.126   2.530  19.545  0.00  0.00    +0.000 F 
ATOM     17  F   UNL     1       0.941   2.673  21.556  0.00  0.00    +0.000 F 
ENDBRANCH   3  14
ENDBRANCH   1   2
BRANCH   1  18
ATOM     18  O   UNL     1       3.071   6.601  18.543  0.00  0.00    +0.000 OA
BRANCH  18  23
ATOM     19  C   UNL     1       0.856   9.861  19.959  0.00  0.00    +0.000 A 
ATOM     20  C   UNL     1       1.035   8.740  20.779  0.00  0.00    +0.000 A 
ATOM     21  C   UNL     1       1.734   7.622  20.317  0.00  0.00    +0.000 A 
ATOM     22  F   UNL     1       1.913   6.603  21.168  0.00  0.00    +0.000 F 
ATOM     23  C   UNL     1       2.260   7.589  19.030  0.00  0.00    +0.000 A 
ATOM     24  C   UNL     1       2.041   8.692  18.202  0.00  0.00    +0.000 A 
ATOM     25  F   UNL     1       2.487   8.690  16.937  0.00  0.00    +0.000 F 
ATOM     26  C   UNL     1       1.348   9.816  18.651  0.00  0.00    +0.000 A 
BRANCH  19  27
ATOM     27  C   UNL     1       0.149  11.093  20.469  0.00  0.00    +0.000 C 
BRANCH  27  28
ATOM     28  C   UNL     1      -1.042  10.749  21.363  0.00  0.00    +0.000 C 
BRANCH  28  30
ATOM     29  O   UNL     1      -0.709  12.291  23.206  0.00  0.00    +0.000 OA
ATOM     30  C   UNL     1      -0.784  11.145  22.793  0.00  0.00    +0.000 C 
BRANCH  30  31
ATOM     31  O   UNL     1      -0.648  10.074  23.608  0.00  0.00    +0.000 OA
ATOM     32  H   UNL     1       0.274   9.769  23.717  0.00  0.00    +0.000 HD
ENDBRANCH  30  31
ENDBRANCH  28  30
ENDBRANCH  27  28
ENDBRANCH  19  27
ENDBRANCH  18  23
ENDBRANCH   1  18
TORSDOF 9
ENDMDL
MODEL 7
REMARK VINA RESULT:      -8.9      2.206      2.724
REMARK  Name = 
REMARK  9 active torsions:
REMARK  status: ('A' for Active; 'I' for Inactive)
REMARK    1  A    between atoms: C_2  and  O_3
REMARK    2  A    between atoms: C_2  and  C_4
REMARK    3  A    between atoms: C_4  and  C_5
REMARK    4  A    between atoms: C_5  and  C_6
REMARK    5  A    between atoms: C_10  and  O_11
REMARK    6  A    between atoms: O_11  and  C_12
REMARK    7  A    between atoms: C_12  and  C_13
REMARK    8  A    between atoms: C_14  and  C_15
REMARK    9  A    between atoms: N_21  and  C_22
REMARK                            x       y       z     vdW  Elec       q    Type
REMARK                         _______ _______ _______ _____ _____    ______ ____
ROOT
ATOM      1  C   UNL     1       2.441   5.547  18.093  0.00  0.00    +0.000 C 
ENDROOT
BRANCH   1   2
ATOM      2  C   UNL     1       2.888   4.237  18.704  0.00  0.00    +0.000 A 
ATOM      3  C   UNL     1       2.231   3.355  19.579  0.00  0.00    +0.000 A 
ATOM      4  C   UNL     1       3.058   2.200  19.682  0.00  0.00    +0.000 A 
ATOM      5  C   UNL     1       4.157   2.385  18.888  0.00  0.00    +0.000 A 
ATOM      6  N   UNL     1       4.106   3.641  18.318  0.00  0.00    +0.000 N 
BRANCH   6   7
ATOM      7  C   UNL     1       5.133   4.151  17.462  0.00  0.00    +0.000 A 
ATOM      8  C   UNL     1       6.257   4.812  17.975  0.00  0.00    +0.000 A 
ATOM      9  C   UNL     1       7.224   5.350  17.118  0.00  0.00    +0.000 A 
ATOM     10  C   UNL     1       7.094   5.206  15.740  0.00  0.00    +0.000 A 
ATOM     11  C   UNL     1       6.006   4.505  15.232  0.00  0.00    +0.000 A 
ATOM     12  F   UNL     1       5.889   4.351  13.907  0.00  0.00    +0.000 F 
ATOM     13  C   UNL     1       5.032   3.973  16.073  0.00  0.00    +0.000 A 
ENDBRANCH   6   7
BRANCH   3  14
ATOM     14  C   UNL     1       0.907   3.400  20.312  0.00  0.00    +0.000 C 
ATOM     15  F   UNL     1       0.350   4.611  20.503  0.00  0.00    +0.000 F 
ATOM     16  F   UNL     1      -0.025   2.652  19.659  0.00  0.00    +0.000 F 
ATOM     17  F   UNL     1       1.034   2.845  21.549  0.00  0.00    +0.000 F 
ENDBRANCH   3  14
ENDBRANCH   1   2
BRANCH   1  18
ATOM     18  O   UNL     1       3.076   6.605  18.790  0.00  0.00    +0.000 OA
BRANCH  18  23
ATOM     19  C   UNL     1       0.391   9.593  19.973  0.00  0.00    +0.000 A 
ATOM     20  C   UNL     1       1.006   9.675  18.716  0.00  0.00    +0.000 A 
ATOM     21  C   UNL     1       1.937   8.715  18.314  0.00  0.00    +0.000 A 
ATOM     22  F   UNL     1       2.451   8.823  17.081  0.00  0.00    +0.000 F 
ATOM     23  C   UNL     1       2.285   7.660  19.150  0.00  0.00    +0.000 A 
ATOM     24  C   UNL     1       1.701   7.608  20.418  0.00  0.00    +0.000 A 
ATOM     25  F   UNL     1       2.038   6.637  21.281  0.00  0.00    +0.000 F 
ATOM     26  C   UNL     1       0.768   8.558  20.833  0.00  0.00    +0.000 A 
BRANCH  19  27
ATOM     27  C   UNL     1      -0.654  10.596  20.393  0.00  0.00    +0.000 C 
BRANCH  27  28
ATOM     28  C   UNL     1      -0.161  11.512  21.514  0.00  0.00    +0.000 C 
BRANCH  28  30
ATOM     29  O   UNL     1      -0.329  10.284  23.601  0.00  0.00    +0.000 OA
ATOM     30  C   UNL     1      -0.770  11.129  22.838  0.00  0.00    +0.000 C 
BRANCH  30  31
ATOM     31  O   UNL     1      -1.885  11.843  23.118  0.00  0.00    +0.000 OA
ATOM     32  H   UNL     1      -2.718  11.396  22.875  0.00  0.00    +0.000 HD
ENDBRANCH  30  31
ENDBRANCH  28  30
ENDBRANCH  27  28
ENDBRANCH  19  27
ENDBRANCH  18  23
ENDBRANCH   1  18
TORSDOF 9
ENDMDL
MODEL 8
REMARK VINA RESULT:      -8.9      1.341      2.343
REMARK  Name = 
REMARK  9 active torsions:
REMARK  status: ('A' for Active; 'I' for Inactive)
REMARK    1  A    between atoms: C_2  and  O_3
REMARK    2  A    between atoms: C_2  and  C_4
REMARK    3  A    between atoms: C_4  and  C_5
REMARK    4  A    between atoms: C_5  and  C_6
REMARK    5  A    between atoms: C_10  and  O_11
REMARK    6  A    between atoms: O_11  and  C_12
REMARK    7  A    between atoms: C_12  and  C_13
REMARK    8  A    between atoms: C_14  and  C_15
REMARK    9  A    between atoms: N_21  and  C_22
REMARK                            x       y       z     vdW  Elec       q    Type
REMARK                         _______ _______ _______ _____ _____    ______ ____
ROOT
ATOM      1  C   UNL     1       2.607   5.829  18.406  0.00  0.00    +0.000 C 
ENDROOT
BRANCH   1   2
ATOM      2  C   UNL     1       3.100   4.588  19.116  0.00  0.00    +0.000 A 
ATOM      3  C   UNL     1       2.411   3.621  19.871  0.00  0.00    +0.000 A 
ATOM      4  C   UNL     1       3.350   2.586  20.150  0.00  0.00    +0.000 A 
ATOM      5  C   UNL     1       4.544   2.920  19.572  0.00  0.00    +0.000 A 
ATOM      6  N   UNL     1       4.436   4.161  18.977  0.00  0.00    +0.000 N 
BRANCH   6   7
ATOM      7  C   UNL     1       5.529   4.806  18.318  0.00  0.00    +0.000 A 
ATOM      8  C   UNL     1       6.488   5.540  19.030  0.00  0.00    +0.000 A 
ATOM      9  C   UNL     1       7.519   6.208  18.362  0.00  0.00    +0.000 A 
ATOM     10  C   UNL     1       7.623   6.126  16.977  0.00  0.00    +0.000 A 
ATOM     11  C   UNL     1       6.703   5.356  16.273  0.00  0.00    +0.000 A 
ATOM     12  F   UNL     1       6.813   5.262  14.942  0.00  0.00    +0.000 F 
ATOM     13  C   UNL     1       5.667   4.693  16.925  0.00  0.00    +0.000 A 
ENDBRANCH   6   7
BRANCH   3  14
ATOM     14  C   UNL     1       0.979   3.487  20.343  0.00  0.00    +0.000 C 
ATOM     15  F   UNL     1       0.298   4.625  20.575  0.00  0.00    +0.000 F 
ATOM     16  F   UNL     1       0.244   2.784  19.437  0.00  0.00    +0.000 F 
ATOM     17  F   UNL     1       0.929   2.774  21.501  0.00  0.00    +0.000 F 
ENDBRANCH   3  14
ENDBRANCH   1   2
BRANCH   1  18
ATOM     18  O   UNL     1       2.950   6.958  19.190  0.00  0.00    +0.000 OA
BRANCH  18  23
ATOM     19  C   UNL     1       0.243  10.132  19.557  0.00  0.00    +0.000 A 
ATOM     20  C   UNL     1       0.410   9.240  20.625  0.00  0.00    +0.000 A 
ATOM     21  C   UNL     1       1.275   8.149  20.514  0.00  0.00    +0.000 A 
ATOM     22  F   UNL     1       1.428   7.363  21.588  0.00  0.00    +0.000 F 
ATOM     23  C   UNL     1       1.984   7.914  19.341  0.00  0.00    +0.000 A 
ATOM     24  C   UNL     1       1.780   8.781  18.265  0.00  0.00    +0.000 A 
ATOM     25  F   UNL     1       2.403   8.571  17.097  0.00  0.00    +0.000 F 
ATOM     26  C   UNL     1       0.922   9.876  18.362  0.00  0.00    +0.000 A 
BRANCH  19  27
ATOM     27  C   UNL     1      -0.649  11.342  19.688  0.00  0.00    +0.000 C 
BRANCH  27  28
ATOM     28  C   UNL     1       0.141  12.651  19.651  0.00  0.00    +0.000 C 
BRANCH  28  30
ATOM     29  O   UNL     1      -0.125  14.746  18.457  0.00  0.00    +0.000 OA
ATOM     30  C   UNL     1      -0.342  13.548  18.542  0.00  0.00    +0.000 C 
BRANCH  30  31
ATOM     31  O   UNL     1      -1.056  12.876  17.609  0.00  0.00    +0.000 OA
ATOM     32  H   UNL     1      -2.020  13.024  17.661  0.00  0.00    +0.000 HD
ENDBRANCH  30  31
ENDBRANCH  28  30
ENDBRANCH  27  28
ENDBRANCH  19  27
ENDBRANCH  18  23
ENDBRANCH   1  18
TORSDOF 9
ENDMDL
MODEL 9
REMARK VINA RESULT:      -8.8      0.687      1.036
REMARK  Name = 
REMARK  9 active torsions:
REMARK  status: ('A' for Active; 'I' for Inactive)
REMARK    1  A    between atoms: C_2  and  O_3
REMARK    2  A    between atoms: C_2  and  C_4
REMARK    3  A    between atoms: C_4  and  C_5
REMARK    4  A    between atoms: C_5  and  C_6
REMARK    5  A    between atoms: C_10  and  O_11
REMARK    6  A    between atoms: O_11  and  C_12
REMARK    7  A    between atoms: C_12  and  C_13
REMARK    8  A    between atoms: C_14  and  C_15
REMARK    9  A    between atoms: N_21  and  C_22
REMARK                            x       y       z     vdW  Elec       q    Type
REMARK                         _______ _______ _______ _____ _____    ______ ____
ROOT
ATOM      1  C   UNL     1       2.572   5.755  18.519  0.00  0.00    +0.000 C 
ENDROOT
BRANCH   1   2
ATOM      2  C   UNL     1       3.088   4.465  19.117  0.00  0.00    +0.000 A 
ATOM      3  C   UNL     1       2.445   3.488  19.899  0.00  0.00    +0.000 A 
ATOM      4  C   UNL     1       3.366   2.409  20.030  0.00  0.00    +0.000 A 
ATOM      5  C   UNL     1       4.505   2.728  19.342  0.00  0.00    +0.000 A 
ATOM      6  N   UNL     1       4.384   3.999  18.817  0.00  0.00    +0.000 N 
BRANCH   6   7
ATOM      7  C   UNL     1       5.426   4.637  18.073  0.00  0.00    +0.000 A 
ATOM      8  C   UNL     1       5.585   4.420  16.698  0.00  0.00    +0.000 A 
ATOM      9  C   UNL     1       6.643   5.011  15.997  0.00  0.00    +0.000 A 
ATOM     10  C   UNL     1       7.535   5.851  16.657  0.00  0.00    +0.000 A 
ATOM     11  C   UNL     1       7.348   6.108  18.011  0.00  0.00    +0.000 A 
ATOM     12  F   UNL     1       8.196   6.929  18.643  0.00  0.00    +0.000 F 
ATOM     13  C   UNL     1       6.305   5.520  18.721  0.00  0.00    +0.000 A 
ENDBRANCH   6   7
BRANCH   3  14
ATOM     14  C   UNL     1       1.067   3.381  20.515  0.00  0.00    +0.000 C 
ATOM     15  F   UNL     1       0.975   2.786  21.720  0.00  0.00    +0.000 F 
ATOM     16  F   UNL     1       0.513   4.617  20.659  0.00  0.00    +0.000 F 
ATOM     17  F   UNL     1       0.234   2.690  19.690  0.00  0.00    +0.000 F 
ENDBRANCH   3  14
ENDBRANCH   1   2
BRANCH   1  18
ATOM     18  O   UNL     1       2.837   6.807  19.430  0.00  0.00    +0.000 OA
BRANCH  18  23
ATOM     19  C   UNL     1       0.255  10.087  19.094  0.00  0.00    +0.000 A 
ATOM     20  C   UNL     1       1.068   9.734  18.009  0.00  0.00    +0.000 A 
ATOM     21  C   UNL     1       1.968   8.671  18.108  0.00  0.00    +0.000 A 
ATOM     22  F   UNL     1       2.681   8.353  17.019  0.00  0.00    +0.000 F 
ATOM     23  C   UNL     1       2.089   7.942  19.286  0.00  0.00    +0.000 A 
ATOM     24  C   UNL     1       1.307   8.326  20.378  0.00  0.00    +0.000 A 
ATOM     25  F   UNL     1       1.419   7.686  21.551  0.00  0.00    +0.000 F 
ATOM     26  C   UNL     1       0.401   9.383  20.293  0.00  0.00    +0.000 A 
BRANCH  19  27
ATOM     27  C   UNL     1      -0.758  11.199  18.977  0.00  0.00    +0.000 C 
BRANCH  27  28
ATOM     28  C   UNL     1      -1.930  10.824  18.070  0.00  0.00    +0.000 C 
BRANCH  28  30
ATOM     29  O   UNL     1      -4.285  11.401  17.990  0.00  0.00    +0.000 OA
ATOM     30  C   UNL     1      -3.161  11.621  18.412  0.00  0.00    +0.000 C 
BRANCH  30  31
ATOM     31  O   UNL     1      -2.898  12.633  19.270  0.00  0.00    +0.000 OA
ATOM     32  H   UNL     1      -3.020  12.401  20.211  0.00  0.00    +0.000 HD
ENDBRANCH  30  31
ENDBRANCH  28  30
ENDBRANCH  27  28
ENDBRANCH  19  27
ENDBRANCH  18  23
ENDBRANCH   1  18
TORSDOF 9
ENDMDL
