MODEL 1
REMARK VINA RESULT:      -8.1      0.000      0.000
REMARK  Name = 
REMARK  9 active torsions:
REMARK  status: ('A' for Active; 'I' for Inactive)
REMARK    1  A    between atoms: C_6  and  C_7
REMARK    2  A    between atoms: C_7  and  O_8
REMARK    3  A    between atoms: C_7  and  C_9
REMARK    4  A    between atoms: C_9  and  C_10
REMARK    5  A    between atoms: C_9  and  O_11
REMARK    6  A    between atoms: C_9  and  C_12
REMARK    7  A    between atoms: C_12  and  O_13
REMARK    8  A    between atoms: C_17  and  N_18
REMARK    9  A    between atoms: N_18  and  O_19
REMARK                            x       y       z     vdW  Elec       q    Type
REMARK                         _______ _______ _______ _____ _____    ______ ____
ROOT
ATOM      1  C   UNL     1       2.239   3.674  21.162  0.00  0.00    +0.000 C 
ATOM      2  C   UNL     1       2.339   3.751  19.813  0.00  0.00    +0.000 C 
ATOM      3  C   UNL     1       1.800   4.997  19.155  0.00  0.00    +0.000 C 
ATOM      4  C   UNL     1       2.846   5.725  18.327  0.00  0.00    +0.000 C 
ATOM      5  O   UNL     1       4.129   5.616  18.963  0.00  0.00    +0.000 OA
ATOM      6  C   UNL     1       5.015   4.623  18.447  0.00  0.00    +0.000 C 
ATOM      7  N   UNL     1       5.273   3.574  19.493  0.00  0.00    +0.000 N 
ATOM      8  C   UNL     1       4.485   2.428  19.563  0.00  0.00    +0.000 C 
ATOM      9  O   UNL     1       4.972   1.374  19.896  0.00  0.00    +0.000 OA
ATOM     10  C   UNL     1       3.048   2.670  18.992  0.00  0.00    +0.000 C 
ATOM     11  N   UNL     1       3.357   2.969  17.597  0.00  0.00    +0.000 N 
ATOM     12  C   UNL     1       4.451   3.775  17.244  0.00  0.00    +0.000 C 
ATOM     13  O   UNL     1       4.799   3.848  16.067  0.00  0.00    +0.000 OA
ATOM     14  H   UNL     1       6.253   3.311  19.565  0.00  0.00    +0.000 HD
ATOM     15  H   UNL     1       3.217   2.209  16.959  0.00  0.00    +0.000 HD
ENDROOT
BRANCH  10  16
ATOM     16  N   UNL     1       2.161   1.500  18.957  0.00  0.00    +0.000 NA
ATOM     17  H   UNL     1       2.569   0.814  18.317  0.00  0.00    +0.000 HD
BRANCH  16  18
ATOM     18  O   UNL     1       0.907   1.847  18.308  0.00  0.00    +0.000 OA
ATOM     19  H   UNL     1       0.730   1.054  17.765  0.00  0.00    +0.000 HD
ENDBRANCH  16  18
ENDBRANCH  10  16
BRANCH   6  20
ATOM     20  C   UNL     1       6.411   5.290  18.309  0.00  0.00    +0.000 C 
BRANCH  20  21
ATOM     21  O   UNL     1       7.438   4.264  18.312  0.00  0.00    +0.000 OA
ATOM     22  H   UNL     1       7.692   4.148  19.253  0.00  0.00    +0.000 HD
ENDBRANCH  20  21
BRANCH  20  23
ATOM     23  C   UNL     1       6.727   6.355  17.233  0.00  0.00    +0.000 C 
ATOM     24  C   UNL     1       7.756   7.340  17.827  0.00  0.00    +0.000 C 
BRANCH  23  25
ATOM     25  O   UNL     1       7.369   5.728  16.123  0.00  0.00    +0.000 OA
ATOM     26  H   UNL     1       6.655   5.339  15.576  0.00  0.00    +0.000 HD
ENDBRANCH  23  25
BRANCH  23  27
ATOM     27  C   UNL     1       5.499   7.137  16.727  0.00  0.00    +0.000 C 
BRANCH  27  28
ATOM     28  O   UNL     1       5.213   6.760  15.374  0.00  0.00    +0.000 OA
ATOM     29  H   UNL     1       5.658   5.910  15.206  0.00  0.00    +0.000 HD
ENDBRANCH  27  28
ENDBRANCH  23  27
ENDBRANCH  20  23
ENDBRANCH   6  20
TORSDOF 8
ENDMDL
MODEL 2
REMARK VINA RESULT:      -7.9      0.813      1.360
REMARK  Name = 
REMARK  9 active torsions:
REMARK  status: ('A' for Active; 'I' for Inactive)
REMARK    1  A    between atoms: C_6  and  C_7
REMARK    2  A    between atoms: C_7  and  O_8
REMARK    3  A    between atoms: C_7  and  C_9
REMARK    4  A    between atoms: C_9  and  C_10
REMARK    5  A    between atoms: C_9  and  O_11
REMARK    6  A    between atoms: C_9  and  C_12
REMARK    7  A    between atoms: C_12  and  O_13
REMARK    8  A    between atoms: C_17  and  N_18
REMARK    9  A    between atoms: N_18  and  O_19
REMARK                            x       y       z     vdW  Elec       q    Type
REMARK                         _______ _______ _______ _____ _____    ______ ____
ROOT
ATOM      1  C   UNL     1       2.338   3.822  21.480  0.00  0.00    +0.000 C 
ATOM      2  C   UNL     1       2.340   3.916  20.129  0.00  0.00    +0.000 C 
ATOM      3  C   UNL     1       1.823   5.200  19.529  0.00  0.00    +0.000 C 
ATOM      4  C   UNL     1       2.842   5.884  18.632  0.00  0.00    +0.000 C 
ATOM      5  O   UNL     1       4.161   5.695  19.167  0.00  0.00    +0.000 OA
ATOM      6  C   UNL     1       4.949   4.663  18.572  0.00  0.00    +0.000 C 
ATOM      7  N   UNL     1       5.228   3.585  19.582  0.00  0.00    +0.000 N 
ATOM      8  C   UNL     1       4.384   2.482  19.698  0.00  0.00    +0.000 C 
ATOM      9  O   UNL     1       4.836   1.398  19.980  0.00  0.00    +0.000 OA
ATOM     10  C   UNL     1       2.924   2.811  19.242  0.00  0.00    +0.000 C 
ATOM     11  N   UNL     1       3.142   3.116  17.831  0.00  0.00    +0.000 N 
ATOM     12  C   UNL     1       4.250   3.867  17.405  0.00  0.00    +0.000 C 
ATOM     13  O   UNL     1       4.510   3.940  16.206  0.00  0.00    +0.000 OA
ATOM     14  H   UNL     1       6.194   3.268  19.576  0.00  0.00    +0.000 HD
ATOM     15  H   UNL     1       2.913   2.375  17.197  0.00  0.00    +0.000 HD
ENDROOT
BRANCH  10  16
ATOM     16  N   UNL     1       1.973   1.692  19.261  0.00  0.00    +0.000 NA
ATOM     17  H   UNL     1       2.457   0.861  18.910  0.00  0.00    +0.000 HD
BRANCH  16  18
ATOM     18  O   UNL     1       0.933   1.907  18.268  0.00  0.00    +0.000 OA
ATOM     19  H   UNL     1       0.768   1.000  17.943  0.00  0.00    +0.000 HD
ENDBRANCH  16  18
ENDBRANCH  10  16
BRANCH   6  20
ATOM     20  C   UNL     1       6.365   5.256  18.336  0.00  0.00    +0.000 C 
BRANCH  20  21
ATOM     21  O   UNL     1       7.333   4.177  18.262  0.00  0.00    +0.000 OA
ATOM     22  H   UNL     1       7.380   3.929  17.313  0.00  0.00    +0.000 HD
ENDBRANCH  20  21
BRANCH  20  23
ATOM     23  C   UNL     1       6.660   6.310  17.243  0.00  0.00    +0.000 C 
ATOM     24  C   UNL     1       7.277   5.579  16.031  0.00  0.00    +0.000 C 
BRANCH  23  25
ATOM     25  O   UNL     1       5.429   6.872  16.786  0.00  0.00    +0.000 OA
ATOM     26  H   UNL     1       4.733   6.218  17.000  0.00  0.00    +0.000 HD
ENDBRANCH  23  25
BRANCH  23  27
ATOM     27  C   UNL     1       7.597   7.449  17.689  0.00  0.00    +0.000 C 
BRANCH  27  28
ATOM     28  O   UNL     1       8.341   7.036  18.842  0.00  0.00    +0.000 OA
ATOM     29  H   UNL     1       9.119   6.542  18.527  0.00  0.00    +0.000 HD
ENDBRANCH  27  28
ENDBRANCH  23  27
ENDBRANCH  20  23
ENDBRANCH   6  20
TORSDOF 8
ENDMDL
MODEL 3
REMARK VINA RESULT:      -7.9      2.135      5.556
REMARK  Name = 
REMARK  9 active torsions:
REMARK  status: ('A' for Active; 'I' for Inactive)
REMARK    1  A    between atoms: C_6  and  C_7
REMARK    2  A    between atoms: C_7  and  O_8
REMARK    3  A    between atoms: C_7  and  C_9
REMARK    4  A    between atoms: C_9  and  C_10
REMARK    5  A    between atoms: C_9  and  O_11
REMARK    6  A    between atoms: C_9  and  C_12
REMARK    7  A    between atoms: C_12  and  O_13
REMARK    8  A    between atoms: C_17  and  N_18
REMARK    9  A    between atoms: N_18  and  O_19
REMARK                            x       y       z     vdW  Elec       q    Type
REMARK                         _______ _______ _______ _____ _____    ______ ____
ROOT
ATOM      1  C   UNL     1       7.651   7.735  17.705  0.00  0.00    +0.000 C 
ATOM      2  C   UNL     1       7.391   6.408  17.639  0.00  0.00    +0.000 C 
ATOM      3  C   UNL     1       7.774   5.573  18.835  0.00  0.00    +0.000 C 
ATOM      4  C   UNL     1       6.597   4.811  19.423  0.00  0.00    +0.000 C 
ATOM      5  O   UNL     1       5.406   5.605  19.319  0.00  0.00    +0.000 OA
ATOM      6  C   UNL     1       4.527   5.298  18.236  0.00  0.00    +0.000 C 
ATOM      7  N   UNL     1       4.455   6.464  17.289  0.00  0.00    +0.000 N 
ATOM      8  C   UNL     1       5.314   6.548  16.195  0.00  0.00    +0.000 C 
ATOM      9  O   UNL     1       4.933   7.037  15.159  0.00  0.00    +0.000 OA
ATOM     10  C   UNL     1       6.658   5.787  16.447  0.00  0.00    +0.000 C 
ATOM     11  N   UNL     1       6.173   4.417  16.585  0.00  0.00    +0.000 N 
ATOM     12  C   UNL     1       4.998   4.123  17.297  0.00  0.00    +0.000 C 
ATOM     13  O   UNL     1       4.513   2.996  17.232  0.00  0.00    +0.000 OA
ATOM     14  H   UNL     1       3.508   6.679  16.988  0.00  0.00    +0.000 HD
ATOM     15  H   UNL     1       6.282   3.843  15.771  0.00  0.00    +0.000 HD
ENDROOT
BRANCH  10  16
ATOM     16  N   UNL     1       7.604   5.757  15.324  0.00  0.00    +0.000 NA
ATOM     17  H   UNL     1       7.785   6.723  15.038  0.00  0.00    +0.000 HD
BRANCH  16  18
ATOM     18  O   UNL     1       6.965   5.184  14.151  0.00  0.00    +0.000 OA
ATOM     19  H   UNL     1       6.831   5.969  13.584  0.00  0.00    +0.000 HD
ENDBRANCH  16  18
ENDBRANCH  10  16
BRANCH   6  20
ATOM     20  C   UNL     1       3.087   5.267  18.818  0.00  0.00    +0.000 C 
BRANCH  20  21
ATOM     21  O   UNL     1       2.132   5.510  17.752  0.00  0.00    +0.000 OA
ATOM     22  H   UNL     1       2.043   4.656  17.278  0.00  0.00    +0.000 HD
ENDBRANCH  20  21
BRANCH  20  23
ATOM     23  C   UNL     1       2.580   4.132  19.737  0.00  0.00    +0.000 C 
ATOM     24  C   UNL     1       1.436   3.400  19.003  0.00  0.00    +0.000 C 
BRANCH  23  25
ATOM     25  O   UNL     1       3.620   3.170  19.915  0.00  0.00    +0.000 OA
ATOM     26  H   UNL     1       4.169   3.204  19.105  0.00  0.00    +0.000 HD
ENDBRANCH  23  25
BRANCH  23  27
ATOM     27  C   UNL     1       2.088   4.600  21.120  0.00  0.00    +0.000 C 
BRANCH  27  28
ATOM     28  O   UNL     1       2.231   3.535  22.068  0.00  0.00    +0.000 OA
ATOM     29  H   UNL     1       2.708   3.892  22.840  0.00  0.00    +0.000 HD
ENDBRANCH  27  28
ENDBRANCH  23  27
ENDBRANCH  20  23
ENDBRANCH   6  20
TORSDOF 8
ENDMDL
MODEL 4
REMARK VINA RESULT:      -7.7      2.057      5.465
REMARK  Name = 
REMARK  9 active torsions:
REMARK  status: ('A' for Active; 'I' for Inactive)
REMARK    1  A    between atoms: C_6  and  C_7
REMARK    2  A    between atoms: C_7  and  O_8
REMARK    3  A    between atoms: C_7  and  C_9
REMARK    4  A    between atoms: C_9  and  C_10
REMARK    5  A    between atoms: C_9  and  O_11
REMARK    6  A    between atoms: C_9  and  C_12
REMARK    7  A    between atoms: C_12  and  O_13
REMARK    8  A    between atoms: C_17  and  N_18
REMARK    9  A    between atoms: N_18  and  O_19
REMARK                            x       y       z     vdW  Elec       q    Type
REMARK                         _______ _______ _______ _____ _____    ______ ____
ROOT
ATOM      1  C   UNL     1       7.386   7.717  17.729  0.00  0.00    +0.000 C 
ATOM      2  C   UNL     1       7.185   6.379  17.667  0.00  0.00    +0.000 C 
ATOM      3  C   UNL     1       7.505   5.579  18.905  0.00  0.00    +0.000 C 
ATOM      4  C   UNL     1       6.316   4.779  19.413  0.00  0.00    +0.000 C 
ATOM      5  O   UNL     1       5.106   5.522  19.199  0.00  0.00    +0.000 OA
ATOM      6  C   UNL     1       4.329   5.162  18.057  0.00  0.00    +0.000 C 
ATOM      7  N   UNL     1       4.286   6.309  17.085  0.00  0.00    +0.000 N 
ATOM      8  C   UNL     1       5.225   6.411  16.061  0.00  0.00    +0.000 C 
ATOM      9  O   UNL     1       4.908   6.869  14.989  0.00  0.00    +0.000 OA
ATOM     10  C   UNL     1       6.574   5.710  16.432  0.00  0.00    +0.000 C 
ATOM     11  N   UNL     1       6.134   4.324  16.557  0.00  0.00    +0.000 N 
ATOM     12  C   UNL     1       4.919   3.993  17.180  0.00  0.00    +0.000 C 
ATOM     13  O   UNL     1       4.486   2.845  17.098  0.00  0.00    +0.000 OA
ATOM     14  H   UNL     1       3.358   6.480  16.707  0.00  0.00    +0.000 HD
ATOM     15  H   UNL     1       6.331   3.742  15.766  0.00  0.00    +0.000 HD
ENDROOT
BRANCH  10  16
ATOM     16  N   UNL     1       7.607   5.702  15.388  0.00  0.00    +0.000 NA
ATOM     17  H   UNL     1       7.809   6.674  15.137  0.00  0.00    +0.000 HD
BRANCH  16  18
ATOM     18  O   UNL     1       7.064   5.154  14.156  0.00  0.00    +0.000 OA
ATOM     19  H   UNL     1       7.778   4.554  13.865  0.00  0.00    +0.000 HD
ENDBRANCH  16  18
ENDBRANCH  10  16
BRANCH   6  20
ATOM     20  C   UNL     1       2.850   5.080  18.523  0.00  0.00    +0.000 C 
BRANCH  20  21
ATOM     21  O   UNL     1       2.053   4.441  17.492  0.00  0.00    +0.000 OA
ATOM     22  H   UNL     1       1.703   5.171  16.938  0.00  0.00    +0.000 HD
ENDBRANCH  20  21
BRANCH  20  23
ATOM     23  C   UNL     1       2.440   4.550  19.917  0.00  0.00    +0.000 C 
ATOM     24  C   UNL     1       3.093   3.164  20.109  0.00  0.00    +0.000 C 
BRANCH  23  25
ATOM     25  O   UNL     1       2.994   5.396  20.925  0.00  0.00    +0.000 OA
ATOM     26  H   UNL     1       3.959   5.419  20.765  0.00  0.00    +0.000 HD
ENDBRANCH  23  25
BRANCH  23  27
ATOM     27  C   UNL     1       0.919   4.436  20.137  0.00  0.00    +0.000 C 
BRANCH  27  28
ATOM     28  O   UNL     1       0.492   3.096  19.861  0.00  0.00    +0.000 OA
ATOM     29  H   UNL     1       0.413   2.633  20.714  0.00  0.00    +0.000 HD
ENDBRANCH  27  28
ENDBRANCH  23  27
ENDBRANCH  20  23
ENDBRANCH   6  20
TORSDOF 8
ENDMDL
MODEL 5
REMARK VINA RESULT:      -7.7      1.262      1.466
REMARK  Name = 
REMARK  9 active torsions:
REMARK  status: ('A' for Active; 'I' for Inactive)
REMARK    1  A    between atoms: C_6  and  C_7
REMARK    2  A    between atoms: C_7  and  O_8
REMARK    3  A    between atoms: C_7  and  C_9
REMARK    4  A    between atoms: C_9  and  C_10
REMARK    5  A    between atoms: C_9  and  O_11
REMARK    6  A    between atoms: C_9  and  C_12
REMARK    7  A    between atoms: C_12  and  O_13
REMARK    8  A    between atoms: C_17  and  N_18
REMARK    9  A    between atoms: N_18  and  O_19
REMARK                            x       y       z     vdW  Elec       q    Type
REMARK                         _______ _______ _______ _____ _____    ______ ____
ROOT
ATOM      1  C   UNL     1       2.250   2.730  21.682  0.00  0.00    +0.000 C 
ATOM      2  C   UNL     1       2.068   3.329  20.481  0.00  0.00    +0.000 C 
ATOM      3  C   UNL     1       1.548   4.745  20.492  0.00  0.00    +0.000 C 
ATOM      4  C   UNL     1       2.469   5.717  19.773  0.00  0.00    +0.000 C 
ATOM      5  O   UNL     1       3.837   5.338  19.992  0.00  0.00    +0.000 OA
ATOM      6  C   UNL     1       4.473   4.609  18.942  0.00  0.00    +0.000 C 
ATOM      7  N   UNL     1       4.827   3.228  19.421  0.00  0.00    +0.000 N 
ATOM      8  C   UNL     1       3.946   2.163  19.242  0.00  0.00    +0.000 C 
ATOM      9  O   UNL     1       4.369   1.053  19.026  0.00  0.00    +0.000 OA
ATOM     10  C   UNL     1       2.458   2.642  19.169  0.00  0.00    +0.000 C 
ATOM     11  N   UNL     1       2.494   3.458  17.959  0.00  0.00    +0.000 N 
ATOM     12  C   UNL     1       3.573   4.314  17.682  0.00  0.00    +0.000 C 
ATOM     13  O   UNL     1       3.667   4.835  16.574  0.00  0.00    +0.000 OA
ATOM     14  H   UNL     1       5.763   2.936  19.150  0.00  0.00    +0.000 HD
ATOM     15  H   UNL     1       2.136   3.013  17.136  0.00  0.00    +0.000 HD
ENDROOT
BRANCH  10  16
ATOM     16  N   UNL     1       1.456   1.600  18.911  0.00  0.00    +0.000 NA
ATOM     17  H   UNL     1       1.767   1.056  18.102  0.00  0.00    +0.000 HD
BRANCH  16  18
ATOM     18  O   UNL     1       0.220   2.204  18.441  0.00  0.00    +0.000 OA
ATOM     19  H   UNL     1       0.500   2.621  17.602  0.00  0.00    +0.000 HD
ENDBRANCH  16  18
ENDBRANCH  10  16
BRANCH   6  20
ATOM     20  C   UNL     1       5.875   5.245  18.734  0.00  0.00    +0.000 C 
BRANCH  20  21
ATOM     21  O   UNL     1       6.627   5.170  19.973  0.00  0.00    +0.000 OA
ATOM     22  H   UNL     1       6.011   5.473  20.675  0.00  0.00    +0.000 HD
ENDBRANCH  20  21
BRANCH  20  23
ATOM     23  C   UNL     1       6.786   4.889  17.536  0.00  0.00    +0.000 C 
ATOM     24  C   UNL     1       8.177   4.515  18.092  0.00  0.00    +0.000 C 
BRANCH  23  25
ATOM     25  O   UNL     1       6.284   3.716  16.895  0.00  0.00    +0.000 OA
ATOM     26  H   UNL     1       6.298   3.006  17.569  0.00  0.00    +0.000 HD
ENDBRANCH  23  25
BRANCH  23  27
ATOM     27  C   UNL     1       6.935   6.009  16.489  0.00  0.00    +0.000 C 
BRANCH  27  28
ATOM     28  O   UNL     1       7.462   5.465  15.273  0.00  0.00    +0.000 OA
ATOM     29  H   UNL     1       8.358   5.135  15.463  0.00  0.00    +0.000 HD
ENDBRANCH  27  28
ENDBRANCH  23  27
ENDBRANCH  20  23
ENDBRANCH   6  20
TORSDOF 8
ENDMDL
MODEL 6
REMARK VINA RESULT:      -7.6      2.024      3.248
REMARK  Name = 
REMARK  9 active torsions:
REMARK  status: ('A' for Active; 'I' for Inactive)
REMARK    1  A    between atoms: C_6  and  C_7
REMARK    2  A    between atoms: C_7  and  O_8
REMARK    3  A    between atoms: C_7  and  C_9
REMARK    4  A    between atoms: C_9  and  C_10
REMARK    5  A    between atoms: C_9  and  O_11
REMARK    6  A    between atoms: C_9  and  C_12
REMARK    7  A    between atoms: C_12  and  O_13
REMARK    8  A    between atoms: C_17  and  N_18
REMARK    9  A    between atoms: N_18  and  O_19
REMARK                            x       y       z     vdW  Elec       q    Type
REMARK                         _______ _______ _______ _____ _____    ______ ____
ROOT
ATOM      1  C   UNL     1       0.487   3.211  19.064  0.00  0.00    +0.000 C 
ATOM      2  C   UNL     1       1.792   2.968  19.333  0.00  0.00    +0.000 C 
ATOM      3  C   UNL     1       2.383   1.699  18.771  0.00  0.00    +0.000 C 
ATOM      4  C   UNL     1       3.592   1.954  17.885  0.00  0.00    +0.000 C 
ATOM      5  O   UNL     1       3.405   3.173  17.150  0.00  0.00    +0.000 OA
ATOM      6  C   UNL     1       4.058   4.335  17.663  0.00  0.00    +0.000 C 
ATOM      7  N   UNL     1       3.034   5.349  18.095  0.00  0.00    +0.000 N 
ATOM      8  C   UNL     1       2.570   5.378  19.408  0.00  0.00    +0.000 C 
ATOM      9  O   UNL     1       2.289   6.430  19.930  0.00  0.00    +0.000 OA
ATOM     10  C   UNL     1       2.662   3.974  20.092  0.00  0.00    +0.000 C 
ATOM     11  N   UNL     1       4.106   3.763  20.088  0.00  0.00    +0.000 N 
ATOM     12  C   UNL     1       4.896   4.112  18.980  0.00  0.00    +0.000 C 
ATOM     13  O   UNL     1       6.120   4.105  19.079  0.00  0.00    +0.000 OA
ATOM     14  H   UNL     1       3.257   6.295  17.798  0.00  0.00    +0.000 HD
ATOM     15  H   UNL     1       4.565   3.948  20.960  0.00  0.00    +0.000 HD
ENDROOT
BRANCH  10  16
ATOM     16  N   UNL     1       2.260   3.915  21.504  0.00  0.00    +0.000 NA
ATOM     17  H   UNL     1       2.827   4.591  22.021  0.00  0.00    +0.000 HD
BRANCH  16  18
ATOM     18  O   UNL     1       2.660   2.643  22.082  0.00  0.00    +0.000 OA
ATOM     19  H   UNL     1       3.558   2.841  22.414  0.00  0.00    +0.000 HD
ENDBRANCH  16  18
ENDBRANCH  10  16
BRANCH   6  20
ATOM     20  C   UNL     1       4.727   5.047  16.456  0.00  0.00    +0.000 C 
BRANCH  20  21
ATOM     21  O   UNL     1       5.159   6.374  16.858  0.00  0.00    +0.000 OA
ATOM     22  H   UNL     1       4.413   6.750  17.373  0.00  0.00    +0.000 HD
ENDBRANCH  20  21
BRANCH  20  23
ATOM     23  C   UNL     1       5.815   4.375  15.586  0.00  0.00    +0.000 C 
ATOM     24  C   UNL     1       7.144   5.123  15.824  0.00  0.00    +0.000 C 
BRANCH  23  25
ATOM     25  O   UNL     1       6.022   3.037  16.040  0.00  0.00    +0.000 OA
ATOM     26  H   UNL     1       5.942   3.063  17.015  0.00  0.00    +0.000 HD
ENDBRANCH  23  25
BRANCH  23  27
ATOM     27  C   UNL     1       5.502   4.350  14.077  0.00  0.00    +0.000 C 
BRANCH  27  28
ATOM     28  O   UNL     1       6.271   3.321  13.443  0.00  0.00    +0.000 OA
ATOM     29  H   UNL     1       6.212   3.461  12.481  0.00  0.00    +0.000 HD
ENDBRANCH  27  28
ENDBRANCH  23  27
ENDBRANCH  20  23
ENDBRANCH   6  20
TORSDOF 8
ENDMDL
MODEL 7
REMARK VINA RESULT:      -7.4      1.358      1.854
REMARK  Name = 
REMARK  9 active torsions:
REMARK  status: ('A' for Active; 'I' for Inactive)
REMARK    1  A    between atoms: C_6  and  C_7
REMARK    2  A    between atoms: C_7  and  O_8
REMARK    3  A    between atoms: C_7  and  C_9
REMARK    4  A    between atoms: C_9  and  C_10
REMARK    5  A    between atoms: C_9  and  O_11
REMARK    6  A    between atoms: C_9  and  C_12
REMARK    7  A    between atoms: C_12  and  O_13
REMARK    8  A    between atoms: C_17  and  N_18
REMARK    9  A    between atoms: N_18  and  O_19
REMARK                            x       y       z     vdW  Elec       q    Type
REMARK                         _______ _______ _______ _____ _____    ______ ____
ROOT
ATOM      1  C   UNL     1       2.549   2.811  21.533  0.00  0.00    +0.000 C 
ATOM      2  C   UNL     1       2.361   3.440  20.348  0.00  0.00    +0.000 C 
ATOM      3  C   UNL     1       2.147   4.933  20.390  0.00  0.00    +0.000 C 
ATOM      4  C   UNL     1       3.162   5.697  19.556  0.00  0.00    +0.000 C 
ATOM      5  O   UNL     1       4.439   5.044  19.630  0.00  0.00    +0.000 OA
ATOM      6  C   UNL     1       4.791   4.204  18.530  0.00  0.00    +0.000 C 
ATOM      7  N   UNL     1       4.904   2.777  18.993  0.00  0.00    +0.000 N 
ATOM      8  C   UNL     1       3.809   1.918  18.931  0.00  0.00    +0.000 C 
ATOM      9  O   UNL     1       3.968   0.746  18.690  0.00  0.00    +0.000 OA
ATOM     10  C   UNL     1       2.452   2.694  19.014  0.00  0.00    +0.000 C 
ATOM     11  N   UNL     1       2.520   3.491  17.792  0.00  0.00    +0.000 N 
ATOM     12  C   UNL     1       3.714   4.107  17.383  0.00  0.00    +0.000 C 
ATOM     13  O   UNL     1       3.789   4.603  16.261  0.00  0.00    +0.000 OA
ATOM     14  H   UNL     1       5.724   2.300  18.626  0.00  0.00    +0.000 HD
ATOM     15  H   UNL     1       1.989   3.133  17.022  0.00  0.00    +0.000 HD
ENDROOT
BRANCH  10  16
ATOM     16  N   UNL     1       1.235   1.882  18.887  0.00  0.00    +0.000 NA
ATOM     17  H   UNL     1       1.059   1.731  17.890  0.00  0.00    +0.000 HD
BRANCH  16  18
ATOM     18  O   UNL     1       0.077   2.653  19.308  0.00  0.00    +0.000 OA
ATOM     19  H   UNL     1       0.277   2.827  20.249  0.00  0.00    +0.000 HD
ENDBRANCH  16  18
ENDBRANCH  10  16
BRANCH   6  20
ATOM     20  C   UNL     1       6.261   4.539  18.157  0.00  0.00    +0.000 C 
BRANCH  20  21
ATOM     21  O   UNL     1       6.661   3.743  17.012  0.00  0.00    +0.000 OA
ATOM     22  H   UNL     1       6.294   4.205  16.228  0.00  0.00    +0.000 HD
ENDBRANCH  20  21
BRANCH  20  23
ATOM     23  C   UNL     1       6.775   5.990  18.002  0.00  0.00    +0.000 C 
ATOM     24  C   UNL     1       7.288   6.160  16.556  0.00  0.00    +0.000 C 
BRANCH  23  25
ATOM     25  O   UNL     1       5.680   6.895  18.146  0.00  0.00    +0.000 OA
ATOM     26  H   UNL     1       5.052   6.471  18.765  0.00  0.00    +0.000 HD
ENDBRANCH  23  25
BRANCH  23  27
ATOM     27  C   UNL     1       7.886   6.384  18.993  0.00  0.00    +0.000 C 
BRANCH  27  28
ATOM     28  O   UNL     1       7.780   5.586  20.178  0.00  0.00    +0.000 OA
ATOM     29  H   UNL     1       7.373   6.139  20.869  0.00  0.00    +0.000 HD
ENDBRANCH  27  28
ENDBRANCH  23  27
ENDBRANCH  20  23
ENDBRANCH   6  20
TORSDOF 8
ENDMDL
MODEL 8
REMARK VINA RESULT:      -7.2      2.162      3.564
REMARK  Name = 
REMARK  9 active torsions:
REMARK  status: ('A' for Active; 'I' for Inactive)
REMARK    1  A    between atoms: C_6  and  C_7
REMARK    2  A    between atoms: C_7  and  O_8
REMARK    3  A    between atoms: C_7  and  C_9
REMARK    4  A    between atoms: C_9  and  C_10
REMARK    5  A    between atoms: C_9  and  O_11
REMARK    6  A    between atoms: C_9  and  C_12
REMARK    7  A    between atoms: C_12  and  O_13
REMARK    8  A    between atoms: C_17  and  N_18
REMARK    9  A    between atoms: N_18  and  O_19
REMARK                            x       y       z     vdW  Elec       q    Type
REMARK                         _______ _______ _______ _____ _____    ______ ____
ROOT
ATOM      1  C   UNL     1       0.953   3.640  18.826  0.00  0.00    +0.000 C 
ATOM      2  C   UNL     1       2.191   3.856  19.332  0.00  0.00    +0.000 C 
ATOM      3  C   UNL     1       3.094   2.657  19.475  0.00  0.00    +0.000 C 
ATOM      4  C   UNL     1       4.406   2.815  18.724  0.00  0.00    +0.000 C 
ATOM      5  O   UNL     1       4.182   3.539  17.505  0.00  0.00    +0.000 OA
ATOM      6  C   UNL     1       4.505   4.930  17.520  0.00  0.00    +0.000 C 
ATOM      7  N   UNL     1       3.257   5.747  17.323  0.00  0.00    +0.000 N 
ATOM      8  C   UNL     1       2.520   6.196  18.417  0.00  0.00    +0.000 C 
ATOM      9  O   UNL     1       1.960   7.266  18.375  0.00  0.00    +0.000 OA
ATOM     10  C   UNL     1       2.694   5.265  19.662  0.00  0.00    +0.000 C 
ATOM     11  N   UNL     1       4.119   5.433  19.930  0.00  0.00    +0.000 N 
ATOM     12  C   UNL     1       5.061   5.479  18.889  0.00  0.00    +0.000 C 
ATOM     13  O   UNL     1       6.219   5.814  19.130  0.00  0.00    +0.000 OA
ATOM     14  H   UNL     1       3.378   6.511  16.664  0.00  0.00    +0.000 HD
ATOM     15  H   UNL     1       4.340   6.064  20.676  0.00  0.00    +0.000 HD
ENDROOT
BRANCH  10  16
ATOM     16  N   UNL     1       2.010   5.693  20.890  0.00  0.00    +0.000 NA
ATOM     17  H   UNL     1       1.011   5.502  20.777  0.00  0.00    +0.000 HD
BRANCH  16  18
ATOM     18  O   UNL     1       2.054   7.141  21.004  0.00  0.00    +0.000 OA
ATOM     19  H   UNL     1       2.364   7.266  21.923  0.00  0.00    +0.000 HD
ENDBRANCH  16  18
ENDBRANCH  10  16
BRANCH   6  20
ATOM     20  C   UNL     1       5.292   5.226  16.214  0.00  0.00    +0.000 C 
BRANCH  20  21
ATOM     21  O   UNL     1       5.707   6.617  16.206  0.00  0.00    +0.000 OA
ATOM     22  H   UNL     1       5.364   6.999  17.042  0.00  0.00    +0.000 HD
ENDBRANCH  20  21
BRANCH  20  23
ATOM     23  C   UNL     1       6.443   4.325  15.709  0.00  0.00    +0.000 C 
ATOM     24  C   UNL     1       7.614   4.445  16.707  0.00  0.00    +0.000 C 
BRANCH  23  25
ATOM     25  O   UNL     1       6.025   2.960  15.746  0.00  0.00    +0.000 OA
ATOM     26  H   UNL     1       5.893   2.687  14.815  0.00  0.00    +0.000 HD
ENDBRANCH  23  25
BRANCH  23  27
ATOM     27  C   UNL     1       6.940   4.658  14.289  0.00  0.00    +0.000 C 
BRANCH  27  28
ATOM     28  O   UNL     1       7.983   5.639  14.363  0.00  0.00    +0.000 OA
ATOM     29  H   UNL     1       8.180   5.926  13.453  0.00  0.00    +0.000 HD
ENDBRANCH  27  28
ENDBRANCH  23  27
ENDBRANCH  20  23
ENDBRANCH   6  20
TORSDOF 8
ENDMDL
MODEL 9
REMARK VINA RESULT:      -7.1      1.934      5.377
REMARK  Name = 
REMARK  9 active torsions:
REMARK  status: ('A' for Active; 'I' for Inactive)
REMARK    1  A    between atoms: C_6  and  C_7
REMARK    2  A    between atoms: C_7  and  O_8
REMARK    3  A    between atoms: C_7  and  C_9
REMARK    4  A    between atoms: C_9  and  C_10
REMARK    5  A    between atoms: C_9  and  O_11
REMARK    6  A    between atoms: C_9  and  C_12
REMARK    7  A    between atoms: C_12  and  O_13
REMARK    8  A    between atoms: C_17  and  N_18
REMARK    9  A    between atoms: N_18  and  O_19
REMARK                            x       y       z     vdW  Elec       q    Type
REMARK                         _______ _______ _______ _____ _____    ______ ____
ROOT
ATOM      1  C   UNL     1       4.798   6.945  15.061  0.00  0.00    +0.000 C 
ATOM      2  C   UNL     1       5.103   6.664  16.350  0.00  0.00    +0.000 C 
ATOM      3  C   UNL     1       4.234   7.290  17.413  0.00  0.00    +0.000 C 
ATOM      4  C   UNL     1       3.594   6.261  18.332  0.00  0.00    +0.000 C 
ATOM      5  O   UNL     1       3.261   5.083  17.581  0.00  0.00    +0.000 OA
ATOM      6  C   UNL     1       4.172   3.987  17.677  0.00  0.00    +0.000 C 
ATOM      7  N   UNL     1       4.796   3.723  16.334  0.00  0.00    +0.000 N 
ATOM      8  C   UNL     1       6.001   4.324  15.977  0.00  0.00    +0.000 C 
ATOM      9  O   UNL     1       6.795   3.732  15.287  0.00  0.00    +0.000 OA
ATOM     10  C   UNL     1       6.219   5.683  16.722  0.00  0.00    +0.000 C 
ATOM     11  N   UNL     1       6.290   5.227  18.106  0.00  0.00    +0.000 N 
ATOM     12  C   UNL     1       5.428   4.232  18.596  0.00  0.00    +0.000 C 
ATOM     13  O   UNL     1       5.639   3.733  19.700  0.00  0.00    +0.000 OA
ATOM     14  H   UNL     1       4.832   2.735  16.095  0.00  0.00    +0.000 HD
ATOM     15  H   UNL     1       7.216   5.151  18.482  0.00  0.00    +0.000 HD
ENDROOT
BRANCH  10  16
ATOM     16  N   UNL     1       7.496   6.363  16.466  0.00  0.00    +0.000 NA
ATOM     17  H   UNL     1       8.229   5.858  16.971  0.00  0.00    +0.000 HD
BRANCH  16  18
ATOM     18  O   UNL     1       7.501   7.669  17.104  0.00  0.00    +0.000 OA
ATOM     19  H   UNL     1       8.432   7.757  17.386  0.00  0.00    +0.000 HD
ENDBRANCH  16  18
ENDBRANCH  10  16
BRANCH   6  20
ATOM     20  C   UNL     1       3.318   2.708  17.892  0.00  0.00    +0.000 C 
BRANCH  20  21
ATOM     21  O   UNL     1       4.194   1.587  18.179  0.00  0.00    +0.000 OA
ATOM     22  H   UNL     1       5.024   1.981  18.522  0.00  0.00    +0.000 HD
ENDBRANCH  20  21
BRANCH  20  23
ATOM     23  C   UNL     1       2.085   2.672  18.825  0.00  0.00    +0.000 C 
ATOM     24  C   UNL     1       0.967   3.511  18.169  0.00  0.00    +0.000 C 
BRANCH  23  25
ATOM     25  O   UNL     1       1.589   1.335  18.900  0.00  0.00    +0.000 OA
ATOM     26  H   UNL     1       1.176   1.244  19.783  0.00  0.00    +0.000 HD
ENDBRANCH  23  25
BRANCH  23  27
ATOM     27  C   UNL     1       2.347   3.191  20.252  0.00  0.00    +0.000 C 
BRANCH  27  28
ATOM     28  O   UNL     1       3.438   2.467  20.834  0.00  0.00    +0.000 OA
ATOM     29  H   UNL     1       3.401   1.555  20.492  0.00  0.00    +0.000 HD
ENDBRANCH  27  28
ENDBRANCH  23  27
ENDBRANCH  20  23
ENDBRANCH   6  20
TORSDOF 8
ENDMDL
