MODEL 1
REMARK VINA RESULT:      -7.1      0.000      0.000
REMARK  Name = 
REMARK  5 active torsions:
REMARK  status: ('A' for Active; 'I' for Inactive)
REMARK    1  A    between atoms: C_1  and  C_2
REMARK    2  A    between atoms: C_2  and  O_3
REMARK    3  A    between atoms: O_3  and  C_4
REMARK    4  A    between atoms: C_4  and  C_6
REMARK    5  A    between atoms: N_16  and  C_17
REMARK                            x       y       z     vdW  Elec       q    Type
REMARK                         _______ _______ _______ _____ _____    ______ ____
ROOT
ATOM      1  C   UNL     1       6.117   4.500  18.089  0.00  0.00    +0.000 A 
ATOM      2  N   UNL     1       5.803   4.287  19.358  0.00  0.00    +0.000 NA
ATOM      3  C   UNL     1       4.524   3.812  19.364  0.00  0.00    +0.000 A 
ATOM      4  C   UNL     1       3.739   3.412  20.453  0.00  0.00    +0.000 A 
ATOM      5  C   UNL     1       2.439   2.953  20.210  0.00  0.00    +0.000 A 
ATOM      6 CL   UNL     1       1.504   2.468  21.583  0.00  0.00    +0.000 Cl
ATOM      7  C   UNL     1       1.938   2.888  18.903  0.00  0.00    +0.000 A 
ATOM      8 CL   UNL     1       0.338   2.322  18.561  0.00  0.00    +0.000 Cl
ATOM      9  C   UNL     1       2.719   3.281  17.805  0.00  0.00    +0.000 A 
ATOM     10  C   UNL     1       4.014   3.740  18.072  0.00  0.00    +0.000 A 
ATOM     11  N   UNL     1       5.045   4.186  17.276  0.00  0.00    +0.000 N 
ATOM     12  C   UNL     1       5.041   4.261  15.833  0.00  0.00    +0.000 C 
ENDROOT
BRANCH   1  13
ATOM     13  C   UNL     1       7.435   4.915  17.642  0.00  0.00    +0.000 C 
ATOM     14  O   UNL     1       8.224   4.221  17.011  0.00  0.00    +0.000 OA
BRANCH  13  15
ATOM     15  O   UNL     1       7.714   6.157  18.132  0.00  0.00    +0.000 OA
BRANCH  15  17
ATOM     16  C   UNL     1       7.953   8.493  17.716  0.00  0.00    +0.000 C 
ATOM     17  C   UNL     1       7.129   7.252  17.420  0.00  0.00    +0.000 C 
ENDBRANCH  15  17
ENDBRANCH  13  15
ENDBRANCH   1  13
TORSDOF 3
ENDMDL
MODEL 2
REMARK VINA RESULT:      -6.8      1.451      3.044
REMARK  Name = 
REMARK  5 active torsions:
REMARK  status: ('A' for Active; 'I' for Inactive)
REMARK    1  A    between atoms: C_1  and  C_2
REMARK    2  A    between atoms: C_2  and  O_3
REMARK    3  A    between atoms: O_3  and  C_4
REMARK    4  A    between atoms: C_4  and  C_6
REMARK    5  A    between atoms: N_16  and  C_17
REMARK                            x       y       z     vdW  Elec       q    Type
REMARK                         _______ _______ _______ _____ _____    ______ ____
ROOT
ATOM      1  C   UNL     1       5.898   4.769  17.039  0.00  0.00    +0.000 A 
ATOM      2  N   UNL     1       4.832   4.181  16.517  0.00  0.00    +0.000 NA
ATOM      3  C   UNL     1       4.012   3.872  17.564  0.00  0.00    +0.000 A 
ATOM      4  C   UNL     1       2.751   3.263  17.544  0.00  0.00    +0.000 A 
ATOM      5  C   UNL     1       2.091   3.045  18.759  0.00  0.00    +0.000 A 
ATOM      6 CL   UNL     1       0.536   2.291  18.689  0.00  0.00    +0.000 Cl
ATOM      7  C   UNL     1       2.679   3.436  19.970  0.00  0.00    +0.000 A 
ATOM      8 CL   UNL     1       1.894   3.189  21.493  0.00  0.00    +0.000 Cl
ATOM      9  C   UNL     1       3.940   4.053  19.999  0.00  0.00    +0.000 A 
ATOM     10  C   UNL     1       4.582   4.256  18.772  0.00  0.00    +0.000 A 
ATOM     11  N   UNL     1       5.785   4.823  18.414  0.00  0.00    +0.000 N 
ATOM     12  C   UNL     1       6.745   5.429  19.308  0.00  0.00    +0.000 C 
ENDROOT
BRANCH   1  13
ATOM     13  C   UNL     1       6.971   5.344  16.246  0.00  0.00    +0.000 C 
ATOM     14  O   UNL     1       7.400   6.487  16.352  0.00  0.00    +0.000 OA
BRANCH  13  15
ATOM     15  O   UNL     1       7.353   4.458  15.282  0.00  0.00    +0.000 OA
BRANCH  15  17
ATOM     16  C   UNL     1       6.264   3.787  13.269  0.00  0.00    +0.000 C 
ATOM     17  C   UNL     1       7.106   4.863  13.933  0.00  0.00    +0.000 C 
ENDBRANCH  15  17
ENDBRANCH  13  15
ENDBRANCH   1  13
TORSDOF 3
ENDMDL
MODEL 3
REMARK VINA RESULT:      -6.6      2.305      3.587
REMARK  Name = 
REMARK  5 active torsions:
REMARK  status: ('A' for Active; 'I' for Inactive)
REMARK    1  A    between atoms: C_1  and  C_2
REMARK    2  A    between atoms: C_2  and  O_3
REMARK    3  A    between atoms: O_3  and  C_4
REMARK    4  A    between atoms: C_4  and  C_6
REMARK    5  A    between atoms: N_16  and  C_17
REMARK                            x       y       z     vdW  Elec       q    Type
REMARK                         _______ _______ _______ _____ _____    ______ ____
ROOT
ATOM      1  C   UNL     1       5.357   4.591  16.295  0.00  0.00    +0.000 A 
ATOM      2  N   UNL     1       4.537   3.600  16.612  0.00  0.00    +0.000 NA
ATOM      3  C   UNL     1       3.732   4.070  17.608  0.00  0.00    +0.000 A 
ATOM      4  C   UNL     1       2.682   3.421  18.272  0.00  0.00    +0.000 A 
ATOM      5  C   UNL     1       1.990   4.114  19.271  0.00  0.00    +0.000 A 
ATOM      6 CL   UNL     1       0.702   3.276  20.065  0.00  0.00    +0.000 Cl
ATOM      7  C   UNL     1       2.336   5.433  19.595  0.00  0.00    +0.000 A 
ATOM      8 CL   UNL     1       1.502   6.325  20.822  0.00  0.00    +0.000 Cl
ATOM      9  C   UNL     1       3.381   6.094  18.931  0.00  0.00    +0.000 A 
ATOM     10  C   UNL     1       4.062   5.379  17.938  0.00  0.00    +0.000 A 
ATOM     11  N   UNL     1       5.103   5.690  17.091  0.00  0.00    +0.000 N 
ATOM     12  C   UNL     1       5.780   6.964  16.999  0.00  0.00    +0.000 C 
ENDROOT
BRANCH   1  13
ATOM     13  C   UNL     1       6.312   4.530  15.202  0.00  0.00    +0.000 C 
ATOM     14  O   UNL     1       7.522   4.693  15.304  0.00  0.00    +0.000 OA
BRANCH  13  15
ATOM     15  O   UNL     1       5.646   4.382  14.021  0.00  0.00    +0.000 OA
BRANCH  15  17
ATOM     16  C   UNL     1       5.328   3.196  11.977  0.00  0.00    +0.000 C 
ATOM     17  C   UNL     1       6.348   3.674  12.996  0.00  0.00    +0.000 C 
ENDBRANCH  15  17
ENDBRANCH  13  15
ENDBRANCH   1  13
TORSDOF 3
ENDMDL
MODEL 4
REMARK VINA RESULT:      -6.6      1.670      2.449
REMARK  Name = 
REMARK  5 active torsions:
REMARK  status: ('A' for Active; 'I' for Inactive)
REMARK    1  A    between atoms: C_1  and  C_2
REMARK    2  A    between atoms: C_2  and  O_3
REMARK    3  A    between atoms: O_3  and  C_4
REMARK    4  A    between atoms: C_4  and  C_6
REMARK    5  A    between atoms: N_16  and  C_17
REMARK                            x       y       z     vdW  Elec       q    Type
REMARK                         _______ _______ _______ _____ _____    ______ ____
ROOT
ATOM      1  C   UNL     1       6.113   5.317  17.605  0.00  0.00    +0.000 A 
ATOM      2  N   UNL     1       6.187   4.314  18.468  0.00  0.00    +0.000 NA
ATOM      3  C   UNL     1       4.946   4.193  19.024  0.00  0.00    +0.000 A 
ATOM      4  C   UNL     1       4.495   3.267  19.975  0.00  0.00    +0.000 A 
ATOM      5  C   UNL     1       3.164   3.339  20.400  0.00  0.00    +0.000 A 
ATOM      6 CL   UNL     1       2.647   2.177  21.574  0.00  0.00    +0.000 Cl
ATOM      7  C   UNL     1       2.299   4.312  19.880  0.00  0.00    +0.000 A 
ATOM      8 CL   UNL     1       0.645   4.430  20.378  0.00  0.00    +0.000 Cl
ATOM      9  C   UNL     1       2.741   5.239  18.923  0.00  0.00    +0.000 A 
ATOM     10  C   UNL     1       4.077   5.151  18.515  0.00  0.00    +0.000 A 
ATOM     11  N   UNL     1       4.842   5.858  17.615  0.00  0.00    +0.000 N 
ATOM     12  C   UNL     1       4.390   6.943  16.774  0.00  0.00    +0.000 C 
ENDROOT
BRANCH   1  13
ATOM     13  C   UNL     1       7.201   5.706  16.726  0.00  0.00    +0.000 C 
ATOM     14  O   UNL     1       7.730   6.811  16.694  0.00  0.00    +0.000 OA
BRANCH  13  15
ATOM     15  O   UNL     1       7.469   4.692  15.854  0.00  0.00    +0.000 OA
BRANCH  15  17
ATOM     16  C   UNL     1       5.939   3.960  14.179  0.00  0.00    +0.000 C 
ATOM     17  C   UNL     1       7.074   4.917  14.498  0.00  0.00    +0.000 C 
ENDBRANCH  15  17
ENDBRANCH  13  15
ENDBRANCH   1  13
TORSDOF 3
ENDMDL
MODEL 5
REMARK VINA RESULT:      -6.4      0.981      2.221
REMARK  Name = 
REMARK  5 active torsions:
REMARK  status: ('A' for Active; 'I' for Inactive)
REMARK    1  A    between atoms: C_1  and  C_2
REMARK    2  A    between atoms: C_2  and  O_3
REMARK    3  A    between atoms: O_3  and  C_4
REMARK    4  A    between atoms: C_4  and  C_6
REMARK    5  A    between atoms: N_16  and  C_17
REMARK                            x       y       z     vdW  Elec       q    Type
REMARK                         _______ _______ _______ _____ _____    ______ ____
ROOT
ATOM      1  C   UNL     1       5.720   4.480  17.149  0.00  0.00    +0.000 A 
ATOM      2  N   UNL     1       4.626   3.966  16.606  0.00  0.00    +0.000 NA
ATOM      3  C   UNL     1       3.808   3.623  17.643  0.00  0.00    +0.000 A 
ATOM      4  C   UNL     1       2.524   3.063  17.603  0.00  0.00    +0.000 A 
ATOM      5  C   UNL     1       1.870   2.795  18.811  0.00  0.00    +0.000 A 
ATOM      6 CL   UNL     1       0.287   2.104  18.716  0.00  0.00    +0.000 Cl
ATOM      7  C   UNL     1       2.486   3.089  20.035  0.00  0.00    +0.000 A 
ATOM      8 CL   UNL     1       1.709   2.776  21.551  0.00  0.00    +0.000 Cl
ATOM      9  C   UNL     1       3.769   3.655  20.086  0.00  0.00    +0.000 A 
ATOM     10  C   UNL     1       4.405   3.910  18.865  0.00  0.00    +0.000 A 
ATOM     11  N   UNL     1       5.624   4.453  18.526  0.00  0.00    +0.000 N 
ATOM     12  C   UNL     1       6.616   4.967  19.443  0.00  0.00    +0.000 C 
ENDROOT
BRANCH   1  13
ATOM     13  C   UNL     1       6.805   5.063  16.379  0.00  0.00    +0.000 C 
ATOM     14  O   UNL     1       7.899   4.546  16.186  0.00  0.00    +0.000 OA
BRANCH  13  15
ATOM     15  O   UNL     1       6.467   6.329  15.999  0.00  0.00    +0.000 OA
BRANCH  15  17
ATOM     16  C   UNL     1       7.640   7.823  17.441  0.00  0.00    +0.000 C 
ATOM     17  C   UNL     1       6.278   7.267  17.062  0.00  0.00    +0.000 C 
ENDBRANCH  15  17
ENDBRANCH  13  15
ENDBRANCH   1  13
TORSDOF 3
ENDMDL
MODEL 6
REMARK VINA RESULT:      -6.4      3.280      4.263
REMARK  Name = 
REMARK  5 active torsions:
REMARK  status: ('A' for Active; 'I' for Inactive)
REMARK    1  A    between atoms: C_1  and  C_2
REMARK    2  A    between atoms: C_2  and  O_3
REMARK    3  A    between atoms: O_3  and  C_4
REMARK    4  A    between atoms: C_4  and  C_6
REMARK    5  A    between atoms: N_16  and  C_17
REMARK                            x       y       z     vdW  Elec       q    Type
REMARK                         _______ _______ _______ _____ _____    ______ ____
ROOT
ATOM      1  C   UNL     1       5.520   5.127  17.044  0.00  0.00    +0.000 A 
ATOM      2  N   UNL     1       5.015   6.258  16.575  0.00  0.00    +0.000 NA
ATOM      3  C   UNL     1       4.084   6.670  17.483  0.00  0.00    +0.000 A 
ATOM      4  C   UNL     1       3.285   7.821  17.466  0.00  0.00    +0.000 A 
ATOM      5  C   UNL     1       2.392   8.035  18.521  0.00  0.00    +0.000 A 
ATOM      6 CL   UNL     1       1.425   9.469  18.460  0.00  0.00    +0.000 Cl
ATOM      7  C   UNL     1       2.303   7.118  19.578  0.00  0.00    +0.000 A 
ATOM      8 CL   UNL     1       1.214   7.348  20.903  0.00  0.00    +0.000 Cl
ATOM      9  C   UNL     1       3.103   5.965  19.607  0.00  0.00    +0.000 A 
ATOM     10  C   UNL     1       3.987   5.771  18.539  0.00  0.00    +0.000 A 
ATOM     11  N   UNL     1       4.909   4.794  18.237  0.00  0.00    +0.000 N 
ATOM     12  C   UNL     1       5.235   3.644  19.050  0.00  0.00    +0.000 C 
ENDROOT
BRANCH   1  13
ATOM     13  C   UNL     1       6.620   4.414  16.419  0.00  0.00    +0.000 C 
ATOM     14  O   UNL     1       7.790   4.451  16.781  0.00  0.00    +0.000 OA
BRANCH  13  15
ATOM     15  O   UNL     1       6.176   3.786  15.292  0.00  0.00    +0.000 OA
BRANCH  15  17
ATOM     16  C   UNL     1       6.001   3.536  12.927  0.00  0.00    +0.000 C 
ATOM     17  C   UNL     1       6.572   4.381  14.053  0.00  0.00    +0.000 C 
ENDBRANCH  15  17
ENDBRANCH  13  15
ENDBRANCH   1  13
TORSDOF 3
ENDMDL
MODEL 7
REMARK VINA RESULT:      -6.4      2.134      3.117
REMARK  Name = 
REMARK  5 active torsions:
REMARK  status: ('A' for Active; 'I' for Inactive)
REMARK    1  A    between atoms: C_1  and  C_2
REMARK    2  A    between atoms: C_2  and  O_3
REMARK    3  A    between atoms: O_3  and  C_4
REMARK    4  A    between atoms: C_4  and  C_6
REMARK    5  A    between atoms: N_16  and  C_17
REMARK                            x       y       z     vdW  Elec       q    Type
REMARK                         _______ _______ _______ _____ _____    ______ ____
ROOT
ATOM      1  C   UNL     1       5.708   4.455  17.113  0.00  0.00    +0.000 A 
ATOM      2  N   UNL     1       5.322   3.491  17.936  0.00  0.00    +0.000 NA
ATOM      3  C   UNL     1       4.347   4.027  18.726  0.00  0.00    +0.000 A 
ATOM      4  C   UNL     1       3.599   3.413  19.739  0.00  0.00    +0.000 A 
ATOM      5  C   UNL     1       2.642   4.173  20.421  0.00  0.00    +0.000 A 
ATOM      6 CL   UNL     1       1.741   3.376  21.665  0.00  0.00    +0.000 Cl
ATOM      7  C   UNL     1       2.431   5.518  20.089  0.00  0.00    +0.000 A 
ATOM      8 CL   UNL     1       1.253   6.490  20.905  0.00  0.00    +0.000 Cl
ATOM      9  C   UNL     1       3.170   6.140  19.071  0.00  0.00    +0.000 A 
ATOM     10  C   UNL     1       4.125   5.362  18.407  0.00  0.00    +0.000 A 
ATOM     11  N   UNL     1       5.005   5.615  17.378  0.00  0.00    +0.000 N 
ATOM     12  C   UNL     1       5.138   6.857  16.652  0.00  0.00    +0.000 C 
ENDROOT
BRANCH   1  13
ATOM     13  C   UNL     1       6.666   4.264  16.038  0.00  0.00    +0.000 C 
ATOM     14  O   UNL     1       7.848   4.587  16.073  0.00  0.00    +0.000 OA
BRANCH  13  15
ATOM     15  O   UNL     1       6.026   3.777  14.937  0.00  0.00    +0.000 OA
BRANCH  15  17
ATOM     16  C   UNL     1       5.911   3.392  12.586  0.00  0.00    +0.000 C 
ATOM     17  C   UNL     1       6.487   4.276  13.678  0.00  0.00    +0.000 C 
ENDBRANCH  15  17
ENDBRANCH  13  15
ENDBRANCH   1  13
TORSDOF 3
ENDMDL
MODEL 8
REMARK VINA RESULT:      -6.3      1.167      1.225
REMARK  Name = 
REMARK  5 active torsions:
REMARK  status: ('A' for Active; 'I' for Inactive)
REMARK    1  A    between atoms: C_1  and  C_2
REMARK    2  A    between atoms: C_2  and  O_3
REMARK    3  A    between atoms: O_3  and  C_4
REMARK    4  A    between atoms: C_4  and  C_6
REMARK    5  A    between atoms: N_16  and  C_17
REMARK                            x       y       z     vdW  Elec       q    Type
REMARK                         _______ _______ _______ _____ _____    ______ ____
ROOT
ATOM      1  C   UNL     1       5.915   5.673  17.465  0.00  0.00    +0.000 A 
ATOM      2  N   UNL     1       5.488   5.831  18.709  0.00  0.00    +0.000 NA
ATOM      3  C   UNL     1       4.388   5.034  18.842  0.00  0.00    +0.000 A 
ATOM      4  C   UNL     1       3.585   4.825  19.971  0.00  0.00    +0.000 A 
ATOM      5  C   UNL     1       2.497   3.950  19.868  0.00  0.00    +0.000 A 
ATOM      6 CL   UNL     1       1.532   3.720  21.285  0.00  0.00    +0.000 Cl
ATOM      7  C   UNL     1       2.223   3.292  18.661  0.00  0.00    +0.000 A 
ATOM      8 CL   UNL     1       0.890   2.200  18.494  0.00  0.00    +0.000 Cl
ATOM      9  C   UNL     1       3.026   3.491  17.527  0.00  0.00    +0.000 A 
ATOM     10  C   UNL     1       4.105   4.373  17.653  0.00  0.00    +0.000 A 
ATOM     11  N   UNL     1       5.089   4.797  16.788  0.00  0.00    +0.000 N 
ATOM     12  C   UNL     1       5.274   4.362  15.422  0.00  0.00    +0.000 C 
ENDROOT
BRANCH   1  13
ATOM     13  C   UNL     1       7.131   6.275  16.946  0.00  0.00    +0.000 C 
ATOM     14  O   UNL     1       7.652   6.011  15.869  0.00  0.00    +0.000 OA
BRANCH  13  15
ATOM     15  O   UNL     1       7.674   7.095  17.891  0.00  0.00    +0.000 OA
BRANCH  15  17
ATOM     16  C   UNL     1       8.658   9.167  18.542  0.00  0.00    +0.000 C 
ATOM     17  C   UNL     1       7.734   8.483  17.550  0.00  0.00    +0.000 C 
ENDBRANCH  15  17
ENDBRANCH  13  15
ENDBRANCH   1  13
TORSDOF 3
ENDMDL
MODEL 9
REMARK VINA RESULT:      -6.2      1.565      1.678
REMARK  Name = 
REMARK  5 active torsions:
REMARK  status: ('A' for Active; 'I' for Inactive)
REMARK    1  A    between atoms: C_1  and  C_2
REMARK    2  A    between atoms: C_2  and  O_3
REMARK    3  A    between atoms: O_3  and  C_4
REMARK    4  A    between atoms: C_4  and  C_6
REMARK    5  A    between atoms: N_16  and  C_17
REMARK                            x       y       z     vdW  Elec       q    Type
REMARK                         _______ _______ _______ _____ _____    ______ ____
ROOT
ATOM      1  C   UNL     1       6.115   5.661  17.888  0.00  0.00    +0.000 A 
ATOM      2  N   UNL     1       6.232   4.624  18.705  0.00  0.00    +0.000 NA
ATOM      3  C   UNL     1       4.979   4.363  19.177  0.00  0.00    +0.000 A 
ATOM      4  C   UNL     1       4.561   3.352  20.053  0.00  0.00    +0.000 A 
ATOM      5  C   UNL     1       3.207   3.281  20.399  0.00  0.00    +0.000 A 
ATOM      6 CL   UNL     1       2.734   2.017  21.482  0.00  0.00    +0.000 Cl
ATOM      7  C   UNL     1       2.287   4.199  19.873  0.00  0.00    +0.000 A 
ATOM      8 CL   UNL     1       0.604   4.142  20.274  0.00  0.00    +0.000 Cl
ATOM      9  C   UNL     1       2.695   5.211  18.991  0.00  0.00    +0.000 A 
ATOM     10  C   UNL     1       4.055   5.265  18.662  0.00  0.00    +0.000 A 
ATOM     11  N   UNL     1       4.801   6.085  17.846  0.00  0.00    +0.000 N 
ATOM     12  C   UNL     1       4.299   7.168  17.031  0.00  0.00    +0.000 C 
ENDROOT
BRANCH   1  13
ATOM     13  C   UNL     1       7.211   6.192  17.096  0.00  0.00    +0.000 C 
ATOM     14  O   UNL     1       7.513   5.830  15.966  0.00  0.00    +0.000 OA
BRANCH  13  15
ATOM     15  O   UNL     1       7.929   7.077  17.846  0.00  0.00    +0.000 OA
BRANCH  15  17
ATOM     16  C   UNL     1       8.615   9.276  18.462  0.00  0.00    +0.000 C 
ATOM     17  C   UNL     1       7.719   8.460  17.547  0.00  0.00    +0.000 C 
ENDBRANCH  15  17
ENDBRANCH  13  15
ENDBRANCH   1  13
TORSDOF 3
ENDMDL
