MODEL 1
REMARK VINA RESULT:      -7.8      0.000      0.000
REMARK  Name = 
REMARK  14 active torsions:
REMARK  status: ('A' for Active; 'I' for Inactive)
REMARK    1  A    between atoms: C_1  and  C_2
REMARK    2  A    between atoms: N_4  and  C_5
REMARK    3  A    between atoms: C_5  and  C_6
REMARK    4  A    between atoms: C_5  and  C_24
REMARK    5  A    between atoms: C_6  and  C_7
REMARK    6  A    between atoms: C_7  and  C_8
REMARK    7  A    between atoms: C_8  and  C_9
REMARK    8  A    between atoms: C_9  and  N_10
REMARK    9  A    between atoms: N_10  and  C_11
REMARK   10  A    between atoms: C_11  and  C_12
REMARK   11  A    between atoms: N_20  and  C_21
REMARK   12  A    between atoms: C_21  and  C_22
REMARK   13  A    between atoms: N_26  and  C_27
REMARK   14  A    between atoms: C_27  and  C_28
REMARK                            x       y       z     vdW  Elec       q    Type
REMARK                         _______ _______ _______ _____ _____    ______ ____
ROOT
ATOM      1  C   UNL     1       1.382  10.818  18.683  0.00  0.00    +0.000 C 
ENDROOT
BRANCH   1   2
ATOM      2  C   UNL     1       0.182  11.347  19.486  0.00  0.00    +0.000 C 
BRANCH   2   6
ATOM      3  C   UNL     1      -0.522   8.669  22.077  0.00  0.00    +0.000 C 
ATOM      4  C   UNL     1       0.027   9.954  21.524  0.00  0.00    +0.000 C 
ATOM      5  O   UNL     1       0.769  10.684  22.172  0.00  0.00    +0.000 OA
ATOM      6  N   UNL     1      -0.394  10.241  20.250  0.00  0.00    +0.000 N 
ATOM      7  H   UNL     1      -0.916   9.550  19.721  0.00  0.00    +0.000 HD
ENDBRANCH   2   6
BRANCH   2   8
ATOM      8  C   UNL     1      -0.930  11.880  18.559  0.00  0.00    +0.000 C 
ATOM      9  O   UNL     1      -0.786  12.914  17.906  0.00  0.00    +0.000 OA
ATOM     10  N   UNL     1      -2.054  11.087  18.488  0.00  0.00    +0.000 N 
ATOM     11  H   UNL     1      -2.053  10.175  18.925  0.00  0.00    +0.000 HD
BRANCH  10  12
ATOM     12  C   UNL     1      -3.214  11.442  17.692  0.00  0.00    +0.000 C 
BRANCH  12  13
ATOM     13  C   UNL     1      -4.481  11.566  18.511  0.00  0.00    +0.000 A 
ATOM     14  C   UNL     1      -5.648  10.859  18.185  0.00  0.00    +0.000 A 
ATOM     15  C   UNL     1      -6.784  10.933  18.994  0.00  0.00    +0.000 A 
ATOM     16  C   UNL     1      -6.767  11.701  20.156  0.00  0.00    +0.000 A 
ATOM     17  C   UNL     1      -5.614  12.400  20.504  0.00  0.00    +0.000 A 
ATOM     18  C   UNL     1      -4.478  12.332  19.689  0.00  0.00    +0.000 A 
ENDBRANCH  12  13
ENDBRANCH  10  12
ENDBRANCH   2   8
ENDBRANCH   1   2
BRANCH   1  19
ATOM     19  C   UNL     1       1.088   9.514  17.948  0.00  0.00    +0.000 C 
BRANCH  19  20
ATOM     20  C   UNL     1       1.967   8.344  18.419  0.00  0.00    +0.000 C 
BRANCH  20  21
ATOM     21  C   UNL     1       3.112   7.917  17.481  0.00  0.00    +0.000 C 
BRANCH  21  22
ATOM     22  N   UNL     1       3.898   6.706  17.779  0.00  0.00    +0.000 N 
ATOM     23  C   UNL     1       4.926   6.296  16.951  0.00  0.00    +0.000 C 
ATOM     24  O   UNL     1       5.331   6.937  15.979  0.00  0.00    +0.000 OA
ATOM     25  N   UNL     1       5.469   5.066  17.225  0.00  0.00    +0.000 N 
ATOM     26  H   UNL     1       5.546   4.799  18.193  0.00  0.00    +0.000 HD
BRANCH  22  27
ATOM     27  C   UNL     1       3.705   6.147  19.128  0.00  0.00    +0.000 C 
BRANCH  27  28
ATOM     28  C   UNL     1       2.633   5.073  19.248  0.00  0.00    +0.000 A 
ATOM     29  C   UNL     1       2.114   4.372  18.149  0.00  0.00    +0.000 A 
ATOM     30  C   UNL     1       1.203   3.325  18.325  0.00  0.00    +0.000 A 
ATOM     31  C   UNL     1       0.786   2.967  19.604  0.00  0.00    +0.000 A 
ATOM     32  C   UNL     1       1.249   3.680  20.704  0.00  0.00    +0.000 A 
ATOM     33  C   UNL     1       2.160   4.729  20.527  0.00  0.00    +0.000 A 
ENDBRANCH  27  28
ENDBRANCH  22  27
BRANCH  25  34
ATOM     34  C   UNL     1       6.497   4.533  16.347  0.00  0.00    +0.000 C 
BRANCH  34  35
ATOM     35  C   UNL     1       5.964   3.483  15.381  0.00  0.00    +0.000 C 
ATOM     36 CL   UNL     1       6.240   3.990  13.691  0.00  0.00    +0.000 Cl
ENDBRANCH  34  35
ENDBRANCH  25  34
ENDBRANCH  21  22
ENDBRANCH  20  21
ENDBRANCH  19  20
ENDBRANCH   1  19
TORSDOF 13
ENDMDL
MODEL 2
REMARK VINA RESULT:      -7.7      3.680     10.486
REMARK  Name = 
REMARK  14 active torsions:
REMARK  status: ('A' for Active; 'I' for Inactive)
REMARK    1  A    between atoms: C_1  and  C_2
REMARK    2  A    between atoms: N_4  and  C_5
REMARK    3  A    between atoms: C_5  and  C_6
REMARK    4  A    between atoms: C_5  and  C_24
REMARK    5  A    between atoms: C_6  and  C_7
REMARK    6  A    between atoms: C_7  and  C_8
REMARK    7  A    between atoms: C_8  and  C_9
REMARK    8  A    between atoms: C_9  and  N_10
REMARK    9  A    between atoms: N_10  and  C_11
REMARK   10  A    between atoms: C_11  and  C_12
REMARK   11  A    between atoms: N_20  and  C_21
REMARK   12  A    between atoms: C_21  and  C_22
REMARK   13  A    between atoms: N_26  and  C_27
REMARK   14  A    between atoms: C_27  and  C_28
REMARK                            x       y       z     vdW  Elec       q    Type
REMARK                         _______ _______ _______ _____ _____    ______ ____
ROOT
ATOM      1  C   UNL     1       2.842   7.336  18.158  0.00  0.00    +0.000 C 
ENDROOT
BRANCH   1   2
ATOM      2  C   UNL     1       3.000   5.834  17.865  0.00  0.00    +0.000 C 
BRANCH   2   6
ATOM      3  C   UNL     1       0.895   3.551  20.042  0.00  0.00    +0.000 C 
ATOM      4  C   UNL     1       1.518   4.078  18.779  0.00  0.00    +0.000 C 
ATOM      5  O   UNL     1       1.237   3.631  17.673  0.00  0.00    +0.000 OA
ATOM      6  N   UNL     1       2.436   5.078  18.981  0.00  0.00    +0.000 N 
ATOM      7  H   UNL     1       2.547   5.485  19.905  0.00  0.00    +0.000 HD
ENDBRANCH   2   6
BRANCH   2   8
ATOM      8  C   UNL     1       4.484   5.431  17.753  0.00  0.00    +0.000 C 
ATOM      9  O   UNL     1       5.165   5.186  18.750  0.00  0.00    +0.000 OA
ATOM     10  N   UNL     1       4.959   5.321  16.464  0.00  0.00    +0.000 N 
ATOM     11  H   UNL     1       4.315   5.384  15.686  0.00  0.00    +0.000 HD
BRANCH  10  12
ATOM     12  C   UNL     1       6.337   4.983  16.162  0.00  0.00    +0.000 C 
BRANCH  12  13
ATOM     13  C   UNL     1       6.557   4.626  14.707  0.00  0.00    +0.000 A 
ATOM     14  C   UNL     1       5.744   3.699  14.040  0.00  0.00    +0.000 A 
ATOM     15  C   UNL     1       5.919   3.437  12.679  0.00  0.00    +0.000 A 
ATOM     16  C   UNL     1       6.898   4.114  11.957  0.00  0.00    +0.000 A 
ATOM     17  C   UNL     1       7.706   5.048  12.599  0.00  0.00    +0.000 A 
ATOM     18  C   UNL     1       7.537   5.305  13.964  0.00  0.00    +0.000 A 
ENDBRANCH  12  13
ENDBRANCH  10  12
ENDBRANCH   2   8
ENDBRANCH   1   2
BRANCH   1  19
ATOM     19  C   UNL     1       2.132   7.621  19.477  0.00  0.00    +0.000 C 
BRANCH  19  20
ATOM     20  C   UNL     1       1.509   9.025  19.536  0.00  0.00    +0.000 C 
BRANCH  20  21
ATOM     21  C   UNL     1       0.360   9.231  20.541  0.00  0.00    +0.000 C 
BRANCH  21  22
ATOM     22  N   UNL     1      -0.286  10.551  20.665  0.00  0.00    +0.000 N 
ATOM     23  C   UNL     1      -0.546  11.108  21.902  0.00  0.00    +0.000 C 
ATOM     24  O   UNL     1      -0.184  10.619  22.974  0.00  0.00    +0.000 OA
ATOM     25  N   UNL     1      -1.306  12.251  21.902  0.00  0.00    +0.000 N 
ATOM     26  H   UNL     1      -1.170  12.899  21.143  0.00  0.00    +0.000 HD
BRANCH  22  27
ATOM     27  C   UNL     1      -0.367  11.330  19.417  0.00  0.00    +0.000 C 
BRANCH  27  28
ATOM     28  C   UNL     1      -1.562  11.024  18.527  0.00  0.00    +0.000 A 
ATOM     29  C   UNL     1      -2.809  11.655  18.661  0.00  0.00    +0.000 A 
ATOM     30  C   UNL     1      -3.844  11.409  17.753  0.00  0.00    +0.000 A 
ATOM     31  C   UNL     1      -3.655  10.519  16.699  0.00  0.00    +0.000 A 
ATOM     32  C   UNL     1      -2.446   9.845  16.576  0.00  0.00    +0.000 A 
ATOM     33  C   UNL     1      -1.409  10.090  17.486  0.00  0.00    +0.000 A 
ENDBRANCH  27  28
ENDBRANCH  22  27
BRANCH  25  34
ATOM     34  C   UNL     1      -1.690  12.848  23.170  0.00  0.00    +0.000 C 
BRANCH  34  35
ATOM     35  C   UNL     1      -3.102  12.472  23.598  0.00  0.00    +0.000 C 
ATOM     36 CL   UNL     1      -4.296  13.575  22.858  0.00  0.00    +0.000 Cl
ENDBRANCH  34  35
ENDBRANCH  25  34
ENDBRANCH  21  22
ENDBRANCH  20  21
ENDBRANCH  19  20
ENDBRANCH   1  19
TORSDOF 13
ENDMDL
MODEL 3
REMARK VINA RESULT:      -7.7      3.364      9.322
REMARK  Name = 
REMARK  14 active torsions:
REMARK  status: ('A' for Active; 'I' for Inactive)
REMARK    1  A    between atoms: C_1  and  C_2
REMARK    2  A    between atoms: N_4  and  C_5
REMARK    3  A    between atoms: C_5  and  C_6
REMARK    4  A    between atoms: C_5  and  C_24
REMARK    5  A    between atoms: C_6  and  C_7
REMARK    6  A    between atoms: C_7  and  C_8
REMARK    7  A    between atoms: C_8  and  C_9
REMARK    8  A    between atoms: C_9  and  N_10
REMARK    9  A    between atoms: N_10  and  C_11
REMARK   10  A    between atoms: C_11  and  C_12
REMARK   11  A    between atoms: N_20  and  C_21
REMARK   12  A    between atoms: C_21  and  C_22
REMARK   13  A    between atoms: N_26  and  C_27
REMARK   14  A    between atoms: C_27  and  C_28
REMARK                            x       y       z     vdW  Elec       q    Type
REMARK                         _______ _______ _______ _____ _____    ______ ____
ROOT
ATOM      1  C   UNL     1       4.540   7.080  17.097  0.00  0.00    +0.000 C 
ENDROOT
BRANCH   1   2
ATOM      2  C   UNL     1       5.582   5.953  17.197  0.00  0.00    +0.000 C 
BRANCH   2   6
ATOM      3  C   UNL     1       6.001   4.150  13.887  0.00  0.00    +0.000 C 
ATOM      4  C   UNL     1       6.411   4.938  15.100  0.00  0.00    +0.000 C 
ATOM      5  O   UNL     1       7.538   5.404  15.230  0.00  0.00    +0.000 OA
ATOM      6  N   UNL     1       5.425   5.068  16.045  0.00  0.00    +0.000 N 
ATOM      7  H   UNL     1       4.480   4.760  15.837  0.00  0.00    +0.000 HD
ENDBRANCH   2   6
BRANCH   2   8
ATOM      8  C   UNL     1       5.368   5.093  18.459  0.00  0.00    +0.000 C 
ATOM      9  O   UNL     1       5.518   5.556  19.590  0.00  0.00    +0.000 OA
ATOM     10  N   UNL     1       4.951   3.802  18.216  0.00  0.00    +0.000 N 
ATOM     11  H   UNL     1       4.696   3.526  17.276  0.00  0.00    +0.000 HD
BRANCH  10  12
ATOM     12  C   UNL     1       4.728   2.838  19.277  0.00  0.00    +0.000 C 
BRANCH  12  13
ATOM     13  C   UNL     1       3.296   2.816  19.768  0.00  0.00    +0.000 A 
ATOM     14  C   UNL     1       2.982   2.800  21.135  0.00  0.00    +0.000 A 
ATOM     15  C   UNL     1       1.655   2.851  21.569  0.00  0.00    +0.000 A 
ATOM     16  C   UNL     1       0.619   2.939  20.642  0.00  0.00    +0.000 A 
ATOM     17  C   UNL     1       0.912   2.969  19.281  0.00  0.00    +0.000 A 
ATOM     18  C   UNL     1       2.241   2.910  18.847  0.00  0.00    +0.000 A 
ENDBRANCH  12  13
ENDBRANCH  10  12
ENDBRANCH   2   8
ENDBRANCH   1   2
BRANCH   1  19
ATOM     19  C   UNL     1       3.210   6.732  17.759  0.00  0.00    +0.000 C 
BRANCH  19  20
ATOM     20  C   UNL     1       2.637   7.881  18.603  0.00  0.00    +0.000 C 
BRANCH  20  21
ATOM     21  C   UNL     1       1.742   8.899  17.870  0.00  0.00    +0.000 C 
BRANCH  21  22
ATOM     22  N   UNL     1       1.202  10.064  18.594  0.00  0.00    +0.000 N 
ATOM     23  C   UNL     1       1.789  11.310  18.487  0.00  0.00    +0.000 C 
ATOM     24  O   UNL     1       2.722  11.575  17.726  0.00  0.00    +0.000 OA
ATOM     25  N   UNL     1       1.315  12.277  19.338  0.00  0.00    +0.000 N 
ATOM     26  H   UNL     1       0.331  12.267  19.548  0.00  0.00    +0.000 HD
BRANCH  22  27
ATOM     27  C   UNL     1      -0.132   9.871  19.189  0.00  0.00    +0.000 C 
BRANCH  27  28
ATOM     28  C   UNL     1      -1.307  10.313  18.329  0.00  0.00    +0.000 A 
ATOM     29  C   UNL     1      -1.618   9.734  17.089  0.00  0.00    +0.000 A 
ATOM     30  C   UNL     1      -2.767  10.110  16.385  0.00  0.00    +0.000 A 
ATOM     31  C   UNL     1      -3.622  11.080  16.904  0.00  0.00    +0.000 A 
ATOM     32  C   UNL     1      -3.306  11.701  18.107  0.00  0.00    +0.000 A 
ATOM     33  C   UNL     1      -2.155  11.326  18.811  0.00  0.00    +0.000 A 
ENDBRANCH  27  28
ENDBRANCH  22  27
BRANCH  25  34
ATOM     34  C   UNL     1       1.940  13.589  19.341  0.00  0.00    +0.000 C 
BRANCH  34  35
ATOM     35  C   UNL     1       0.977  14.703  18.953  0.00  0.00    +0.000 C 
ATOM     36 CL   UNL     1       1.717  16.301  19.246  0.00  0.00    +0.000 Cl
ENDBRANCH  34  35
ENDBRANCH  25  34
ENDBRANCH  21  22
ENDBRANCH  20  21
ENDBRANCH  19  20
ENDBRANCH   1  19
TORSDOF 13
ENDMDL
MODEL 4
REMARK VINA RESULT:      -7.6      1.939      2.966
REMARK  Name = 
REMARK  14 active torsions:
REMARK  status: ('A' for Active; 'I' for Inactive)
REMARK    1  A    between atoms: C_1  and  C_2
REMARK    2  A    between atoms: N_4  and  C_5
REMARK    3  A    between atoms: C_5  and  C_6
REMARK    4  A    between atoms: C_5  and  C_24
REMARK    5  A    between atoms: C_6  and  C_7
REMARK    6  A    between atoms: C_7  and  C_8
REMARK    7  A    between atoms: C_8  and  C_9
REMARK    8  A    between atoms: C_9  and  N_10
REMARK    9  A    between atoms: N_10  and  C_11
REMARK   10  A    between atoms: C_11  and  C_12
REMARK   11  A    between atoms: N_20  and  C_21
REMARK   12  A    between atoms: C_21  and  C_22
REMARK   13  A    between atoms: N_26  and  C_27
REMARK   14  A    between atoms: C_27  and  C_28
REMARK                            x       y       z     vdW  Elec       q    Type
REMARK                         _______ _______ _______ _____ _____    ______ ____
ROOT
ATOM      1  C   UNL     1       1.327   9.606  17.910  0.00  0.00    +0.000 C 
ENDROOT
BRANCH   1   2
ATOM      2  C   UNL     1      -0.075   9.903  18.469  0.00  0.00    +0.000 C 
BRANCH   2   6
ATOM      3  C   UNL     1      -2.686  11.044  15.967  0.00  0.00    +0.000 C 
ATOM      4  C   UNL     1      -2.133  10.320  17.163  0.00  0.00    +0.000 C 
ATOM      5  O   UNL     1      -2.801   9.527  17.818  0.00  0.00    +0.000 OA
ATOM      6  N   UNL     1      -0.833  10.642  17.462  0.00  0.00    +0.000 N 
ATOM      7  H   UNL     1      -0.294  11.217  16.822  0.00  0.00    +0.000 HD
ENDBRANCH   2   6
BRANCH   2   8
ATOM      8  C   UNL     1      -0.007  10.795  19.725  0.00  0.00    +0.000 C 
ATOM      9  O   UNL     1       0.501  10.397  20.775  0.00  0.00    +0.000 OA
ATOM     10  N   UNL     1      -0.507  12.068  19.559  0.00  0.00    +0.000 N 
ATOM     11  H   UNL     1      -0.769  12.388  18.636  0.00  0.00    +0.000 HD
BRANCH  10  12
ATOM     12  C   UNL     1      -0.556  13.038  20.637  0.00  0.00    +0.000 C 
BRANCH  12  13
ATOM     13  C   UNL     1      -1.833  12.963  21.447  0.00  0.00    +0.000 A 
ATOM     14  C   UNL     1      -3.074  13.334  20.910  0.00  0.00    +0.000 A 
ATOM     15  C   UNL     1      -4.250  13.191  21.649  0.00  0.00    +0.000 A 
ATOM     16  C   UNL     1      -4.207  12.655  22.934  0.00  0.00    +0.000 A 
ATOM     17  C   UNL     1      -2.986  12.269  23.480  0.00  0.00    +0.000 A 
ATOM     18  C   UNL     1      -1.807  12.420  22.742  0.00  0.00    +0.000 A 
ENDBRANCH  12  13
ENDBRANCH  10  12
ENDBRANCH   2   8
ENDBRANCH   1   2
BRANCH   1  19
ATOM     19  C   UNL     1       1.944   8.331  18.478  0.00  0.00    +0.000 C 
BRANCH  19  20
ATOM     20  C   UNL     1       2.787   7.560  17.450  0.00  0.00    +0.000 C 
BRANCH  20  21
ATOM     21  C   UNL     1       4.223   7.192  17.870  0.00  0.00    +0.000 C 
BRANCH  21  22
ATOM     22  N   UNL     1       4.789   5.882  17.499  0.00  0.00    +0.000 N 
ATOM     23  C   UNL     1       5.555   5.729  16.359  0.00  0.00    +0.000 C 
ATOM     24  O   UNL     1       5.907   6.657  15.629  0.00  0.00    +0.000 OA
ATOM     25  N   UNL     1       5.877   4.439  16.016  0.00  0.00    +0.000 N 
ATOM     26  H   UNL     1       6.064   3.794  16.766  0.00  0.00    +0.000 HD
BRANCH  22  27
ATOM     27  C   UNL     1       4.721   4.848  18.546  0.00  0.00    +0.000 C 
BRANCH  27  28
ATOM     28  C   UNL     1       3.321   4.395  18.933  0.00  0.00    +0.000 A 
ATOM     29  C   UNL     1       2.469   3.690  18.069  0.00  0.00    +0.000 A 
ATOM     30  C   UNL     1       1.231   3.210  18.508  0.00  0.00    +0.000 A 
ATOM     31  C   UNL     1       0.816   3.435  19.818  0.00  0.00    +0.000 A 
ATOM     32  C   UNL     1       1.622   4.173  20.677  0.00  0.00    +0.000 A 
ATOM     33  C   UNL     1       2.862   4.655  20.237  0.00  0.00    +0.000 A 
ENDBRANCH  27  28
ENDBRANCH  22  27
BRANCH  25  34
ATOM     34  C   UNL     1       6.611   4.194  14.786  0.00  0.00    +0.000 C 
BRANCH  34  35
ATOM     35  C   UNL     1       5.701   3.854  13.613  0.00  0.00    +0.000 C 
ATOM     36 CL   UNL     1       6.655   3.657  12.117  0.00  0.00    +0.000 Cl
ENDBRANCH  34  35
ENDBRANCH  25  34
ENDBRANCH  21  22
ENDBRANCH  20  21
ENDBRANCH  19  20
ENDBRANCH   1  19
TORSDOF 13
ENDMDL
MODEL 5
REMARK VINA RESULT:      -7.5      4.608     10.123
REMARK  Name = 
REMARK  14 active torsions:
REMARK  status: ('A' for Active; 'I' for Inactive)
REMARK    1  A    between atoms: C_1  and  C_2
REMARK    2  A    between atoms: N_4  and  C_5
REMARK    3  A    between atoms: C_5  and  C_6
REMARK    4  A    between atoms: C_5  and  C_24
REMARK    5  A    between atoms: C_6  and  C_7
REMARK    6  A    between atoms: C_7  and  C_8
REMARK    7  A    between atoms: C_8  and  C_9
REMARK    8  A    between atoms: C_9  and  N_10
REMARK    9  A    between atoms: N_10  and  C_11
REMARK   10  A    between atoms: C_11  and  C_12
REMARK   11  A    between atoms: N_20  and  C_21
REMARK   12  A    between atoms: C_21  and  C_22
REMARK   13  A    between atoms: N_26  and  C_27
REMARK   14  A    between atoms: C_27  and  C_28
REMARK                            x       y       z     vdW  Elec       q    Type
REMARK                         _______ _______ _______ _____ _____    ______ ____
ROOT
ATOM      1  C   UNL     1       5.715   4.704  17.231  0.00  0.00    +0.000 C 
ENDROOT
BRANCH   1   2
ATOM      2  C   UNL     1       6.907   5.051  16.323  0.00  0.00    +0.000 C 
BRANCH   2   6
ATOM      3  C   UNL     1       8.068   8.161  18.158  0.00  0.00    +0.000 C 
ATOM      4  C   UNL     1       7.811   6.696  17.933  0.00  0.00    +0.000 C 
ATOM      5  O   UNL     1       7.992   5.856  18.808  0.00  0.00    +0.000 OA
ATOM      6  N   UNL     1       7.382   6.390  16.666  0.00  0.00    +0.000 N 
ATOM      7  H   UNL     1       7.143   7.134  16.019  0.00  0.00    +0.000 HD
ENDBRANCH   2   6
BRANCH   2   8
ATOM      8  C   UNL     1       6.497   5.086  14.837  0.00  0.00    +0.000 C 
ATOM      9  O   UNL     1       5.316   5.151  14.493  0.00  0.00    +0.000 OA
ATOM     10  N   UNL     1       7.548   5.091  13.946  0.00  0.00    +0.000 N 
ATOM     11  H   UNL     1       8.495   5.192  14.288  0.00  0.00    +0.000 HD
BRANCH  10  12
ATOM     12  C   UNL     1       7.357   5.091  12.508  0.00  0.00    +0.000 C 
BRANCH  12  13
ATOM     13  C   UNL     1       6.875   3.759  11.973  0.00  0.00    +0.000 A 
ATOM     14  C   UNL     1       7.767   2.750  11.583  0.00  0.00    +0.000 A 
ATOM     15  C   UNL     1       7.302   1.503  11.158  0.00  0.00    +0.000 A 
ATOM     16  C   UNL     1       5.936   1.237  11.135  0.00  0.00    +0.000 A 
ATOM     17  C   UNL     1       5.034   2.222  11.531  0.00  0.00    +0.000 A 
ATOM     18  C   UNL     1       5.500   3.474  11.949  0.00  0.00    +0.000 A 
ENDBRANCH  12  13
ENDBRANCH  10  12
ENDBRANCH   2   8
ENDBRANCH   1   2
BRANCH   1  19
ATOM     19  C   UNL     1       4.449   5.482  16.885  0.00  0.00    +0.000 C 
BRANCH  19  20
ATOM     20  C   UNL     1       4.036   6.479  17.980  0.00  0.00    +0.000 C 
BRANCH  20  21
ATOM     21  C   UNL     1       2.542   6.516  18.355  0.00  0.00    +0.000 C 
BRANCH  21  22
ATOM     22  N   UNL     1       2.138   6.685  19.763  0.00  0.00    +0.000 N 
ATOM     23  C   UNL     1       1.749   7.916  20.255  0.00  0.00    +0.000 C 
ATOM     24  O   UNL     1       1.612   8.928  19.564  0.00  0.00    +0.000 OA
ATOM     25  N   UNL     1       1.567   7.994  21.613  0.00  0.00    +0.000 N 
ATOM     26  H   UNL     1       1.178   7.188  22.075  0.00  0.00    +0.000 HD
BRANCH  22  27
ATOM     27  C   UNL     1       1.910   5.433  20.505  0.00  0.00    +0.000 C 
BRANCH  27  28
ATOM     28  C   UNL     1       2.279   4.154  19.768  0.00  0.00    +0.000 A 
ATOM     29  C   UNL     1       1.498   3.599  18.742  0.00  0.00    +0.000 A 
ATOM     30  C   UNL     1       1.933   2.477  18.029  0.00  0.00    +0.000 A 
ATOM     31  C   UNL     1       3.154   1.881  18.336  0.00  0.00    +0.000 A 
ATOM     32  C   UNL     1       3.921   2.384  19.381  0.00  0.00    +0.000 A 
ATOM     33  C   UNL     1       3.485   3.507  20.096  0.00  0.00    +0.000 A 
ENDBRANCH  27  28
ENDBRANCH  22  27
BRANCH  25  34
ATOM     34  C   UNL     1       1.238   9.276  22.212  0.00  0.00    +0.000 C 
BRANCH  34  35
ATOM     35  C   UNL     1      -0.135   9.285  22.873  0.00  0.00    +0.000 C 
ATOM     36 CL   UNL     1      -0.827  10.931  22.855  0.00  0.00    +0.000 Cl
ENDBRANCH  34  35
ENDBRANCH  25  34
ENDBRANCH  21  22
ENDBRANCH  20  21
ENDBRANCH  19  20
ENDBRANCH   1  19
TORSDOF 13
ENDMDL
MODEL 6
REMARK VINA RESULT:      -7.5      1.132      1.632
REMARK  Name = 
REMARK  14 active torsions:
REMARK  status: ('A' for Active; 'I' for Inactive)
REMARK    1  A    between atoms: C_1  and  C_2
REMARK    2  A    between atoms: N_4  and  C_5
REMARK    3  A    between atoms: C_5  and  C_6
REMARK    4  A    between atoms: C_5  and  C_24
REMARK    5  A    between atoms: C_6  and  C_7
REMARK    6  A    between atoms: C_7  and  C_8
REMARK    7  A    between atoms: C_8  and  C_9
REMARK    8  A    between atoms: C_9  and  N_10
REMARK    9  A    between atoms: N_10  and  C_11
REMARK   10  A    between atoms: C_11  and  C_12
REMARK   11  A    between atoms: N_20  and  C_21
REMARK   12  A    between atoms: C_21  and  C_22
REMARK   13  A    between atoms: N_26  and  C_27
REMARK   14  A    between atoms: C_27  and  C_28
REMARK                            x       y       z     vdW  Elec       q    Type
REMARK                         _______ _______ _______ _____ _____    ______ ____
ROOT
ATOM      1  C   UNL     1       0.650   9.984  18.046  0.00  0.00    +0.000 C 
ENDROOT
BRANCH   1   2
ATOM      2  C   UNL     1      -0.397  10.631  18.968  0.00  0.00    +0.000 C 
BRANCH   2   6
ATOM      3  C   UNL     1       0.112   9.351  22.502  0.00  0.00    +0.000 C 
ATOM      4  C   UNL     1       0.086  10.349  21.377  0.00  0.00    +0.000 C 
ATOM      5  O   UNL     1       0.502  11.495  21.507  0.00  0.00    +0.000 OA
ATOM      6  N   UNL     1      -0.460   9.869  20.213  0.00  0.00    +0.000 N 
ATOM      7  H   UNL     1      -0.684   8.882  20.128  0.00  0.00    +0.000 HD
ENDBRANCH   2   6
BRANCH   2   8
ATOM      8  C   UNL     1      -1.806  10.590  18.343  0.00  0.00    +0.000 C 
ATOM      9  O   UNL     1      -2.288   9.545  17.903  0.00  0.00    +0.000 OA
ATOM     10  N   UNL     1      -2.486  11.788  18.366  0.00  0.00    +0.000 N 
ATOM     11  H   UNL     1      -2.101  12.573  18.877  0.00  0.00    +0.000 HD
BRANCH  10  12
ATOM     12  C   UNL     1      -3.810  11.949  17.797  0.00  0.00    +0.000 C 
BRANCH  12  13
ATOM     13  C   UNL     1      -4.921  11.667  18.786  0.00  0.00    +0.000 A 
ATOM     14  C   UNL     1      -5.113  12.455  19.930  0.00  0.00    +0.000 A 
ATOM     15  C   UNL     1      -6.187  12.221  20.793  0.00  0.00    +0.000 A 
ATOM     16  C   UNL     1      -7.098  11.206  20.515  0.00  0.00    +0.000 A 
ATOM     17  C   UNL     1      -6.932  10.421  19.377  0.00  0.00    +0.000 A 
ATOM     18  C   UNL     1      -5.852  10.650  18.517  0.00  0.00    +0.000 A 
ENDBRANCH  12  13
ENDBRANCH  10  12
ENDBRANCH   2   8
ENDBRANCH   1   2
BRANCH   1  19
ATOM     19  C   UNL     1       1.557   8.992  18.768  0.00  0.00    +0.000 C 
BRANCH  19  20
ATOM     20  C   UNL     1       2.171   7.942  17.829  0.00  0.00    +0.000 C 
BRANCH  20  21
ATOM     21  C   UNL     1       3.677   7.661  17.993  0.00  0.00    +0.000 C 
BRANCH  21  22
ATOM     22  N   UNL     1       4.234   6.357  17.590  0.00  0.00    +0.000 N 
ATOM     23  C   UNL     1       4.795   6.172  16.341  0.00  0.00    +0.000 C 
ATOM     24  O   UNL     1       4.966   7.072  15.517  0.00  0.00    +0.000 OA
ATOM     25  N   UNL     1       5.117   4.880  16.009  0.00  0.00    +0.000 N 
ATOM     26  H   UNL     1       5.465   4.285  16.744  0.00  0.00    +0.000 HD
BRANCH  22  27
ATOM     27  C   UNL     1       4.403   5.382  18.681  0.00  0.00    +0.000 C 
BRANCH  27  28
ATOM     28  C   UNL     1       3.135   4.669  19.129  0.00  0.00    +0.000 A 
ATOM     29  C   UNL     1       2.403   5.035  20.270  0.00  0.00    +0.000 A 
ATOM     30  C   UNL     1       1.191   4.410  20.581  0.00  0.00    +0.000 A 
ATOM     31  C   UNL     1       0.693   3.399  19.763  0.00  0.00    +0.000 A 
ATOM     32  C   UNL     1       1.426   2.986  18.656  0.00  0.00    +0.000 A 
ATOM     33  C   UNL     1       2.641   3.611  18.345  0.00  0.00    +0.000 A 
ENDBRANCH  27  28
ENDBRANCH  22  27
BRANCH  25  34
ATOM     34  C   UNL     1       5.635   4.596  14.681  0.00  0.00    +0.000 C 
BRANCH  34  35
ATOM     35  C   UNL     1       7.157   4.586  14.629  0.00  0.00    +0.000 C 
ATOM     36 CL   UNL     1       7.738   5.343  13.121  0.00  0.00    +0.000 Cl
ENDBRANCH  34  35
ENDBRANCH  25  34
ENDBRANCH  21  22
ENDBRANCH  20  21
ENDBRANCH  19  20
ENDBRANCH   1  19
TORSDOF 13
ENDMDL
MODEL 7
REMARK VINA RESULT:      -7.5      3.753      9.512
REMARK  Name = 
REMARK  14 active torsions:
REMARK  status: ('A' for Active; 'I' for Inactive)
REMARK    1  A    between atoms: C_1  and  C_2
REMARK    2  A    between atoms: N_4  and  C_5
REMARK    3  A    between atoms: C_5  and  C_6
REMARK    4  A    between atoms: C_5  and  C_24
REMARK    5  A    between atoms: C_6  and  C_7
REMARK    6  A    between atoms: C_7  and  C_8
REMARK    7  A    between atoms: C_8  and  C_9
REMARK    8  A    between atoms: C_9  and  N_10
REMARK    9  A    between atoms: N_10  and  C_11
REMARK   10  A    between atoms: C_11  and  C_12
REMARK   11  A    between atoms: N_20  and  C_21
REMARK   12  A    between atoms: C_21  and  C_22
REMARK   13  A    between atoms: N_26  and  C_27
REMARK   14  A    between atoms: C_27  and  C_28
REMARK                            x       y       z     vdW  Elec       q    Type
REMARK                         _______ _______ _______ _____ _____    ______ ____
ROOT
ATOM      1  C   UNL     1       4.713   6.981  17.532  0.00  0.00    +0.000 C 
ENDROOT
BRANCH   1   2
ATOM      2  C   UNL     1       5.755   5.861  17.368  0.00  0.00    +0.000 C 
BRANCH   2   6
ATOM      3  C   UNL     1       6.768   4.676  13.911  0.00  0.00    +0.000 C 
ATOM      4  C   UNL     1       6.875   4.871  15.397  0.00  0.00    +0.000 C 
ATOM      5  O   UNL     1       7.870   4.540  16.033  0.00  0.00    +0.000 OA
ATOM      6  N   UNL     1       5.760   5.428  15.972  0.00  0.00    +0.000 N 
ATOM      7  H   UNL     1       5.013   5.786  15.385  0.00  0.00    +0.000 HD
ENDBRANCH   2   6
BRANCH   2   8
ATOM      8  C   UNL     1       5.400   4.627  18.221  0.00  0.00    +0.000 C 
ATOM      9  O   UNL     1       5.857   4.471  19.354  0.00  0.00    +0.000 OA
ATOM     10  N   UNL     1       4.505   3.757  17.637  0.00  0.00    +0.000 N 
ATOM     11  H   UNL     1       4.047   4.014  16.772  0.00  0.00    +0.000 HD
BRANCH  10  12
ATOM     12  C   UNL     1       4.078   2.527  18.275  0.00  0.00    +0.000 C 
BRANCH  12  13
ATOM     13  C   UNL     1       3.016   2.743  19.332  0.00  0.00    +0.000 A 
ATOM     14  C   UNL     1       1.687   3.044  18.998  0.00  0.00    +0.000 A 
ATOM     15  C   UNL     1       0.708   3.170  19.985  0.00  0.00    +0.000 A 
ATOM     16  C   UNL     1       1.036   2.978  21.324  0.00  0.00    +0.000 A 
ATOM     17  C   UNL     1       2.347   2.665  21.675  0.00  0.00    +0.000 A 
ATOM     18  C   UNL     1       3.330   2.547  20.687  0.00  0.00    +0.000 A 
ENDBRANCH  12  13
ENDBRANCH  10  12
ENDBRANCH   2   8
ENDBRANCH   1   2
BRANCH   1  19
ATOM     19  C   UNL     1       3.431   6.515  18.216  0.00  0.00    +0.000 C 
BRANCH  19  20
ATOM     20  C   UNL     1       2.197   7.334  17.806  0.00  0.00    +0.000 C 
BRANCH  20  21
ATOM     21  C   UNL     1       2.136   8.791  18.304  0.00  0.00    +0.000 C 
BRANCH  21  22
ATOM     22  N   UNL     1       0.970   9.260  19.074  0.00  0.00    +0.000 N 
ATOM     23  C   UNL     1       0.875   9.040  20.436  0.00  0.00    +0.000 C 
ATOM     24  O   UNL     1       1.767   8.540  21.122  0.00  0.00    +0.000 OA
ATOM     25  N   UNL     1      -0.327   9.359  21.016  0.00  0.00    +0.000 N 
ATOM     26  H   UNL     1      -0.813  10.167  20.662  0.00  0.00    +0.000 HD
BRANCH  22  27
ATOM     27  C   UNL     1       0.085  10.200  18.365  0.00  0.00    +0.000 C 
BRANCH  27  28
ATOM     28  C   UNL     1       0.355  11.676  18.616  0.00  0.00    +0.000 A 
ATOM     29  C   UNL     1      -0.655  12.650  18.666  0.00  0.00    +0.000 A 
ATOM     30  C   UNL     1      -0.363  13.977  18.999  0.00  0.00    +0.000 A 
ATOM     31  C   UNL     1       0.947  14.357  19.278  0.00  0.00    +0.000 A 
ATOM     32  C   UNL     1       1.970  13.420  19.186  0.00  0.00    +0.000 A 
ATOM     33  C   UNL     1       1.678  12.092  18.851  0.00  0.00    +0.000 A 
ENDBRANCH  27  28
ENDBRANCH  22  27
BRANCH  25  34
ATOM     34  C   UNL     1      -0.530   9.079  22.427  0.00  0.00    +0.000 C 
BRANCH  34  35
ATOM     35  C   UNL     1      -0.784  10.335  23.250  0.00  0.00    +0.000 C 
ATOM     36 CL   UNL     1      -0.551  11.796  22.250  0.00  0.00    +0.000 Cl
ENDBRANCH  34  35
ENDBRANCH  25  34
ENDBRANCH  21  22
ENDBRANCH  20  21
ENDBRANCH  19  20
ENDBRANCH   1  19
TORSDOF 13
ENDMDL
MODEL 8
REMARK VINA RESULT:      -7.4      1.166      1.513
REMARK  Name = 
REMARK  14 active torsions:
REMARK  status: ('A' for Active; 'I' for Inactive)
REMARK    1  A    between atoms: C_1  and  C_2
REMARK    2  A    between atoms: N_4  and  C_5
REMARK    3  A    between atoms: C_5  and  C_6
REMARK    4  A    between atoms: C_5  and  C_24
REMARK    5  A    between atoms: C_6  and  C_7
REMARK    6  A    between atoms: C_7  and  C_8
REMARK    7  A    between atoms: C_8  and  C_9
REMARK    8  A    between atoms: C_9  and  N_10
REMARK    9  A    between atoms: N_10  and  C_11
REMARK   10  A    between atoms: C_11  and  C_12
REMARK   11  A    between atoms: N_20  and  C_21
REMARK   12  A    between atoms: C_21  and  C_22
REMARK   13  A    between atoms: N_26  and  C_27
REMARK   14  A    between atoms: C_27  and  C_28
REMARK                            x       y       z     vdW  Elec       q    Type
REMARK                         _______ _______ _______ _____ _____    ______ ____
ROOT
ATOM      1  C   UNL     1       0.113   9.115  17.761  0.00  0.00    +0.000 C 
ENDROOT
BRANCH   1   2
ATOM      2  C   UNL     1      -0.550  10.410  18.258  0.00  0.00    +0.000 C 
BRANCH   2   6
ATOM      3  C   UNL     1      -0.403  10.473  22.047  0.00  0.00    +0.000 C 
ATOM      4  C   UNL     1      -0.086  10.893  20.639  0.00  0.00    +0.000 C 
ATOM      5  O   UNL     1       0.767  11.736  20.381  0.00  0.00    +0.000 OA
ATOM      6  N   UNL     1      -0.846  10.268  19.682  0.00  0.00    +0.000 N 
ATOM      7  H   UNL     1      -1.455   9.499  19.943  0.00  0.00    +0.000 HD
ENDBRANCH   2   6
BRANCH   2   8
ATOM      8  C   UNL     1      -1.892  10.671  17.544  0.00  0.00    +0.000 C 
ATOM      9  O   UNL     1      -2.058  10.390  16.357  0.00  0.00    +0.000 OA
ATOM     10  N   UNL     1      -2.885  11.187  18.348  0.00  0.00    +0.000 N 
ATOM     11  H   UNL     1      -2.738  11.252  19.347  0.00  0.00    +0.000 HD
BRANCH  10  12
ATOM     12  C   UNL     1      -4.203  11.525  17.846  0.00  0.00    +0.000 C 
BRANCH  12  13
ATOM     13  C   UNL     1      -5.233  11.693  18.943  0.00  0.00    +0.000 A 
ATOM     14  C   UNL     1      -6.463  11.019  18.915  0.00  0.00    +0.000 A 
ATOM     15  C   UNL     1      -7.369  11.133  19.972  0.00  0.00    +0.000 A 
ATOM     16  C   UNL     1      -7.052  11.906  21.085  0.00  0.00    +0.000 A 
ATOM     17  C   UNL     1      -5.830  12.572  21.137  0.00  0.00    +0.000 A 
ATOM     18  C   UNL     1      -4.926  12.465  20.075  0.00  0.00    +0.000 A 
ENDBRANCH  12  13
ENDBRANCH  10  12
ENDBRANCH   2   8
ENDBRANCH   1   2
BRANCH   1  19
ATOM     19  C   UNL     1       1.619   9.078  18.003  0.00  0.00    +0.000 C 
BRANCH  19  20
ATOM     20  C   UNL     1       2.248   7.712  17.683  0.00  0.00    +0.000 C 
BRANCH  20  21
ATOM     21  C   UNL     1       3.777   7.601  17.838  0.00  0.00    +0.000 C 
BRANCH  21  22
ATOM     22  N   UNL     1       4.456   6.322  17.559  0.00  0.00    +0.000 N 
ATOM     23  C   UNL     1       5.179   6.133  16.397  0.00  0.00    +0.000 C 
ATOM     24  O   UNL     1       5.399   7.015  15.565  0.00  0.00    +0.000 OA
ATOM     25  N   UNL     1       5.617   4.854  16.159  0.00  0.00    +0.000 N 
ATOM     26  H   UNL     1       5.904   4.307  16.955  0.00  0.00    +0.000 HD
BRANCH  22  27
ATOM     27  C   UNL     1       4.545   5.396  18.701  0.00  0.00    +0.000 C 
BRANCH  27  28
ATOM     28  C   UNL     1       3.243   4.714  19.098  0.00  0.00    +0.000 A 
ATOM     29  C   UNL     1       2.603   4.926  20.329  0.00  0.00    +0.000 A 
ATOM     30  C   UNL     1       1.358   4.351  20.604  0.00  0.00    +0.000 A 
ATOM     31  C   UNL     1       0.734   3.545  19.656  0.00  0.00    +0.000 A 
ATOM     32  C   UNL     1       1.372   3.281  18.450  0.00  0.00    +0.000 A 
ATOM     33  C   UNL     1       2.620   3.855  18.175  0.00  0.00    +0.000 A 
ENDBRANCH  27  28
ENDBRANCH  22  27
BRANCH  25  34
ATOM     34  C   UNL     1       6.313   4.562  14.918  0.00  0.00    +0.000 C 
BRANCH  34  35
ATOM     35  C   UNL     1       5.419   3.892  13.882  0.00  0.00    +0.000 C 
ATOM     36 CL   UNL     1       6.314   3.625  12.361  0.00  0.00    +0.000 Cl
ENDBRANCH  34  35
ENDBRANCH  25  34
ENDBRANCH  21  22
ENDBRANCH  20  21
ENDBRANCH  19  20
ENDBRANCH   1  19
TORSDOF 13
ENDMDL
MODEL 9
REMARK VINA RESULT:      -7.4      4.057     10.121
REMARK  Name = 
REMARK  14 active torsions:
REMARK  status: ('A' for Active; 'I' for Inactive)
REMARK    1  A    between atoms: C_1  and  C_2
REMARK    2  A    between atoms: N_4  and  C_5
REMARK    3  A    between atoms: C_5  and  C_6
REMARK    4  A    between atoms: C_5  and  C_24
REMARK    5  A    between atoms: C_6  and  C_7
REMARK    6  A    between atoms: C_7  and  C_8
REMARK    7  A    between atoms: C_8  and  C_9
REMARK    8  A    between atoms: C_9  and  N_10
REMARK    9  A    between atoms: N_10  and  C_11
REMARK   10  A    between atoms: C_11  and  C_12
REMARK   11  A    between atoms: N_20  and  C_21
REMARK   12  A    between atoms: C_21  and  C_22
REMARK   13  A    between atoms: N_26  and  C_27
REMARK   14  A    between atoms: C_27  and  C_28
REMARK                            x       y       z     vdW  Elec       q    Type
REMARK                         _______ _______ _______ _____ _____    ______ ____
ROOT
ATOM      1  C   UNL     1       2.418   6.948  18.640  0.00  0.00    +0.000 C 
ENDROOT
BRANCH   1   2
ATOM      2  C   UNL     1       2.798   5.662  17.886  0.00  0.00    +0.000 C 
BRANCH   2   6
ATOM      3  C   UNL     1       1.252   2.347  18.885  0.00  0.00    +0.000 C 
ATOM      4  C   UNL     1       1.951   3.342  18.001  0.00  0.00    +0.000 C 
ATOM      5  O   UNL     1       2.213   3.106  16.826  0.00  0.00    +0.000 OA
ATOM      6  N   UNL     1       2.285   4.515  18.631  0.00  0.00    +0.000 N 
ATOM      7  H   UNL     1       1.945   4.699  19.569  0.00  0.00    +0.000 HD
ENDBRANCH   2   6
BRANCH   2   8
ATOM      8  C   UNL     1       4.328   5.491  17.792  0.00  0.00    +0.000 C 
ATOM      9  O   UNL     1       5.053   5.600  18.782  0.00  0.00    +0.000 OA
ATOM     10  N   UNL     1       4.798   5.161  16.540  0.00  0.00    +0.000 N 
ATOM     11  H   UNL     1       4.143   4.935  15.802  0.00  0.00    +0.000 HD
BRANCH  10  12
ATOM     12  C   UNL     1       6.209   4.990  16.252  0.00  0.00    +0.000 C 
BRANCH  12  13
ATOM     13  C   UNL     1       6.483   4.638  14.805  0.00  0.00    +0.000 A 
ATOM     14  C   UNL     1       5.666   3.750  14.091  0.00  0.00    +0.000 A 
ATOM     15  C   UNL     1       5.894   3.494  12.737  0.00  0.00    +0.000 A 
ATOM     16  C   UNL     1       6.932   4.137  12.068  0.00  0.00    +0.000 A 
ATOM     17  C   UNL     1       7.746   5.033  12.757  0.00  0.00    +0.000 A 
ATOM     18  C   UNL     1       7.522   5.284  14.116  0.00  0.00    +0.000 A 
ENDBRANCH  12  13
ENDBRANCH  10  12
ENDBRANCH   2   8
ENDBRANCH   1   2
BRANCH   1  19
ATOM     19  C   UNL     1       2.857   8.220  17.921  0.00  0.00    +0.000 C 
BRANCH  19  20
ATOM     20  C   UNL     1       1.733   9.260  17.794  0.00  0.00    +0.000 C 
BRANCH  20  21
ATOM     21  C   UNL     1       2.089  10.713  18.162  0.00  0.00    +0.000 C 
BRANCH  21  22
ATOM     22  N   UNL     1       1.052  11.616  18.693  0.00  0.00    +0.000 N 
ATOM     23  C   UNL     1       1.176  12.989  18.592  0.00  0.00    +0.000 C 
ATOM     24  O   UNL     1       2.081  13.561  17.981  0.00  0.00    +0.000 OA
ATOM     25  N   UNL     1       0.246  13.732  19.275  0.00  0.00    +0.000 N 
ATOM     26  H   UNL     1      -0.694  13.373  19.316  0.00  0.00    +0.000 HD
BRANCH  22  27
ATOM     27  C   UNL     1      -0.216  10.966  19.068  0.00  0.00    +0.000 C 
BRANCH  27  28
ATOM     28  C   UNL     1      -0.310  10.489  20.510  0.00  0.00    +0.000 A 
ATOM     29  C   UNL     1       0.223   9.271  20.959  0.00  0.00    +0.000 A 
ATOM     30  C   UNL     1       0.196   8.926  22.314  0.00  0.00    +0.000 A 
ATOM     31  C   UNL     1      -0.373   9.790  23.246  0.00  0.00    +0.000 A 
ATOM     32  C   UNL     1      -0.952  10.980  22.817  0.00  0.00    +0.000 A 
ATOM     33  C   UNL     1      -0.926  11.324  21.460  0.00  0.00    +0.000 A 
ENDBRANCH  27  28
ENDBRANCH  22  27
BRANCH  25  34
ATOM     34  C   UNL     1       0.361  15.180  19.283  0.00  0.00    +0.000 C 
BRANCH  34  35
ATOM     35  C   UNL     1       0.955  15.720  20.577  0.00  0.00    +0.000 C 
ATOM     36 CL   UNL     1       0.235  17.301  20.986  0.00  0.00    +0.000 Cl
ENDBRANCH  34  35
ENDBRANCH  25  34
ENDBRANCH  21  22
ENDBRANCH  20  21
ENDBRANCH  19  20
ENDBRANCH   1  19
TORSDOF 13
ENDMDL
