MODEL 1
REMARK VINA RESULT:      -7.3      0.000      0.000
REMARK  Name = 
REMARK  5 active torsions:
REMARK  status: ('A' for Active; 'I' for Inactive)
REMARK    1  A    between atoms: N_1  and  S_2
REMARK    2  A    between atoms: S_2  and  C_5
REMARK    3  A    between atoms: C_8  and  C_9
REMARK    4  A    between atoms: C_9  and  N_10
REMARK    5  A    between atoms: C_11  and  C_13
REMARK                            x       y       z     vdW  Elec       q    Type
REMARK                         _______ _______ _______ _____ _____    ______ ____
ROOT
ATOM      1  C   UNL     1       2.496   4.685  19.676  0.00  0.00    +0.000 A 
ATOM      2  C   UNL     1       2.124   5.770  20.474  0.00  0.00    +0.000 A 
ATOM      3  C   UNL     1       2.107   7.049  19.915  0.00  0.00    +0.000 A 
ATOM      4  C   UNL     1       2.451   7.248  18.567  0.00  0.00    +0.000 A 
ATOM      5  C   UNL     1       2.835   6.146  17.789  0.00  0.00    +0.000 A 
ATOM      6  C   UNL     1       2.856   4.865  18.342  0.00  0.00    +0.000 A 
ENDROOT
BRANCH   1   7
ATOM      7  S   UNL     1       2.478   3.054  20.359  0.00  0.00    +0.000 S 
ATOM      8  O   UNL     1       3.810   2.506  20.300  0.00  0.00    +0.000 OA
ATOM      9  O   UNL     1       1.323   2.343  19.860  0.00  0.00    +0.000 OA
BRANCH   7  10
ATOM     10  N   UNL     1       2.141   3.349  21.978  0.00  0.00    +0.000 NA
ATOM     11  H   UNL     1       2.048   4.356  22.121  0.00  0.00    +0.000 HD
ATOM     12  H   UNL     1       2.849   2.920  22.574  0.00  0.00    +0.000 HD
ENDBRANCH   7  10
ENDBRANCH   1   7
BRANCH   4  13
ATOM     13  C   UNL     1       2.429   8.637  17.979  0.00  0.00    +0.000 C 
BRANCH  13  14
ATOM     14  N   UNL     1       1.084   9.123  17.804  0.00  0.00    +0.000 N 
ATOM     15  C   UNL     1       0.478   9.966  18.707  0.00  0.00    +0.000 C 
ATOM     16  O   UNL     1       1.007  10.376  19.731  0.00  0.00    +0.000 OA
ATOM     17  H   UNL     1       0.675   9.027  16.878  0.00  0.00    +0.000 HD
BRANCH  15  18
ATOM     18  C   UNL     1      -0.903  10.390  18.348  0.00  0.00    +0.000 A 
ATOM     19  C   UNL     1      -1.562   9.830  17.243  0.00  0.00    +0.000 A 
ATOM     20  C   UNL     1      -2.847  10.256  16.905  0.00  0.00    +0.000 A 
ATOM     21  C   UNL     1      -3.477  11.232  17.676  0.00  0.00    +0.000 A 
ATOM     22 BR   UNL     1      -5.207  11.825  17.197  0.00  0.00    +0.000 Br
ATOM     23  C   UNL     1      -2.842  11.773  18.793  0.00  0.00    +0.000 A 
ATOM     24  C   UNL     1      -1.555  11.345  19.136  0.00  0.00    +0.000 A 
ENDBRANCH  15  18
ENDBRANCH  13  14
ENDBRANCH   4  13
TORSDOF 5
ENDMDL
MODEL 2
REMARK VINA RESULT:      -7.3      0.207      1.509
REMARK  Name = 
REMARK  5 active torsions:
REMARK  status: ('A' for Active; 'I' for Inactive)
REMARK    1  A    between atoms: N_1  and  S_2
REMARK    2  A    between atoms: S_2  and  C_5
REMARK    3  A    between atoms: C_8  and  C_9
REMARK    4  A    between atoms: C_9  and  N_10
REMARK    5  A    between atoms: C_11  and  C_13
REMARK                            x       y       z     vdW  Elec       q    Type
REMARK                         _______ _______ _______ _____ _____    ______ ____
ROOT
ATOM      1  C   UNL     1       2.560   4.568  19.703  0.00  0.00    +0.000 A 
ATOM      2  C   UNL     1       3.001   4.778  18.395  0.00  0.00    +0.000 A 
ATOM      3  C   UNL     1       2.962   6.069  17.865  0.00  0.00    +0.000 A 
ATOM      4  C   UNL     1       2.494   7.148  18.634  0.00  0.00    +0.000 A 
ATOM      5  C   UNL     1       2.042   6.911  19.941  0.00  0.00    +0.000 A 
ATOM      6  C   UNL     1       2.076   5.622  20.476  0.00  0.00    +0.000 A 
ENDROOT
BRANCH   1   7
ATOM      7  S   UNL     1       2.645   2.946  20.402  0.00  0.00    +0.000 S 
ATOM      8  O   UNL     1       4.019   2.509  20.408  0.00  0.00    +0.000 OA
ATOM      9  O   UNL     1       1.576   2.138  19.860  0.00  0.00    +0.000 OA
BRANCH   7  10
ATOM     10  N   UNL     1       2.212   3.223  22.001  0.00  0.00    +0.000 NA
ATOM     11  H   UNL     1       1.323   3.727  22.022  0.00  0.00    +0.000 HD
ATOM     12  H   UNL     1       2.962   3.707  22.495  0.00  0.00    +0.000 HD
ENDBRANCH   7  10
ENDBRANCH   1   7
BRANCH   4  13
ATOM     13  C   UNL     1       2.457   8.536  18.046  0.00  0.00    +0.000 C 
BRANCH  13  14
ATOM     14  N   UNL     1       1.109   9.024  17.910  0.00  0.00    +0.000 N 
ATOM     15  C   UNL     1       0.619  10.067  18.662  0.00  0.00    +0.000 C 
ATOM     16  O   UNL     1       1.265  10.670  19.508  0.00  0.00    +0.000 OA
ATOM     17  H   UNL     1       0.598   8.744  17.076  0.00  0.00    +0.000 HD
BRANCH  15  18
ATOM     18  C   UNL     1      -0.787  10.455  18.365  0.00  0.00    +0.000 A 
ATOM     19  C   UNL     1      -1.429  11.456  19.109  0.00  0.00    +0.000 A 
ATOM     20  C   UNL     1      -2.756  11.791  18.834  0.00  0.00    +0.000 A 
ATOM     21  C   UNL     1      -3.436  11.134  17.808  0.00  0.00    +0.000 A 
ATOM     22 BR   UNL     1      -5.241  11.573  17.457  0.00  0.00    +0.000 Br
ATOM     23  C   UNL     1      -2.796  10.159  17.044  0.00  0.00    +0.000 A 
ATOM     24  C   UNL     1      -1.466   9.824  17.316  0.00  0.00    +0.000 A 
ENDBRANCH  15  18
ENDBRANCH  13  14
ENDBRANCH   4  13
TORSDOF 5
ENDMDL
MODEL 3
REMARK VINA RESULT:      -7.3      0.497      1.168
REMARK  Name = 
REMARK  5 active torsions:
REMARK  status: ('A' for Active; 'I' for Inactive)
REMARK    1  A    between atoms: N_1  and  S_2
REMARK    2  A    between atoms: S_2  and  C_5
REMARK    3  A    between atoms: C_8  and  C_9
REMARK    4  A    between atoms: C_9  and  N_10
REMARK    5  A    between atoms: C_11  and  C_13
REMARK                            x       y       z     vdW  Elec       q    Type
REMARK                         _______ _______ _______ _____ _____    ______ ____
ROOT
ATOM      1  C   UNL     1       2.348   4.460  19.581  0.00  0.00    +0.000 A 
ATOM      2  C   UNL     1       2.081   5.514  20.457  0.00  0.00    +0.000 A 
ATOM      3  C   UNL     1       2.121   6.824  19.975  0.00  0.00    +0.000 A 
ATOM      4  C   UNL     1       2.416   7.084  18.626  0.00  0.00    +0.000 A 
ATOM      5  C   UNL     1       2.695   6.011  17.768  0.00  0.00    +0.000 A 
ATOM      6  C   UNL     1       2.659   4.699  18.244  0.00  0.00    +0.000 A 
ENDROOT
BRANCH   1   7
ATOM      7  S   UNL     1       2.257   2.794  20.168  0.00  0.00    +0.000 S 
ATOM      8  O   UNL     1       3.377   2.542  21.041  0.00  0.00    +0.000 OA
ATOM      9  O   UNL     1       1.919   1.921  19.067  0.00  0.00    +0.000 OA
BRANCH   7  10
ATOM     10  N   UNL     1       0.882   2.830  21.132  0.00  0.00    +0.000 NA
ATOM     11  H   UNL     1       0.525   1.878  21.237  0.00  0.00    +0.000 HD
ATOM     12  H   UNL     1       0.195   3.479  20.750  0.00  0.00    +0.000 HD
ENDBRANCH   7  10
ENDBRANCH   1   7
BRANCH   4  13
ATOM     13  C   UNL     1       2.456   8.505  18.122  0.00  0.00    +0.000 C 
BRANCH  13  14
ATOM     14  N   UNL     1       1.134   9.041  17.924  0.00  0.00    +0.000 N 
ATOM     15  C   UNL     1       0.542   9.901  18.821  0.00  0.00    +0.000 C 
ATOM     16  O   UNL     1       1.067  10.288  19.855  0.00  0.00    +0.000 OA
ATOM     17  H   UNL     1       0.739   8.963  16.990  0.00  0.00    +0.000 HD
BRANCH  15  18
ATOM     18  C   UNL     1      -0.816  10.377  18.437  0.00  0.00    +0.000 A 
ATOM     19  C   UNL     1      -1.457  11.386  19.171  0.00  0.00    +0.000 A 
ATOM     20  C   UNL     1      -2.740  11.803  18.813  0.00  0.00    +0.000 A 
ATOM     21  C   UNL     1      -3.376  11.220  17.718  0.00  0.00    +0.000 A 
ATOM     22 BR   UNL     1      -5.125  11.770  17.255  0.00  0.00    +0.000 Br
ATOM     23  C   UNL     1      -2.735  10.237  16.965  0.00  0.00    +0.000 A 
ATOM     24  C   UNL     1      -1.448   9.819  17.320  0.00  0.00    +0.000 A 
ENDBRANCH  15  18
ENDBRANCH  13  14
ENDBRANCH   4  13
TORSDOF 5
ENDMDL
MODEL 4
REMARK VINA RESULT:      -7.3      0.805      1.435
REMARK  Name = 
REMARK  5 active torsions:
REMARK  status: ('A' for Active; 'I' for Inactive)
REMARK    1  A    between atoms: N_1  and  S_2
REMARK    2  A    between atoms: S_2  and  C_5
REMARK    3  A    between atoms: C_8  and  C_9
REMARK    4  A    between atoms: C_9  and  N_10
REMARK    5  A    between atoms: C_11  and  C_13
REMARK                            x       y       z     vdW  Elec       q    Type
REMARK                         _______ _______ _______ _____ _____    ______ ____
ROOT
ATOM      1  C   UNL     1       2.478   4.514  19.796  0.00  0.00    +0.000 A 
ATOM      2  C   UNL     1       2.941   4.697  18.491  0.00  0.00    +0.000 A 
ATOM      3  C   UNL     1       2.930   5.980  17.940  0.00  0.00    +0.000 A 
ATOM      4  C   UNL     1       2.467   7.077  18.686  0.00  0.00    +0.000 A 
ATOM      5  C   UNL     1       1.993   6.868  19.989  0.00  0.00    +0.000 A 
ATOM      6  C   UNL     1       2.000   5.588  20.545  0.00  0.00    +0.000 A 
ENDROOT
BRANCH   1   7
ATOM      7  S   UNL     1       2.529   2.902  20.521  0.00  0.00    +0.000 S 
ATOM      8  O   UNL     1       1.660   2.024  19.777  0.00  0.00    +0.000 OA
ATOM      9  O   UNL     1       2.459   3.026  21.960  0.00  0.00    +0.000 OA
BRANCH   7  10
ATOM     10  N   UNL     1       4.105   2.417  20.203  0.00  0.00    +0.000 NA
ATOM     11  H   UNL     1       4.516   3.051  19.515  0.00  0.00    +0.000 HD
ATOM     12  H   UNL     1       4.126   1.439  19.914  0.00  0.00    +0.000 HD
ENDBRANCH   7  10
ENDBRANCH   1   7
BRANCH   4  13
ATOM     13  C   UNL     1       2.460   8.456  18.076  0.00  0.00    +0.000 C 
BRANCH  13  14
ATOM     14  N   UNL     1       1.121   8.957  17.899  0.00  0.00    +0.000 N 
ATOM     15  C   UNL     1       0.605   9.979  18.662  0.00  0.00    +0.000 C 
ATOM     16  O   UNL     1       1.218  10.553  19.551  0.00  0.00    +0.000 OA
ATOM     17  H   UNL     1       0.644   8.704  17.037  0.00  0.00    +0.000 HD
BRANCH  15  18
ATOM     18  C   UNL     1      -0.785  10.385  18.318  0.00  0.00    +0.000 A 
ATOM     19  C   UNL     1      -1.450   9.814  17.223  0.00  0.00    +0.000 A 
ATOM     20  C   UNL     1      -2.745  10.223  16.900  0.00  0.00    +0.000 A 
ATOM     21  C   UNL     1      -3.378  11.193  17.676  0.00  0.00    +0.000 A 
ATOM     22 BR   UNL     1      -5.121  11.763  17.218  0.00  0.00    +0.000 Br
ATOM     23  C   UNL     1      -2.735  11.745  18.785  0.00  0.00    +0.000 A 
ATOM     24  C   UNL     1      -1.439  11.334  19.112  0.00  0.00    +0.000 A 
ENDBRANCH  15  18
ENDBRANCH  13  14
ENDBRANCH   4  13
TORSDOF 5
ENDMDL
MODEL 5
REMARK VINA RESULT:      -7.1      1.105      1.593
REMARK  Name = 
REMARK  5 active torsions:
REMARK  status: ('A' for Active; 'I' for Inactive)
REMARK    1  A    between atoms: N_1  and  S_2
REMARK    2  A    between atoms: S_2  and  C_5
REMARK    3  A    between atoms: C_8  and  C_9
REMARK    4  A    between atoms: C_9  and  N_10
REMARK    5  A    between atoms: C_11  and  C_13
REMARK                            x       y       z     vdW  Elec       q    Type
REMARK                         _______ _______ _______ _____ _____    ______ ____
ROOT
ATOM      1  C   UNL     1       3.090   4.417  19.324  0.00  0.00    +0.000 A 
ATOM      2  C   UNL     1       2.307   5.315  20.052  0.00  0.00    +0.000 A 
ATOM      3  C   UNL     1       2.183   6.630  19.601  0.00  0.00    +0.000 A 
ATOM      4  C   UNL     1       2.829   7.049  18.425  0.00  0.00    +0.000 A 
ATOM      5  C   UNL     1       3.623   6.134  17.717  0.00  0.00    +0.000 A 
ATOM      6  C   UNL     1       3.752   4.819  18.165  0.00  0.00    +0.000 A 
ENDROOT
BRANCH   1   7
ATOM      7  S   UNL     1       3.220   2.737  19.861  0.00  0.00    +0.000 S 
ATOM      8  O   UNL     1       2.555   1.886  18.905  0.00  0.00    +0.000 OA
ATOM      9  O   UNL     1       2.950   2.669  21.279  0.00  0.00    +0.000 OA
BRANCH   7  10
ATOM     10  N   UNL     1       4.867   2.442  19.717  0.00  0.00    +0.000 NA
ATOM     11  H   UNL     1       5.265   2.317  20.650  0.00  0.00    +0.000 HD
ATOM     12  H   UNL     1       5.317   3.185  19.183  0.00  0.00    +0.000 HD
ENDBRANCH   7  10
ENDBRANCH   1   7
BRANCH   4  13
ATOM     13  C   UNL     1       2.686   8.473  17.951  0.00  0.00    +0.000 C 
BRANCH  13  14
ATOM     14  N   UNL     1       1.309   8.896  17.931  0.00  0.00    +0.000 N 
ATOM     15  C   UNL     1       0.908  10.135  18.375  0.00  0.00    +0.000 C 
ATOM     16  O   UNL     1       1.664  10.985  18.824  0.00  0.00    +0.000 OA
ATOM     17  H   UNL     1       0.668   8.353  17.358  0.00  0.00    +0.000 HD
BRANCH  15  18
ATOM     18  C   UNL     1      -0.550  10.410  18.250  0.00  0.00    +0.000 A 
ATOM     19  C   UNL     1      -1.168  11.384  19.047  0.00  0.00    +0.000 A 
ATOM     20  C   UNL     1      -2.540  11.613  18.936  0.00  0.00    +0.000 A 
ATOM     21  C   UNL     1      -3.292  10.874  18.022  0.00  0.00    +0.000 A 
ATOM     22 BR   UNL     1      -5.155  11.168  17.895  0.00  0.00    +0.000 Br
ATOM     23  C   UNL     1      -2.681   9.923  17.205  0.00  0.00    +0.000 A 
ATOM     24  C   UNL     1      -1.305   9.695  17.313  0.00  0.00    +0.000 A 
ENDBRANCH  15  18
ENDBRANCH  13  14
ENDBRANCH   4  13
TORSDOF 5
ENDMDL
MODEL 6
REMARK VINA RESULT:      -7.1      0.972      1.066
REMARK  Name = 
REMARK  5 active torsions:
REMARK  status: ('A' for Active; 'I' for Inactive)
REMARK    1  A    between atoms: N_1  and  S_2
REMARK    2  A    between atoms: S_2  and  C_5
REMARK    3  A    between atoms: C_8  and  C_9
REMARK    4  A    between atoms: C_9  and  N_10
REMARK    5  A    between atoms: C_11  and  C_13
REMARK                            x       y       z     vdW  Elec       q    Type
REMARK                         _______ _______ _______ _____ _____    ______ ____
ROOT
ATOM      1  C   UNL     1       2.904   4.535  19.393  0.00  0.00    +0.000 A 
ATOM      2  C   UNL     1       2.237   5.493  20.159  0.00  0.00    +0.000 A 
ATOM      3  C   UNL     1       2.124   6.796  19.668  0.00  0.00    +0.000 A 
ATOM      4  C   UNL     1       2.665   7.141  18.418  0.00  0.00    +0.000 A 
ATOM      5  C   UNL     1       3.344   6.166  17.673  0.00  0.00    +0.000 A 
ATOM      6  C   UNL     1       3.462   4.863  18.159  0.00  0.00    +0.000 A 
ENDROOT
BRANCH   1   7
ATOM      7  S   UNL     1       3.015   2.871  19.983  0.00  0.00    +0.000 S 
ATOM      8  O   UNL     1       2.375   1.993  19.035  0.00  0.00    +0.000 OA
ATOM      9  O   UNL     1       2.708   2.846  21.395  0.00  0.00    +0.000 OA
BRANCH   7  10
ATOM     10  N   UNL     1       4.665   2.570  19.892  0.00  0.00    +0.000 NA
ATOM     11  H   UNL     1       5.051   2.542  20.838  0.00  0.00    +0.000 HD
ATOM     12  H   UNL     1       5.121   3.257  19.292  0.00  0.00    +0.000 HD
ENDBRANCH   7  10
ENDBRANCH   1   7
BRANCH   4  13
ATOM     13  C   UNL     1       2.536   8.552  17.903  0.00  0.00    +0.000 C 
BRANCH  13  14
ATOM     14  N   UNL     1       1.164   8.991  17.879  0.00  0.00    +0.000 N 
ATOM     15  C   UNL     1       0.753  10.168  18.462  0.00  0.00    +0.000 C 
ATOM     16  O   UNL     1       1.494  10.944  19.048  0.00  0.00    +0.000 OA
ATOM     17  H   UNL     1       0.545   8.534  17.215  0.00  0.00    +0.000 HD
BRANCH  15  18
ATOM     18  C   UNL     1      -0.697  10.474  18.313  0.00  0.00    +0.000 A 
ATOM     19  C   UNL     1      -1.492   9.760  17.404  0.00  0.00    +0.000 A 
ATOM     20  C   UNL     1      -2.844  10.075  17.259  0.00  0.00    +0.000 A 
ATOM     21  C   UNL     1      -3.402  11.095  18.029  0.00  0.00    +0.000 A 
ATOM     22 BR   UNL     1      -5.227  11.536  17.809  0.00  0.00    +0.000 Br
ATOM     23  C   UNL     1      -2.626  11.790  18.956  0.00  0.00    +0.000 A 
ATOM     24  C   UNL     1      -1.272  11.474  19.106  0.00  0.00    +0.000 A 
ENDBRANCH  15  18
ENDBRANCH  13  14
ENDBRANCH   4  13
TORSDOF 5
ENDMDL
MODEL 7
REMARK VINA RESULT:      -7.0      4.469      8.155
REMARK  Name = 
REMARK  5 active torsions:
REMARK  status: ('A' for Active; 'I' for Inactive)
REMARK    1  A    between atoms: N_1  and  S_2
REMARK    2  A    between atoms: S_2  and  C_5
REMARK    3  A    between atoms: C_8  and  C_9
REMARK    4  A    between atoms: C_9  and  N_10
REMARK    5  A    between atoms: C_11  and  C_13
REMARK                            x       y       z     vdW  Elec       q    Type
REMARK                         _______ _______ _______ _____ _____    ______ ____
ROOT
ATOM      1  C   UNL     1      -0.406  11.144  19.632  0.00  0.00    +0.000 A 
ATOM      2  C   UNL     1       0.399  10.497  18.692  0.00  0.00    +0.000 A 
ATOM      3  C   UNL     1       1.083   9.338  19.066  0.00  0.00    +0.000 A 
ATOM      4  C   UNL     1       0.959   8.820  20.366  0.00  0.00    +0.000 A 
ATOM      5  C   UNL     1       0.156   9.494  21.298  0.00  0.00    +0.000 A 
ATOM      6  C   UNL     1      -0.528  10.654  20.931  0.00  0.00    +0.000 A 
ENDROOT
BRANCH   1   7
ATOM      7  S   UNL     1      -1.312  12.587  19.158  0.00  0.00    +0.000 S 
ATOM      8  O   UNL     1      -0.540  13.757  19.495  0.00  0.00    +0.000 OA
ATOM      9  O   UNL     1      -2.694  12.430  19.549  0.00  0.00    +0.000 OA
BRANCH   7  10
ATOM     10  N   UNL     1      -1.318  12.471  17.483  0.00  0.00    +0.000 NA
ATOM     11  H   UNL     1      -2.041  13.090  17.109  0.00  0.00    +0.000 HD
ATOM     12  H   UNL     1      -1.430  11.499  17.193  0.00  0.00    +0.000 HD
ENDBRANCH   7  10
ENDBRANCH   1   7
BRANCH   4  13
ATOM     13  C   UNL     1       1.704   7.568  20.755  0.00  0.00    +0.000 C 
BRANCH  13  14
ATOM     14  N   UNL     1       2.567   7.108  19.696  0.00  0.00    +0.000 N 
ATOM     15  C   UNL     1       2.507   5.827  19.197  0.00  0.00    +0.000 C 
ATOM     16  O   UNL     1       1.734   4.967  19.594  0.00  0.00    +0.000 OA
ATOM     17  H   UNL     1       3.057   7.818  19.158  0.00  0.00    +0.000 HD
BRANCH  15  18
ATOM     18  C   UNL     1       3.454   5.538  18.085  0.00  0.00    +0.000 A 
ATOM     19  C   UNL     1       3.641   4.226  17.623  0.00  0.00    +0.000 A 
ATOM     20  C   UNL     1       4.551   3.969  16.597  0.00  0.00    +0.000 A 
ATOM     21  C   UNL     1       5.264   5.022  16.025  0.00  0.00    +0.000 A 
ATOM     22 BR   UNL     1       6.515   4.665  14.653  0.00  0.00    +0.000 Br
ATOM     23  C   UNL     1       5.062   6.333  16.457  0.00  0.00    +0.000 A 
ATOM     24  C   UNL     1       4.149   6.594  17.484  0.00  0.00    +0.000 A 
ENDBRANCH  15  18
ENDBRANCH  13  14
ENDBRANCH   4  13
TORSDOF 5
ENDMDL
MODEL 8
REMARK VINA RESULT:      -7.0      0.717      1.255
REMARK  Name = 
REMARK  5 active torsions:
REMARK  status: ('A' for Active; 'I' for Inactive)
REMARK    1  A    between atoms: N_1  and  S_2
REMARK    2  A    between atoms: S_2  and  C_5
REMARK    3  A    between atoms: C_8  and  C_9
REMARK    4  A    between atoms: C_9  and  N_10
REMARK    5  A    between atoms: C_11  and  C_13
REMARK                            x       y       z     vdW  Elec       q    Type
REMARK                         _______ _______ _______ _____ _____    ______ ____
ROOT
ATOM      1  C   UNL     1       3.081   4.527  19.242  0.00  0.00    +0.000 A 
ATOM      2  C   UNL     1       3.681   4.955  18.056  0.00  0.00    +0.000 A 
ATOM      3  C   UNL     1       3.518   6.281  17.653  0.00  0.00    +0.000 A 
ATOM      4  C   UNL     1       2.768   7.181  18.429  0.00  0.00    +0.000 A 
ATOM      5  C   UNL     1       2.162   6.726  19.610  0.00  0.00    +0.000 A 
ATOM      6  C   UNL     1       2.320   5.400  20.017  0.00  0.00    +0.000 A 
ENDROOT
BRANCH   1   7
ATOM      7  S   UNL     1       3.317   2.861  19.788  0.00  0.00    +0.000 S 
ATOM      8  O   UNL     1       4.731   2.602  19.906  0.00  0.00    +0.000 OA
ATOM      9  O   UNL     1       2.426   1.991  19.055  0.00  0.00    +0.000 OA
BRANCH   7  10
ATOM     10  N   UNL     1       2.695   2.905  21.347  0.00  0.00    +0.000 NA
ATOM     11  H   UNL     1       1.693   2.710  21.312  0.00  0.00    +0.000 HD
ATOM     12  H   UNL     1       2.917   3.794  21.796  0.00  0.00    +0.000 HD
ENDBRANCH   7  10
ENDBRANCH   1   7
BRANCH   4  13
ATOM     13  C   UNL     1       2.600   8.610  17.978  0.00  0.00    +0.000 C 
BRANCH  13  14
ATOM     14  N   UNL     1       1.214   9.003  17.948  0.00  0.00    +0.000 N 
ATOM     15  C   UNL     1       0.789  10.250  18.345  0.00  0.00    +0.000 C 
ATOM     16  O   UNL     1       1.528  11.131  18.759  0.00  0.00    +0.000 OA
ATOM     17  H   UNL     1       0.583   8.425  17.399  0.00  0.00    +0.000 HD
BRANCH  15  18
ATOM     18  C   UNL     1      -0.675  10.488  18.217  0.00  0.00    +0.000 A 
ATOM     19  C   UNL     1      -1.448   9.745  17.313  0.00  0.00    +0.000 A 
ATOM     20  C   UNL     1      -2.815   9.998  17.187  0.00  0.00    +0.000 A 
ATOM     21  C   UNL     1      -3.410  10.985  17.972  0.00  0.00    +0.000 A 
ATOM     22 BR   UNL     1      -5.256  11.342  17.778  0.00  0.00    +0.000 Br
ATOM     23  C   UNL     1      -2.655  11.709  18.895  0.00  0.00    +0.000 A 
ATOM     24  C   UNL     1      -1.286  11.455  19.025  0.00  0.00    +0.000 A 
ENDBRANCH  15  18
ENDBRANCH  13  14
ENDBRANCH   4  13
TORSDOF 5
ENDMDL
MODEL 9
REMARK VINA RESULT:      -7.0      4.459      8.203
REMARK  Name = 
REMARK  5 active torsions:
REMARK  status: ('A' for Active; 'I' for Inactive)
REMARK    1  A    between atoms: N_1  and  S_2
REMARK    2  A    between atoms: S_2  and  C_5
REMARK    3  A    between atoms: C_8  and  C_9
REMARK    4  A    between atoms: C_9  and  N_10
REMARK    5  A    between atoms: C_11  and  C_13
REMARK                            x       y       z     vdW  Elec       q    Type
REMARK                         _______ _______ _______ _____ _____    ______ ____
ROOT
ATOM      1  C   UNL     1      -0.427  11.202  19.556  0.00  0.00    +0.000 A 
ATOM      2  C   UNL     1       0.458  10.563  18.686  0.00  0.00    +0.000 A 
ATOM      3  C   UNL     1       1.138   9.425  19.124  0.00  0.00    +0.000 A 
ATOM      4  C   UNL     1       0.933   8.920  20.419  0.00  0.00    +0.000 A 
ATOM      5  C   UNL     1       0.051   9.587  21.282  0.00  0.00    +0.000 A 
ATOM      6  C   UNL     1      -0.630  10.726  20.851  0.00  0.00    +0.000 A 
ENDROOT
BRANCH   1   7
ATOM      7  S   UNL     1      -1.328  12.618  18.999  0.00  0.00    +0.000 S 
ATOM      8  O   UNL     1      -0.478  13.779  19.086  0.00  0.00    +0.000 OA
ATOM      9  O   UNL     1      -2.659  12.586  19.563  0.00  0.00    +0.000 OA
BRANCH   7  10
ATOM     10  N   UNL     1      -1.540  12.286  17.366  0.00  0.00    +0.000 NA
ATOM     11  H   UNL     1      -1.612  13.168  16.855  0.00  0.00    +0.000 HD
ATOM     12  H   UNL     1      -2.343  11.673  17.228  0.00  0.00    +0.000 HD
ENDBRANCH   7  10
ENDBRANCH   1   7
BRANCH   4  13
ATOM     13  C   UNL     1       1.677   7.691  20.877  0.00  0.00    +0.000 C 
BRANCH  13  14
ATOM     14  N   UNL     1       2.509   7.148  19.834  0.00  0.00    +0.000 N 
ATOM     15  C   UNL     1       2.437   5.831  19.440  0.00  0.00    +0.000 C 
ATOM     16  O   UNL     1       1.677   5.005  19.926  0.00  0.00    +0.000 OA
ATOM     17  H   UNL     1       2.982   7.813  19.227  0.00  0.00    +0.000 HD
BRANCH  15  18
ATOM     18  C   UNL     1       3.351   5.454  18.327  0.00  0.00    +0.000 A 
ATOM     19  C   UNL     1       4.087   6.431  17.639  0.00  0.00    +0.000 A 
ATOM     20  C   UNL     1       4.921   6.064  16.582  0.00  0.00    +0.000 A 
ATOM     21  C   UNL     1       5.028   4.722  16.220  0.00  0.00    +0.000 A 
ATOM     22 BR   UNL     1       6.139   4.233  14.771  0.00  0.00    +0.000 Br
ATOM     23  C   UNL     1       4.324   3.740  16.918  0.00  0.00    +0.000 A 
ATOM     24  C   UNL     1       3.489   4.105  17.979  0.00  0.00    +0.000 A 
ENDBRANCH  15  18
ENDBRANCH  13  14
ENDBRANCH   4  13
TORSDOF 5
ENDMDL
