MODEL 1
REMARK VINA RESULT:      -7.1      0.000      0.000
REMARK  Name = 
REMARK  13 active torsions:
REMARK  status: ('A' for Active; 'I' for Inactive)
REMARK    1  A    between atoms: C_1  and  C_2
REMARK    2  A    between atoms: C_2  and  C_3
REMARK    3  A    between atoms: C_4  and  C_5
REMARK    4  A    between atoms: C_5  and  C_7
REMARK    5  A    between atoms: C_11  and  O_12
REMARK    6  A    between atoms: O_12  and  C_13
REMARK    7  A    between atoms: C_13  and  C_14
REMARK    8  A    between atoms: C_14  and  C_15
REMARK    9  A    between atoms: C_15  and  C_16
REMARK   10  A    between atoms: C_16  and  O_18
REMARK   11  A    between atoms: C_23  and  C_24
REMARK   12  A    between atoms: C_24  and  C_25
REMARK   13  A    between atoms: C_30  and  C_31
REMARK                            x       y       z     vdW  Elec       q    Type
REMARK                         _______ _______ _______ _____ _____    ______ ____
ROOT
ATOM      1  C   UNL     1      -2.666  12.588  20.900  0.00  0.00    +0.000 A 
ATOM      2  C   UNL     1      -1.448  11.872  20.598  0.00  0.00    +0.000 A 
ATOM      3  C   UNL     1      -1.611  11.281  19.342  0.00  0.00    +0.000 A 
ATOM      4  C   UNL     1      -0.869  10.372  18.495  0.00  0.00    +0.000 A 
ATOM      5  C   UNL     1      -1.368  10.048  17.280  0.00  0.00    +0.000 A 
ATOM      6  C   UNL     1      -2.593  10.609  16.761  0.00  0.00    +0.000 A 
ATOM      7  C   UNL     1      -3.306  11.414  17.552  0.00  0.00    +0.000 A 
ATOM      8  N   UNL     1      -2.847  11.719  18.836  0.00  0.00    +0.000 N 
ATOM      9  C   UNL     1      -3.511  12.432  19.810  0.00  0.00    +0.000 A 
ENDROOT
BRANCH   1  11
ATOM     10  C   UNL     1      -3.530  12.447  23.272  0.00  0.00    +0.000 C 
ATOM     11  C   UNL     1      -3.001  13.342  22.162  0.00  0.00    +0.000 C 
ENDBRANCH   1  11
BRANCH   2  12
ATOM     12  C   UNL     1      -0.315  11.748  21.512  0.00  0.00    +0.000 C 
ATOM     13  O   UNL     1       0.494  12.665  21.681  0.00  0.00    +0.000 OA
BRANCH  12  14
ATOM     14  C   UNL     1      -0.022  10.476  22.307  0.00  0.00    +0.000 C 
ATOM     15  N   UNL     1      -1.028  10.121  23.176  0.00  0.00    +0.000 N 
ATOM     16  O   UNL     1       1.042   9.885  22.237  0.00  0.00    +0.000 OA
ATOM     17  H   UNL     1      -1.741  10.818  23.373  0.00  0.00    +0.000 HD
ATOM     18  H   UNL     1      -0.799   9.450  23.894  0.00  0.00    +0.000 HD
ENDBRANCH  12  14
ENDBRANCH   2  12
BRANCH   4  19
ATOM     19  O   UNL     1       0.297   9.850  19.029  0.00  0.00    +0.000 OA
BRANCH  19  20
ATOM     20  C   UNL     1       1.248   9.397  18.048  0.00  0.00    +0.000 C 
BRANCH  20  21
ATOM     21  C   UNL     1       2.260   8.437  18.667  0.00  0.00    +0.000 C 
BRANCH  21  22
ATOM     22  C   UNL     1       2.151   7.010  18.140  0.00  0.00    +0.000 C 
BRANCH  22  23
ATOM     23  C   UNL     1       3.503   6.425  17.822  0.00  0.00    +0.000 C 
ATOM     24  O   UNL     1       3.805   5.260  18.004  0.00  0.00    +0.000 OA
BRANCH  23  25
ATOM     25  O   UNL     1       4.390   7.344  17.370  0.00  0.00    +0.000 OA
ATOM     26  H   UNL     1       5.260   7.310  17.814  0.00  0.00    +0.000 HD
ENDBRANCH  23  25
ENDBRANCH  22  23
ENDBRANCH  21  22
ENDBRANCH  20  21
ENDBRANCH  19  20
ENDBRANCH   4  19
BRANCH   9  27
ATOM     27  C   UNL     1      -4.949  12.857  19.662  0.00  0.00    +0.000 C 
BRANCH  27  28
ATOM     28  C   UNL     1      -6.034  11.861  20.047  0.00  0.00    +0.000 A 
ATOM     29  C   UNL     1      -6.123  10.627  19.362  0.00  0.00    +0.000 A 
ATOM     30  C   UNL     1      -7.030   9.640  19.739  0.00  0.00    +0.000 A 
ATOM     31  C   UNL     1      -7.878   9.868  20.808  0.00  0.00    +0.000 A 
ATOM     32  C   UNL     1      -7.839  11.093  21.477  0.00  0.00    +0.000 A 
ATOM     33  C   UNL     1      -6.930  12.121  21.129  0.00  0.00    +0.000 A 
BRANCH  33  34
ATOM     34  C   UNL     1      -6.924  13.376  21.947  0.00  0.00    +0.000 A 
ATOM     35  C   UNL     1      -7.033  14.640  21.335  0.00  0.00    +0.000 A 
ATOM     36  C   UNL     1      -7.110  15.823  22.083  0.00  0.00    +0.000 A 
ATOM     37  C   UNL     1      -7.115  15.771  23.472  0.00  0.00    +0.000 A 
ATOM     38  C   UNL     1      -6.960  14.546  24.106  0.00  0.00    +0.000 A 
ATOM     39  C   UNL     1      -6.812  13.379  23.349  0.00  0.00    +0.000 A 
ENDBRANCH  33  34
ENDBRANCH  27  28
ENDBRANCH   9  27
TORSDOF 12
ENDMDL
MODEL 2
REMARK VINA RESULT:      -6.9      4.873     11.375
REMARK  Name = 
REMARK  13 active torsions:
REMARK  status: ('A' for Active; 'I' for Inactive)
REMARK    1  A    between atoms: C_1  and  C_2
REMARK    2  A    between atoms: C_2  and  C_3
REMARK    3  A    between atoms: C_4  and  C_5
REMARK    4  A    between atoms: C_5  and  C_7
REMARK    5  A    between atoms: C_11  and  O_12
REMARK    6  A    between atoms: O_12  and  C_13
REMARK    7  A    between atoms: C_13  and  C_14
REMARK    8  A    between atoms: C_14  and  C_15
REMARK    9  A    between atoms: C_15  and  C_16
REMARK   10  A    between atoms: C_16  and  O_18
REMARK   11  A    between atoms: C_23  and  C_24
REMARK   12  A    between atoms: C_24  and  C_25
REMARK   13  A    between atoms: C_30  and  C_31
REMARK                            x       y       z     vdW  Elec       q    Type
REMARK                         _______ _______ _______ _____ _____    ______ ____
ROOT
ATOM      1  C   UNL     1       3.317   5.561  18.221  0.00  0.00    +0.000 A 
ATOM      2  C   UNL     1       2.441   5.839  19.335  0.00  0.00    +0.000 A 
ATOM      3  C   UNL     1       2.091   7.191  19.265  0.00  0.00    +0.000 A 
ATOM      4  C   UNL     1       1.359   8.139  20.076  0.00  0.00    +0.000 A 
ATOM      5  C   UNL     1       1.206   9.407  19.631  0.00  0.00    +0.000 A 
ATOM      6  C   UNL     1       1.700   9.853  18.349  0.00  0.00    +0.000 A 
ATOM      7  C   UNL     1       2.415   8.998  17.614  0.00  0.00    +0.000 A 
ATOM      8  N   UNL     1       2.642   7.698  18.076  0.00  0.00    +0.000 N 
ATOM      9  C   UNL     1       3.445   6.739  17.500  0.00  0.00    +0.000 A 
ENDROOT
BRANCH   1  11
ATOM     10  C   UNL     1       4.884   3.746  19.026  0.00  0.00    +0.000 C 
ATOM     11  C   UNL     1       4.005   4.259  17.895  0.00  0.00    +0.000 C 
ENDBRANCH   1  11
BRANCH   2  12
ATOM     12  C   UNL     1       2.086   4.869  20.369  0.00  0.00    +0.000 C 
ATOM     13  O   UNL     1       2.536   4.939  21.516  0.00  0.00    +0.000 OA
BRANCH  12  14
ATOM     14  C   UNL     1       1.159   3.681  20.112  0.00  0.00    +0.000 C 
ATOM     15  N   UNL     1       0.946   2.895  21.221  0.00  0.00    +0.000 N 
ATOM     16  O   UNL     1       0.724   3.411  19.005  0.00  0.00    +0.000 OA
ATOM     17  H   UNL     1       1.566   3.031  22.015  0.00  0.00    +0.000 HD
ATOM     18  H   UNL     1       0.555   1.977  21.066  0.00  0.00    +0.000 HD
ENDBRANCH  12  14
ENDBRANCH   2  12
BRANCH   4  19
ATOM     19  O   UNL     1       0.905   7.677  21.300  0.00  0.00    +0.000 OA
BRANCH  19  20
ATOM     20  C   UNL     1      -0.252   8.369  21.803  0.00  0.00    +0.000 C 
BRANCH  20  21
ATOM     21  C   UNL     1       0.145   9.437  22.818  0.00  0.00    +0.000 C 
BRANCH  21  22
ATOM     22  C   UNL     1      -0.997  10.372  23.202  0.00  0.00    +0.000 C 
BRANCH  22  23
ATOM     23  C   UNL     1      -0.835  11.738  22.587  0.00  0.00    +0.000 C 
ATOM     24  O   UNL     1      -1.699  12.594  22.581  0.00  0.00    +0.000 OA
BRANCH  23  25
ATOM     25  O   UNL     1       0.359  11.907  21.967  0.00  0.00    +0.000 OA
ATOM     26  H   UNL     1       0.615  12.842  21.842  0.00  0.00    +0.000 HD
ENDBRANCH  23  25
ENDBRANCH  22  23
ENDBRANCH  21  22
ENDBRANCH  20  21
ENDBRANCH  19  20
ENDBRANCH   4  19
BRANCH   9  27
ATOM     27  C   UNL     1       4.349   7.036  16.331  0.00  0.00    +0.000 C 
BRANCH  27  28
ATOM     28  C   UNL     1       5.219   5.908  15.792  0.00  0.00    +0.000 A 
ATOM     29  C   UNL     1       4.706   5.046  14.796  0.00  0.00    +0.000 A 
ATOM     30  C   UNL     1       5.491   4.064  14.198  0.00  0.00    +0.000 A 
ATOM     31  C   UNL     1       6.809   3.914  14.590  0.00  0.00    +0.000 A 
ATOM     32  C   UNL     1       7.330   4.725  15.600  0.00  0.00    +0.000 A 
ATOM     33  C   UNL     1       6.569   5.739  16.231  0.00  0.00    +0.000 A 
BRANCH  33  34
ATOM     34  C   UNL     1       7.236   6.598  17.260  0.00  0.00    +0.000 A 
ATOM     35  C   UNL     1       7.676   6.053  18.483  0.00  0.00    +0.000 A 
ATOM     36  C   UNL     1       8.374   6.818  19.428  0.00  0.00    +0.000 A 
ATOM     37  C   UNL     1       8.682   8.146  19.159  0.00  0.00    +0.000 A 
ATOM     38  C   UNL     1       8.222   8.727  17.986  0.00  0.00    +0.000 A 
ATOM     39  C   UNL     1       7.465   7.974  17.082  0.00  0.00    +0.000 A 
ENDBRANCH  33  34
ENDBRANCH  27  28
ENDBRANCH   9  27
TORSDOF 12
ENDMDL
MODEL 3
REMARK VINA RESULT:      -6.9      1.547      2.833
REMARK  Name = 
REMARK  13 active torsions:
REMARK  status: ('A' for Active; 'I' for Inactive)
REMARK    1  A    between atoms: C_1  and  C_2
REMARK    2  A    between atoms: C_2  and  C_3
REMARK    3  A    between atoms: C_4  and  C_5
REMARK    4  A    between atoms: C_5  and  C_7
REMARK    5  A    between atoms: C_11  and  O_12
REMARK    6  A    between atoms: O_12  and  C_13
REMARK    7  A    between atoms: C_13  and  C_14
REMARK    8  A    between atoms: C_14  and  C_15
REMARK    9  A    between atoms: C_15  and  C_16
REMARK   10  A    between atoms: C_16  and  O_18
REMARK   11  A    between atoms: C_23  and  C_24
REMARK   12  A    between atoms: C_24  and  C_25
REMARK   13  A    between atoms: C_30  and  C_31
REMARK                            x       y       z     vdW  Elec       q    Type
REMARK                         _______ _______ _______ _____ _____    ______ ____
ROOT
ATOM      1  C   UNL     1      -1.597  12.548  21.721  0.00  0.00    +0.000 A 
ATOM      2  C   UNL     1      -0.779  11.576  21.032  0.00  0.00    +0.000 A 
ATOM      3  C   UNL     1      -1.401  11.297  19.811  0.00  0.00    +0.000 A 
ATOM      4  C   UNL     1      -1.205  10.382  18.707  0.00  0.00    +0.000 A 
ATOM      5  C   UNL     1      -2.039  10.445  17.644  0.00  0.00    +0.000 A 
ATOM      6  C   UNL     1      -3.095  11.424  17.532  0.00  0.00    +0.000 A 
ATOM      7  C   UNL     1      -3.311  12.243  18.565  0.00  0.00    +0.000 A 
ATOM      8  N   UNL     1      -2.504  12.161  19.703  0.00  0.00    +0.000 N 
ATOM      9  C   UNL     1      -2.665  12.846  20.887  0.00  0.00    +0.000 A 
ENDROOT
BRANCH   1  11
ATOM     10  C   UNL     1      -0.745  14.506  23.076  0.00  0.00    +0.000 C 
ATOM     11  C   UNL     1      -1.377  13.123  23.098  0.00  0.00    +0.000 C 
ENDBRANCH   1  11
BRANCH   2  12
ATOM     12  C   UNL     1       0.423  10.963  21.591  0.00  0.00    +0.000 C 
ATOM     13  O   UNL     1       1.538  11.481  21.475  0.00  0.00    +0.000 OA
BRANCH  12  14
ATOM     14  C   UNL     1       0.408   9.627  22.335  0.00  0.00    +0.000 C 
ATOM     15  N   UNL     1       1.628   8.993  22.361  0.00  0.00    +0.000 N 
ATOM     16  O   UNL     1      -0.613   9.134  22.785  0.00  0.00    +0.000 OA
ATOM     17  H   UNL     1       2.344   9.335  21.726  0.00  0.00    +0.000 HD
ATOM     18  H   UNL     1       1.633   8.016  22.612  0.00  0.00    +0.000 HD
ENDBRANCH  12  14
ENDBRANCH   2  12
BRANCH   4  19
ATOM     19  O   UNL     1      -0.187   9.455  18.853  0.00  0.00    +0.000 OA
BRANCH  19  20
ATOM     20  C   UNL     1       1.057   9.840  18.240  0.00  0.00    +0.000 C 
BRANCH  20  21
ATOM     21  C   UNL     1       1.851   8.615  17.795  0.00  0.00    +0.000 C 
BRANCH  21  22
ATOM     22  C   UNL     1       2.267   7.704  18.945  0.00  0.00    +0.000 C 
BRANCH  22  23
ATOM     23  C   UNL     1       2.892   6.425  18.450  0.00  0.00    +0.000 C 
ATOM     24  O   UNL     1       3.725   6.368  17.566  0.00  0.00    +0.000 OA
BRANCH  23  25
ATOM     25  O   UNL     1       2.383   5.317  19.042  0.00  0.00    +0.000 OA
ATOM     26  H   UNL     1       2.137   4.608  18.415  0.00  0.00    +0.000 HD
ENDBRANCH  23  25
ENDBRANCH  22  23
ENDBRANCH  21  22
ENDBRANCH  20  21
ENDBRANCH  19  20
ENDBRANCH   4  19
BRANCH   9  27
ATOM     27  C   UNL     1      -3.879  13.691  21.175  0.00  0.00    +0.000 C 
BRANCH  27  28
ATOM     28  C   UNL     1      -4.959  13.109  22.076  0.00  0.00    +0.000 A 
ATOM     29  C   UNL     1      -4.755  13.070  23.475  0.00  0.00    +0.000 A 
ATOM     30  C   UNL     1      -5.750  12.642  24.351  0.00  0.00    +0.000 A 
ATOM     31  C   UNL     1      -6.972  12.234  23.848  0.00  0.00    +0.000 A 
ATOM     32  C   UNL     1      -7.186  12.225  22.468  0.00  0.00    +0.000 A 
ATOM     33  C   UNL     1      -6.205  12.655  21.542  0.00  0.00    +0.000 A 
BRANCH  33  34
ATOM     34  C   UNL     1      -6.553  12.666  20.085  0.00  0.00    +0.000 A 
ATOM     35  C   UNL     1      -6.730  13.880  19.393  0.00  0.00    +0.000 A 
ATOM     36  C   UNL     1      -6.977  13.918  18.013  0.00  0.00    +0.000 A 
ATOM     37  C   UNL     1      -7.020  12.739  17.280  0.00  0.00    +0.000 A 
ATOM     38  C   UNL     1      -6.897  11.524  17.939  0.00  0.00    +0.000 A 
ATOM     39  C   UNL     1      -6.723  11.494  19.327  0.00  0.00    +0.000 A 
ENDBRANCH  33  34
ENDBRANCH  27  28
ENDBRANCH   9  27
TORSDOF 12
ENDMDL
MODEL 4
REMARK VINA RESULT:      -6.8      1.710      2.513
REMARK  Name = 
REMARK  13 active torsions:
REMARK  status: ('A' for Active; 'I' for Inactive)
REMARK    1  A    between atoms: C_1  and  C_2
REMARK    2  A    between atoms: C_2  and  C_3
REMARK    3  A    between atoms: C_4  and  C_5
REMARK    4  A    between atoms: C_5  and  C_7
REMARK    5  A    between atoms: C_11  and  O_12
REMARK    6  A    between atoms: O_12  and  C_13
REMARK    7  A    between atoms: C_13  and  C_14
REMARK    8  A    between atoms: C_14  and  C_15
REMARK    9  A    between atoms: C_15  and  C_16
REMARK   10  A    between atoms: C_16  and  O_18
REMARK   11  A    between atoms: C_23  and  C_24
REMARK   12  A    between atoms: C_24  and  C_25
REMARK   13  A    between atoms: C_30  and  C_31
REMARK                            x       y       z     vdW  Elec       q    Type
REMARK                         _______ _______ _______ _____ _____    ______ ____
ROOT
ATOM      1  C   UNL     1      -3.380  12.792  20.635  0.00  0.00    +0.000 A 
ATOM      2  C   UNL     1      -2.105  12.199  20.303  0.00  0.00    +0.000 A 
ATOM      3  C   UNL     1      -2.290  11.424  19.154  0.00  0.00    +0.000 A 
ATOM      4  C   UNL     1      -1.505  10.507  18.357  0.00  0.00    +0.000 A 
ATOM      5  C   UNL     1      -2.056   9.959  17.250  0.00  0.00    +0.000 A 
ATOM      6  C   UNL     1      -3.385  10.287  16.791  0.00  0.00    +0.000 A 
ATOM      7  C   UNL     1      -4.133  11.097  17.544  0.00  0.00    +0.000 A 
ATOM      8  N   UNL     1      -3.613  11.631  18.726  0.00  0.00    +0.000 N 
ATOM      9  C   UNL     1      -4.284  12.383  19.665  0.00  0.00    +0.000 A 
ENDROOT
BRANCH   1  11
ATOM     10  C   UNL     1      -4.174  12.876  23.035  0.00  0.00    +0.000 C 
ATOM     11  C   UNL     1      -3.707  13.665  21.821  0.00  0.00    +0.000 C 
ENDBRANCH   1  11
BRANCH   2  12
ATOM     12  C   UNL     1      -0.893  12.345  21.106  0.00  0.00    +0.000 C 
ATOM     13  O   UNL     1      -0.104  13.279  20.937  0.00  0.00    +0.000 OA
BRANCH  12  14
ATOM     14  C   UNL     1      -0.488  11.347  22.190  0.00  0.00    +0.000 C 
ATOM     15  N   UNL     1       0.432  10.414  21.770  0.00  0.00    +0.000 N 
ATOM     16  O   UNL     1      -1.001  11.331  23.297  0.00  0.00    +0.000 OA
ATOM     17  H   UNL     1       0.586  10.330  20.770  0.00  0.00    +0.000 HD
ATOM     18  H   UNL     1       0.553   9.595  22.348  0.00  0.00    +0.000 HD
ENDBRANCH  12  14
ENDBRANCH   2  12
BRANCH   4  19
ATOM     19  O   UNL     1      -0.237  10.214  18.831  0.00  0.00    +0.000 OA
BRANCH  19  20
ATOM     20  C   UNL     1       0.819  10.959  18.199  0.00  0.00    +0.000 C 
BRANCH  20  21
ATOM     21  C   UNL     1       2.070  10.101  18.027  0.00  0.00    +0.000 C 
BRANCH  21  22
ATOM     22  C   UNL     1       1.771   8.622  17.804  0.00  0.00    +0.000 C 
BRANCH  22  23
ATOM     23  C   UNL     1       2.231   7.776  18.963  0.00  0.00    +0.000 C 
ATOM     24  O   UNL     1       2.961   6.809  18.857  0.00  0.00    +0.000 OA
BRANCH  23  25
ATOM     25  O   UNL     1       1.693   8.154  20.148  0.00  0.00    +0.000 OA
ATOM     26  H   UNL     1       0.774   7.849  20.284  0.00  0.00    +0.000 HD
ENDBRANCH  23  25
ENDBRANCH  22  23
ENDBRANCH  21  22
ENDBRANCH  20  21
ENDBRANCH  19  20
ENDBRANCH   4  19
BRANCH   9  27
ATOM     27  C   UNL     1      -5.774  12.600  19.613  0.00  0.00    +0.000 C 
BRANCH  27  28
ATOM     28  C   UNL     1      -6.303  13.736  18.746  0.00  0.00    +0.000 A 
ATOM     29  C   UNL     1      -6.375  13.569  17.344  0.00  0.00    +0.000 A 
ATOM     30  C   UNL     1      -6.943  14.534  16.517  0.00  0.00    +0.000 A 
ATOM     31  C   UNL     1      -7.445  15.697  17.072  0.00  0.00    +0.000 A 
ATOM     32  C   UNL     1      -7.351  15.906  18.450  0.00  0.00    +0.000 A 
ATOM     33  C   UNL     1      -6.785  14.949  19.328  0.00  0.00    +0.000 A 
BRANCH  33  34
ATOM     34  C   UNL     1      -6.786  15.240  20.797  0.00  0.00    +0.000 A 
ATOM     35  C   UNL     1      -7.553  14.463  21.688  0.00  0.00    +0.000 A 
ATOM     36  C   UNL     1      -7.508  14.663  23.075  0.00  0.00    +0.000 A 
ATOM     37  C   UNL     1      -6.665  15.628  23.613  0.00  0.00    +0.000 A 
ATOM     38  C   UNL     1      -5.933  16.442  22.761  0.00  0.00    +0.000 A 
ATOM     39  C   UNL     1      -6.039  16.282  21.375  0.00  0.00    +0.000 A 
ENDBRANCH  33  34
ENDBRANCH  27  28
ENDBRANCH   9  27
TORSDOF 12
ENDMDL
MODEL 5
REMARK VINA RESULT:      -6.8      4.935     11.372
REMARK  Name = 
REMARK  13 active torsions:
REMARK  status: ('A' for Active; 'I' for Inactive)
REMARK    1  A    between atoms: C_1  and  C_2
REMARK    2  A    between atoms: C_2  and  C_3
REMARK    3  A    between atoms: C_4  and  C_5
REMARK    4  A    between atoms: C_5  and  C_7
REMARK    5  A    between atoms: C_11  and  O_12
REMARK    6  A    between atoms: O_12  and  C_13
REMARK    7  A    between atoms: C_13  and  C_14
REMARK    8  A    between atoms: C_14  and  C_15
REMARK    9  A    between atoms: C_15  and  C_16
REMARK   10  A    between atoms: C_16  and  O_18
REMARK   11  A    between atoms: C_23  and  C_24
REMARK   12  A    between atoms: C_24  and  C_25
REMARK   13  A    between atoms: C_30  and  C_31
REMARK                            x       y       z     vdW  Elec       q    Type
REMARK                         _______ _______ _______ _____ _____    ______ ____
ROOT
ATOM      1  C   UNL     1       3.441   5.575  18.212  0.00  0.00    +0.000 A 
ATOM      2  C   UNL     1       2.537   5.888  19.296  0.00  0.00    +0.000 A 
ATOM      3  C   UNL     1       2.180   7.234  19.166  0.00  0.00    +0.000 A 
ATOM      4  C   UNL     1       1.423   8.206  19.923  0.00  0.00    +0.000 A 
ATOM      5  C   UNL     1       1.272   9.456  19.426  0.00  0.00    +0.000 A 
ATOM      6  C   UNL     1       1.792   9.856  18.140  0.00  0.00    +0.000 A 
ATOM      7  C   UNL     1       2.530   8.979  17.454  0.00  0.00    +0.000 A 
ATOM      8  N   UNL     1       2.755   7.700  17.970  0.00  0.00    +0.000 N 
ATOM      9  C   UNL     1       3.578   6.725  17.450  0.00  0.00    +0.000 A 
ENDROOT
BRANCH   1  11
ATOM     10  C   UNL     1       3.271   3.249  17.234  0.00  0.00    +0.000 C 
ATOM     11  C   UNL     1       4.144   4.266  17.952  0.00  0.00    +0.000 C 
ENDBRANCH   1  11
BRANCH   2  12
ATOM     12  C   UNL     1       2.166   4.956  20.357  0.00  0.00    +0.000 C 
ATOM     13  O   UNL     1       2.653   5.024  21.489  0.00  0.00    +0.000 OA
BRANCH  12  14
ATOM     14  C   UNL     1       1.174   3.811  20.150  0.00  0.00    +0.000 C 
ATOM     15  N   UNL     1       1.068   2.968  21.232  0.00  0.00    +0.000 N 
ATOM     16  O   UNL     1       0.600   3.619  19.091  0.00  0.00    +0.000 OA
ATOM     17  H   UNL     1       1.782   3.039  21.950  0.00  0.00    +0.000 HD
ATOM     18  H   UNL     1       0.629   2.072  21.075  0.00  0.00    +0.000 HD
ENDBRANCH  12  14
ENDBRANCH   2  12
BRANCH   4  19
ATOM     19  O   UNL     1       0.945   7.788  21.154  0.00  0.00    +0.000 OA
BRANCH  19  20
ATOM     20  C   UNL     1       0.910   8.819  22.157  0.00  0.00    +0.000 C 
BRANCH  20  21
ATOM     21  C   UNL     1      -0.512   9.038  22.669  0.00  0.00    +0.000 C 
BRANCH  21  22
ATOM     22  C   UNL     1      -0.822  10.492  23.009  0.00  0.00    +0.000 C 
BRANCH  22  23
ATOM     23  C   UNL     1      -0.643  11.397  21.817  0.00  0.00    +0.000 C 
ATOM     24  O   UNL     1      -1.319  11.341  20.807  0.00  0.00    +0.000 OA
BRANCH  23  25
ATOM     25  O   UNL     1       0.402  12.250  21.946  0.00  0.00    +0.000 OA
ATOM     26  H   UNL     1       0.805  12.256  22.836  0.00  0.00    +0.000 HD
ENDBRANCH  23  25
ENDBRANCH  22  23
ENDBRANCH  21  22
ENDBRANCH  20  21
ENDBRANCH  19  20
ENDBRANCH   4  19
BRANCH   9  27
ATOM     27  C   UNL     1       4.505   6.985  16.291  0.00  0.00    +0.000 C 
BRANCH  27  28
ATOM     28  C   UNL     1       5.228   5.796  15.671  0.00  0.00    +0.000 A 
ATOM     29  C   UNL     1       4.629   5.098  14.597  0.00  0.00    +0.000 A 
ATOM     30  C   UNL     1       5.289   4.070  13.930  0.00  0.00    +0.000 A 
ATOM     31  C   UNL     1       6.564   3.708  14.327  0.00  0.00    +0.000 A 
ATOM     32  C   UNL     1       7.164   4.355  15.410  0.00  0.00    +0.000 A 
ATOM     33  C   UNL     1       6.530   5.407  16.114  0.00  0.00    +0.000 A 
BRANCH  33  34
ATOM     34  C   UNL     1       7.281   6.079  17.222  0.00  0.00    +0.000 A 
ATOM     35  C   UNL     1       7.629   7.441  17.139  0.00  0.00    +0.000 A 
ATOM     36  C   UNL     1       8.261   8.112  18.196  0.00  0.00    +0.000 A 
ATOM     37  C   UNL     1       8.531   7.443  19.384  0.00  0.00    +0.000 A 
ATOM     38  C   UNL     1       8.244   6.089  19.481  0.00  0.00    +0.000 A 
ATOM     39  C   UNL     1       7.679   5.412  18.395  0.00  0.00    +0.000 A 
ENDBRANCH  33  34
ENDBRANCH  27  28
ENDBRANCH   9  27
TORSDOF 12
ENDMDL
MODEL 6
REMARK VINA RESULT:      -6.7      1.481      2.186
REMARK  Name = 
REMARK  13 active torsions:
REMARK  status: ('A' for Active; 'I' for Inactive)
REMARK    1  A    between atoms: C_1  and  C_2
REMARK    2  A    between atoms: C_2  and  C_3
REMARK    3  A    between atoms: C_4  and  C_5
REMARK    4  A    between atoms: C_5  and  C_7
REMARK    5  A    between atoms: C_11  and  O_12
REMARK    6  A    between atoms: O_12  and  C_13
REMARK    7  A    between atoms: C_13  and  C_14
REMARK    8  A    between atoms: C_14  and  C_15
REMARK    9  A    between atoms: C_15  and  C_16
REMARK   10  A    between atoms: C_16  and  O_18
REMARK   11  A    between atoms: C_23  and  C_24
REMARK   12  A    between atoms: C_24  and  C_25
REMARK   13  A    between atoms: C_30  and  C_31
REMARK                            x       y       z     vdW  Elec       q    Type
REMARK                         _______ _______ _______ _____ _____    ______ ____
ROOT
ATOM      1  C   UNL     1      -3.242  12.384  20.260  0.00  0.00    +0.000 A 
ATOM      2  C   UNL     1      -1.911  11.988  19.859  0.00  0.00    +0.000 A 
ATOM      3  C   UNL     1      -2.037  11.205  18.708  0.00  0.00    +0.000 A 
ATOM      4  C   UNL     1      -1.166  10.421  17.860  0.00  0.00    +0.000 A 
ATOM      5  C   UNL     1      -1.684   9.808  16.771  0.00  0.00    +0.000 A 
ATOM      6  C   UNL     1      -3.068   9.940  16.381  0.00  0.00    +0.000 A 
ATOM      7  C   UNL     1      -3.889  10.626  17.181  0.00  0.00    +0.000 A 
ATOM      8  N   UNL     1      -3.395  11.219  18.346  0.00  0.00    +0.000 N 
ATOM      9  C   UNL     1      -4.123  11.856  19.328  0.00  0.00    +0.000 A 
ENDROOT
BRANCH   1  11
ATOM     10  C   UNL     1      -3.584  12.388  22.766  0.00  0.00    +0.000 C 
ATOM     11  C   UNL     1      -3.635  13.189  21.474  0.00  0.00    +0.000 C 
ENDBRANCH   1  11
BRANCH   2  12
ATOM     12  C   UNL     1      -0.696  12.303  20.606  0.00  0.00    +0.000 C 
ATOM     13  O   UNL     1      -0.014  13.302  20.358  0.00  0.00    +0.000 OA
BRANCH  12  14
ATOM     14  C   UNL     1      -0.155  11.417  21.728  0.00  0.00    +0.000 C 
ATOM     15  N   UNL     1       0.259  10.176  21.303  0.00  0.00    +0.000 N 
ATOM     16  O   UNL     1      -0.173  11.753  22.901  0.00  0.00    +0.000 OA
ATOM     17  H   UNL     1      -0.023   9.884  20.373  0.00  0.00    +0.000 HD
ATOM     18  H   UNL     1       0.392   9.469  22.011  0.00  0.00    +0.000 HD
ENDBRANCH  12  14
ENDBRANCH   2  12
BRANCH   4  19
ATOM     19  O   UNL     1       0.153  10.312  18.269  0.00  0.00    +0.000 OA
BRANCH  19  20
ATOM     20  C   UNL     1       0.877   9.232  17.654  0.00  0.00    +0.000 C 
BRANCH  20  21
ATOM     21  C   UNL     1       1.815   8.561  18.654  0.00  0.00    +0.000 C 
BRANCH  21  22
ATOM     22  C   UNL     1       2.966   7.803  17.999  0.00  0.00    +0.000 C 
BRANCH  22  23
ATOM     23  C   UNL     1       3.146   6.431  18.597  0.00  0.00    +0.000 C 
ATOM     24  O   UNL     1       4.210   5.988  18.987  0.00  0.00    +0.000 OA
BRANCH  23  25
ATOM     25  O   UNL     1       2.008   5.696  18.598  0.00  0.00    +0.000 OA
ATOM     26  H   UNL     1       1.197   6.215  18.767  0.00  0.00    +0.000 HD
ENDBRANCH  23  25
ENDBRANCH  22  23
ENDBRANCH  21  22
ENDBRANCH  20  21
ENDBRANCH  19  20
ENDBRANCH   4  19
BRANCH   9  27
ATOM     27  C   UNL     1      -5.629  11.853  19.349  0.00  0.00    +0.000 C 
BRANCH  27  28
ATOM     28  C   UNL     1      -6.355  13.110  18.891  0.00  0.00    +0.000 A 
ATOM     29  C   UNL     1      -6.362  13.452  17.518  0.00  0.00    +0.000 A 
ATOM     30  C   UNL     1      -7.093  14.533  17.034  0.00  0.00    +0.000 A 
ATOM     31  C   UNL     1      -7.830  15.307  17.913  0.00  0.00    +0.000 A 
ATOM     32  C   UNL     1      -7.809  15.016  19.279  0.00  0.00    +0.000 A 
ATOM     33  C   UNL     1      -7.083  13.924  19.814  0.00  0.00    +0.000 A 
BRANCH  33  34
ATOM     34  C   UNL     1      -7.174  13.657  21.285  0.00  0.00    +0.000 A 
ATOM     35  C   UNL     1      -6.726  14.610  22.222  0.00  0.00    +0.000 A 
ATOM     36  C   UNL     1      -6.873  14.417  23.603  0.00  0.00    +0.000 A 
ATOM     37  C   UNL     1      -7.506  13.278  24.085  0.00  0.00    +0.000 A 
ATOM     38  C   UNL     1      -7.916  12.299  23.191  0.00  0.00    +0.000 A 
ATOM     39  C   UNL     1      -7.700  12.467  21.819  0.00  0.00    +0.000 A 
ENDBRANCH  33  34
ENDBRANCH  27  28
ENDBRANCH   9  27
TORSDOF 12
ENDMDL
MODEL 7
REMARK VINA RESULT:      -6.7      1.899      4.511
REMARK  Name = 
REMARK  13 active torsions:
REMARK  status: ('A' for Active; 'I' for Inactive)
REMARK    1  A    between atoms: C_1  and  C_2
REMARK    2  A    between atoms: C_2  and  C_3
REMARK    3  A    between atoms: C_4  and  C_5
REMARK    4  A    between atoms: C_5  and  C_7
REMARK    5  A    between atoms: C_11  and  O_12
REMARK    6  A    between atoms: O_12  and  C_13
REMARK    7  A    between atoms: C_13  and  C_14
REMARK    8  A    between atoms: C_14  and  C_15
REMARK    9  A    between atoms: C_15  and  C_16
REMARK   10  A    between atoms: C_16  and  O_18
REMARK   11  A    between atoms: C_23  and  C_24
REMARK   12  A    between atoms: C_24  and  C_25
REMARK   13  A    between atoms: C_30  and  C_31
REMARK                            x       y       z     vdW  Elec       q    Type
REMARK                         _______ _______ _______ _____ _____    ______ ____
ROOT
ATOM      1  C   UNL     1      -2.519  12.380  20.802  0.00  0.00    +0.000 A 
ATOM      2  C   UNL     1      -1.721  11.693  19.812  0.00  0.00    +0.000 A 
ATOM      3  C   UNL     1      -0.805  10.890  20.497  0.00  0.00    +0.000 A 
ATOM      4  C   UNL     1       0.321  10.045  20.162  0.00  0.00    +0.000 A 
ATOM      5  C   UNL     1       0.962   9.380  21.151  0.00  0.00    +0.000 A 
ATOM      6  C   UNL     1       0.542   9.431  22.531  0.00  0.00    +0.000 A 
ATOM      7  C   UNL     1      -0.468  10.242  22.856  0.00  0.00    +0.000 A 
ATOM      8  N   UNL     1      -1.111  10.990  21.866  0.00  0.00    +0.000 N 
ATOM      9  C   UNL     1      -2.083  11.950  22.047  0.00  0.00    +0.000 A 
ENDROOT
BRANCH   1  11
ATOM     10  C   UNL     1      -4.996  12.790  20.501  0.00  0.00    +0.000 C 
ATOM     11  C   UNL     1      -3.604  13.399  20.562  0.00  0.00    +0.000 C 
ENDBRANCH   1  11
BRANCH   2  12
ATOM     12  C   UNL     1      -1.834  11.903  18.371  0.00  0.00    +0.000 C 
ATOM     13  O   UNL     1      -1.175  12.765  17.780  0.00  0.00    +0.000 OA
BRANCH  12  14
ATOM     14  C   UNL     1      -2.788  11.102  17.485  0.00  0.00    +0.000 C 
ATOM     15  N   UNL     1      -3.813  11.852  16.955  0.00  0.00    +0.000 N 
ATOM     16  O   UNL     1      -2.694   9.895  17.337  0.00  0.00    +0.000 OA
ATOM     17  H   UNL     1      -3.972  12.771  17.355  0.00  0.00    +0.000 HD
ATOM     18  H   UNL     1      -4.600  11.349  16.573  0.00  0.00    +0.000 HD
ENDBRANCH  12  14
ENDBRANCH   2  12
BRANCH   4  19
ATOM     19  O   UNL     1       0.698  10.025  18.830  0.00  0.00    +0.000 OA
BRANCH  19  20
ATOM     20  C   UNL     1       2.035   9.546  18.600  0.00  0.00    +0.000 C 
BRANCH  20  21
ATOM     21  C   UNL     1       2.018   8.192  17.895  0.00  0.00    +0.000 C 
BRANCH  21  22
ATOM     22  C   UNL     1       2.667   7.073  18.704  0.00  0.00    +0.000 C 
BRANCH  22  23
ATOM     23  C   UNL     1       3.566   6.214  17.852  0.00  0.00    +0.000 C 
ATOM     24  O   UNL     1       4.651   6.568  17.428  0.00  0.00    +0.000 OA
BRANCH  23  25
ATOM     25  O   UNL     1       3.019   5.015  17.537  0.00  0.00    +0.000 OA
ATOM     26  H   UNL     1       2.589   4.564  18.290  0.00  0.00    +0.000 HD
ENDBRANCH  23  25
ENDBRANCH  22  23
ENDBRANCH  21  22
ENDBRANCH  20  21
ENDBRANCH  19  20
ENDBRANCH   4  19
BRANCH   9  27
ATOM     27  C   UNL     1      -2.480  12.451  23.411  0.00  0.00    +0.000 C 
BRANCH  27  28
ATOM     28  C   UNL     1      -2.333  13.938  23.699  0.00  0.00    +0.000 A 
ATOM     29  C   UNL     1      -1.045  14.524  23.709  0.00  0.00    +0.000 A 
ATOM     30  C   UNL     1      -0.863  15.894  23.867  0.00  0.00    +0.000 A 
ATOM     31  C   UNL     1      -1.965  16.715  24.029  0.00  0.00    +0.000 A 
ATOM     32  C   UNL     1      -3.245  16.159  24.063  0.00  0.00    +0.000 A 
ATOM     33  C   UNL     1      -3.477  14.771  23.902  0.00  0.00    +0.000 A 
BRANCH  33  34
ATOM     34  C   UNL     1      -4.891  14.280  23.892  0.00  0.00    +0.000 A 
ATOM     35  C   UNL     1      -5.193  12.935  24.186  0.00  0.00    +0.000 A 
ATOM     36  C   UNL     1      -6.513  12.470  24.262  0.00  0.00    +0.000 A 
ATOM     37  C   UNL     1      -7.574  13.349  24.078  0.00  0.00    +0.000 A 
ATOM     38  C   UNL     1      -7.312  14.669  23.740  0.00  0.00    +0.000 A 
ATOM     39  C   UNL     1      -5.990  15.107  23.597  0.00  0.00    +0.000 A 
ENDBRANCH  33  34
ENDBRANCH  27  28
ENDBRANCH   9  27
TORSDOF 12
ENDMDL
MODEL 8
REMARK VINA RESULT:      -6.6      3.936      6.480
REMARK  Name = 
REMARK  13 active torsions:
REMARK  status: ('A' for Active; 'I' for Inactive)
REMARK    1  A    between atoms: C_1  and  C_2
REMARK    2  A    between atoms: C_2  and  C_3
REMARK    3  A    between atoms: C_4  and  C_5
REMARK    4  A    between atoms: C_5  and  C_7
REMARK    5  A    between atoms: C_11  and  O_12
REMARK    6  A    between atoms: O_12  and  C_13
REMARK    7  A    between atoms: C_13  and  C_14
REMARK    8  A    between atoms: C_14  and  C_15
REMARK    9  A    between atoms: C_15  and  C_16
REMARK   10  A    between atoms: C_16  and  O_18
REMARK   11  A    between atoms: C_23  and  C_24
REMARK   12  A    between atoms: C_24  and  C_25
REMARK   13  A    between atoms: C_30  and  C_31
REMARK                            x       y       z     vdW  Elec       q    Type
REMARK                         _______ _______ _______ _____ _____    ______ ____
ROOT
ATOM      1  C   UNL     1      -3.766  12.701  19.924  0.00  0.00    +0.000 A 
ATOM      2  C   UNL     1      -4.091  11.856  18.797  0.00  0.00    +0.000 A 
ATOM      3  C   UNL     1      -2.918  11.197  18.416  0.00  0.00    +0.000 A 
ATOM      4  C   UNL     1      -2.497  10.317  17.348  0.00  0.00    +0.000 A 
ATOM      5  C   UNL     1      -1.230   9.845  17.345  0.00  0.00    +0.000 A 
ATOM      6  C   UNL     1      -0.281  10.138  18.393  0.00  0.00    +0.000 A 
ATOM      7  C   UNL     1      -0.646  10.985  19.359  0.00  0.00    +0.000 A 
ATOM      8  N   UNL     1      -1.930  11.538  19.356  0.00  0.00    +0.000 N 
ATOM      9  C   UNL     1      -2.421  12.504  20.206  0.00  0.00    +0.000 A 
ENDROOT
BRANCH   1  11
ATOM     10  C   UNL     1      -5.304  13.041  21.902  0.00  0.00    +0.000 C 
ATOM     11  C   UNL     1      -4.680  13.650  20.655  0.00  0.00    +0.000 C 
ENDBRANCH   1  11
BRANCH   2  12
ATOM     12  C   UNL     1      -5.402  11.804  18.157  0.00  0.00    +0.000 C 
ATOM     13  O   UNL     1      -5.636  12.385  17.092  0.00  0.00    +0.000 OA
BRANCH  12  14
ATOM     14  C   UNL     1      -6.594  11.058  18.757  0.00  0.00    +0.000 C 
ATOM     15  N   UNL     1      -7.552  11.885  19.296  0.00  0.00    +0.000 N 
ATOM     16  O   UNL     1      -6.642   9.841  18.827  0.00  0.00    +0.000 OA
ATOM     17  H   UNL     1      -7.298  12.857  19.445  0.00  0.00    +0.000 HD
ATOM     18  H   UNL     1      -8.228  11.463  19.915  0.00  0.00    +0.000 HD
ENDBRANCH  12  14
ENDBRANCH   2  12
BRANCH   4  19
ATOM     19  O   UNL     1      -3.432  10.063  16.359  0.00  0.00    +0.000 OA
BRANCH  19  20
ATOM     20  C   UNL     1      -3.241  10.825  15.153  0.00  0.00    +0.000 C 
BRANCH  20  21
ATOM     21  C   UNL     1      -3.285   9.924  13.922  0.00  0.00    +0.000 C 
BRANCH  21  22
ATOM     22  C   UNL     1      -4.666   9.830  13.281  0.00  0.00    +0.000 C 
BRANCH  22  23
ATOM     23  C   UNL     1      -4.585   9.804  11.776  0.00  0.00    +0.000 C 
ATOM     24  O   UNL     1      -3.599   9.467  11.149  0.00  0.00    +0.000 OA
BRANCH  23  25
ATOM     25  O   UNL     1      -5.708  10.265  11.173  0.00  0.00    +0.000 OA
ATOM     26  H   UNL     1      -6.302   9.562  10.846  0.00  0.00    +0.000 HD
ENDBRANCH  23  25
ENDBRANCH  22  23
ENDBRANCH  21  22
ENDBRANCH  20  21
ENDBRANCH  19  20
ENDBRANCH   4  19
BRANCH   9  27
ATOM     27  C   UNL     1      -1.546  13.237  21.189  0.00  0.00    +0.000 C 
BRANCH  27  28
ATOM     28  C   UNL     1      -1.078  14.640  20.826  0.00  0.00    +0.000 A 
ATOM     29  C   UNL     1      -0.583  14.896  19.526  0.00  0.00    +0.000 A 
ATOM     30  C   UNL     1      -0.238  16.179  19.111  0.00  0.00    +0.000 A 
ATOM     31  C   UNL     1      -0.369  17.238  19.991  0.00  0.00    +0.000 A 
ATOM     32  C   UNL     1      -0.817  17.008  21.293  0.00  0.00    +0.000 A 
ATOM     33  C   UNL     1      -1.184  15.721  21.756  0.00  0.00    +0.000 A 
BRANCH  33  34
ATOM     34  C   UNL     1      -1.712  15.586  23.151  0.00  0.00    +0.000 A 
ATOM     35  C   UNL     1      -0.840  15.583  24.257  0.00  0.00    +0.000 A 
ATOM     36  C   UNL     1      -1.314  15.538  25.576  0.00  0.00    +0.000 A 
ATOM     37  C   UNL     1      -2.681  15.531  25.825  0.00  0.00    +0.000 A 
ATOM     38  C   UNL     1      -3.566  15.485  24.757  0.00  0.00    +0.000 A 
ATOM     39  C   UNL     1      -3.081  15.458  23.445  0.00  0.00    +0.000 A 
ENDBRANCH  33  34
ENDBRANCH  27  28
ENDBRANCH   9  27
TORSDOF 12
ENDMDL
MODEL 9
REMARK VINA RESULT:      -6.6      2.834      9.977
REMARK  Name = 
REMARK  13 active torsions:
REMARK  status: ('A' for Active; 'I' for Inactive)
REMARK    1  A    between atoms: C_1  and  C_2
REMARK    2  A    between atoms: C_2  and  C_3
REMARK    3  A    between atoms: C_4  and  C_5
REMARK    4  A    between atoms: C_5  and  C_7
REMARK    5  A    between atoms: C_11  and  O_12
REMARK    6  A    between atoms: O_12  and  C_13
REMARK    7  A    between atoms: C_13  and  C_14
REMARK    8  A    between atoms: C_14  and  C_15
REMARK    9  A    between atoms: C_15  and  C_16
REMARK   10  A    between atoms: C_16  and  O_18
REMARK   11  A    between atoms: C_23  and  C_24
REMARK   12  A    between atoms: C_24  and  C_25
REMARK   13  A    between atoms: C_30  and  C_31
REMARK                            x       y       z     vdW  Elec       q    Type
REMARK                         _______ _______ _______ _____ _____    ______ ____
ROOT
ATOM      1  C   UNL     1       1.343   8.734  18.971  0.00  0.00    +0.000 A 
ATOM      2  C   UNL     1       0.335   9.719  19.288  0.00  0.00    +0.000 A 
ATOM      3  C   UNL     1       0.186   9.734  20.678  0.00  0.00    +0.000 A 
ATOM      4  C   UNL     1      -0.681  10.372  21.644  0.00  0.00    +0.000 A 
ATOM      5  C   UNL     1      -0.478  10.147  22.962  0.00  0.00    +0.000 A 
ATOM      6  C   UNL     1       0.605   9.331  23.460  0.00  0.00    +0.000 A 
ATOM      7  C   UNL     1       1.383   8.702  22.575  0.00  0.00    +0.000 A 
ATOM      8  N   UNL     1       1.159   8.867  21.206  0.00  0.00    +0.000 N 
ATOM      9  C   UNL     1       1.791   8.208  20.174  0.00  0.00    +0.000 A 
ENDROOT
BRANCH   1  11
ATOM     10  C   UNL     1       3.263   8.690  17.326  0.00  0.00    +0.000 C 
ATOM     11  C   UNL     1       1.817   8.310  17.604  0.00  0.00    +0.000 C 
ENDBRANCH   1  11
BRANCH   2  12
ATOM     12  C   UNL     1      -0.423  10.474  18.293  0.00  0.00    +0.000 C 
ATOM     13  O   UNL     1      -1.123   9.917  17.441  0.00  0.00    +0.000 OA
BRANCH  12  14
ATOM     14  C   UNL     1      -0.393  11.999  18.203  0.00  0.00    +0.000 C 
ATOM     15  N   UNL     1      -1.371  12.527  17.392  0.00  0.00    +0.000 N 
ATOM     16  O   UNL     1       0.474  12.674  18.734  0.00  0.00    +0.000 OA
ATOM     17  H   UNL     1      -1.861  11.885  16.776  0.00  0.00    +0.000 HD
ATOM     18  H   UNL     1      -1.256  13.485  17.098  0.00  0.00    +0.000 HD
ENDBRANCH  12  14
ENDBRANCH   2  12
BRANCH   4  19
ATOM     19  O   UNL     1      -1.711  11.142  21.129  0.00  0.00    +0.000 OA
BRANCH  19  20
ATOM     20  C   UNL     1      -1.819  12.453  21.712  0.00  0.00    +0.000 C 
BRANCH  20  21
ATOM     21  C   UNL     1      -3.204  12.671  22.316  0.00  0.00    +0.000 C 
BRANCH  21  22
ATOM     22  C   UNL     1      -4.106  13.566  21.471  0.00  0.00    +0.000 C 
BRANCH  22  23
ATOM     23  C   UNL     1      -5.058  12.762  20.624  0.00  0.00    +0.000 C 
ATOM     24  O   UNL     1      -5.809  11.909  21.059  0.00  0.00    +0.000 OA
BRANCH  23  25
ATOM     25  O   UNL     1      -4.954  13.031  19.300  0.00  0.00    +0.000 OA
ATOM     26  H   UNL     1      -5.779  13.361  18.893  0.00  0.00    +0.000 HD
ENDBRANCH  23  25
ENDBRANCH  22  23
ENDBRANCH  21  22
ENDBRANCH  20  21
ENDBRANCH  19  20
ENDBRANCH   4  19
BRANCH   9  27
ATOM     27  C   UNL     1       2.734   7.056  20.408  0.00  0.00    +0.000 C 
BRANCH  27  28
ATOM     28  C   UNL     1       2.277   5.662  20.000  0.00  0.00    +0.000 A 
ATOM     29  C   UNL     1       1.064   5.146  20.513  0.00  0.00    +0.000 A 
ATOM     30  C   UNL     1       0.551   3.922  20.095  0.00  0.00    +0.000 A 
ATOM     31  C   UNL     1       1.245   3.176  19.159  0.00  0.00    +0.000 A 
ATOM     32  C   UNL     1       2.465   3.642  18.666  0.00  0.00    +0.000 A 
ATOM     33  C   UNL     1       3.021   4.884  19.060  0.00  0.00    +0.000 A 
BRANCH  33  34
ATOM     34  C   UNL     1       4.305   5.325  18.427  0.00  0.00    +0.000 A 
ATOM     35  C   UNL     1       5.495   5.396  19.178  0.00  0.00    +0.000 A 
ATOM     36  C   UNL     1       6.724   5.729  18.591  0.00  0.00    +0.000 A 
ATOM     37  C   UNL     1       6.802   5.966  17.224  0.00  0.00    +0.000 A 
ATOM     38  C   UNL     1       5.641   5.950  16.464  0.00  0.00    +0.000 A 
ATOM     39  C   UNL     1       4.409   5.688  17.072  0.00  0.00    +0.000 A 
ENDBRANCH  33  34
ENDBRANCH  27  28
ENDBRANCH   9  27
TORSDOF 12
ENDMDL
