MODEL 1
REMARK VINA RESULT:      -8.1      0.000      0.000
REMARK  Name = 
REMARK  8 active torsions:
REMARK  status: ('A' for Active; 'I' for Inactive)
REMARK    1  A    between atoms: C_1  and  C_2
REMARK    2  A    between atoms: C_2  and  C_3
REMARK    3  A    between atoms: C_6  and  C_7
REMARK    4  A    between atoms: C_7  and  N_8
REMARK    5  A    between atoms: C_11  and  C_12
REMARK    6  A    between atoms: C_12  and  N_13
REMARK    7  A    between atoms: C_14  and  C_16
REMARK    8  A    between atoms: C_20  and  C_21
REMARK                            x       y       z     vdW  Elec       q    Type
REMARK                         _______ _______ _______ _____ _____    ______ ____
ROOT
ATOM      1  N   UNL     1       1.828   5.446  19.712  0.00  0.00    +0.000 NA
ATOM      2  C   UNL     1       1.959   4.803  18.392  0.00  0.00    +0.000 C 
ATOM      3  C   UNL     1       1.435   3.364  18.352  0.00  0.00    +0.000 C 
ATOM      4  C   UNL     1       2.046   2.477  19.440  0.00  0.00    +0.000 C 
ATOM      5  C   UNL     1       1.831   3.173  20.788  0.00  0.00    +0.000 C 
ATOM      6  C   UNL     1       2.360   4.611  20.801  0.00  0.00    +0.000 C 
ENDROOT
BRANCH   1   7
ATOM      7  C   UNL     1       2.530   6.761  19.721  0.00  0.00    +0.000 C 
BRANCH   7  11
ATOM      8  C   UNL     1       0.148  10.131  20.899  0.00  0.00    +0.000 A 
ATOM      9  C   UNL     1       0.486   9.166  21.847  0.00  0.00    +0.000 A 
ATOM     10  C   UNL     1       1.263   8.071  21.473  0.00  0.00    +0.000 A 
ATOM     11  C   UNL     1       1.700   7.965  20.153  0.00  0.00    +0.000 A 
ATOM     12  N   UNL     1       1.441   8.934  19.237  0.00  0.00    +0.000 NA
ATOM     13  C   UNL     1       0.657   9.968  19.617  0.00  0.00    +0.000 A 
BRANCH   8  15
ATOM     14  C   UNL     1      -1.096  11.290  22.723  0.00  0.00    +0.000 C 
ATOM     15  C   UNL     1      -0.793  11.253  21.230  0.00  0.00    +0.000 C 
ENDBRANCH   8  15
ENDBRANCH   7  11
ENDBRANCH   1   7
BRANCH   4  16
ATOM     16  C   UNL     1       3.533   2.160  19.201  0.00  0.00    +0.000 C 
BRANCH  16  17
ATOM     17  N   UNL     1       4.052   2.776  18.000  0.00  0.00    +0.000 N 
ATOM     18  C   UNL     1       5.065   3.713  18.001  0.00  0.00    +0.000 C 
ATOM     19  O   UNL     1       5.607   4.098  19.033  0.00  0.00    +0.000 OA
ATOM     20  H   UNL     1       3.699   2.491  17.093  0.00  0.00    +0.000 HD
BRANCH  18  21
ATOM     21  C   UNL     1       5.412   4.201  16.675  0.00  0.00    +0.000 A 
ATOM     22  O   UNL     1       5.969   3.324  15.774  0.00  0.00    +0.000 OA
ATOM     23  C   UNL     1       6.181   4.009  14.622  0.00  0.00    +0.000 A 
ATOM     24  C   UNL     1       5.776   5.314  14.756  0.00  0.00    +0.000 A 
ATOM     25  C   UNL     1       5.277   5.451  16.085  0.00  0.00    +0.000 A 
ATOM     26  C   UNL     1       4.728   6.681  16.705  0.00  0.00    +0.000 C 
ENDBRANCH  18  21
ENDBRANCH  16  17
ENDBRANCH   4  16
TORSDOF 6
ENDMDL
MODEL 2
REMARK VINA RESULT:      -8.1      0.948      1.470
REMARK  Name = 
REMARK  8 active torsions:
REMARK  status: ('A' for Active; 'I' for Inactive)
REMARK    1  A    between atoms: C_1  and  C_2
REMARK    2  A    between atoms: C_2  and  C_3
REMARK    3  A    between atoms: C_6  and  C_7
REMARK    4  A    between atoms: C_7  and  N_8
REMARK    5  A    between atoms: C_11  and  C_12
REMARK    6  A    between atoms: C_12  and  N_13
REMARK    7  A    between atoms: C_14  and  C_16
REMARK    8  A    between atoms: C_20  and  C_21
REMARK                            x       y       z     vdW  Elec       q    Type
REMARK                         _______ _______ _______ _____ _____    ______ ____
ROOT
ATOM      1  N   UNL     1       1.946   5.490  19.620  0.00  0.00    +0.000 NA
ATOM      2  C   UNL     1       2.042   4.834  18.304  0.00  0.00    +0.000 C 
ATOM      3  C   UNL     1       1.468   3.415  18.278  0.00  0.00    +0.000 C 
ATOM      4  C   UNL     1       2.056   2.514  19.367  0.00  0.00    +0.000 C 
ATOM      5  C   UNL     1       1.878   3.226  20.712  0.00  0.00    +0.000 C 
ATOM      6  C   UNL     1       2.458   4.644  20.710  0.00  0.00    +0.000 C 
ENDROOT
BRANCH   1   7
ATOM      7  C   UNL     1       2.695   6.779  19.614  0.00  0.00    +0.000 C 
BRANCH   7  11
ATOM      8  C   UNL     1       0.359  10.376  19.455  0.00  0.00    +0.000 A 
ATOM      9  C   UNL     1       0.930   9.878  18.285  0.00  0.00    +0.000 A 
ATOM     10  C   UNL     1       1.687   8.709  18.328  0.00  0.00    +0.000 A 
ATOM     11  C   UNL     1       1.850   8.048  19.544  0.00  0.00    +0.000 A 
ATOM     12  N   UNL     1       1.238   8.479  20.678  0.00  0.00    +0.000 NA
ATOM     13  C   UNL     1       0.539   9.635  20.616  0.00  0.00    +0.000 A 
BRANCH   8  15
ATOM     14  C   UNL     1      -1.236  11.863  18.245  0.00  0.00    +0.000 C 
ATOM     15  C   UNL     1      -0.351  11.699  19.474  0.00  0.00    +0.000 C 
ENDBRANCH   8  15
ENDBRANCH   7  11
ENDBRANCH   1   7
BRANCH   4  16
ATOM     16  C   UNL     1       3.529   2.142  19.118  0.00  0.00    +0.000 C 
BRANCH  16  17
ATOM     17  N   UNL     1       4.068   2.756  17.924  0.00  0.00    +0.000 N 
ATOM     18  C   UNL     1       5.095   3.678  17.938  0.00  0.00    +0.000 C 
ATOM     19  O   UNL     1       5.633   4.049  18.977  0.00  0.00    +0.000 OA
ATOM     20  H   UNL     1       3.718   2.481  17.012  0.00  0.00    +0.000 HD
BRANCH  18  21
ATOM     21  C   UNL     1       5.461   4.167  16.618  0.00  0.00    +0.000 A 
ATOM     22  O   UNL     1       5.970   3.276  15.702  0.00  0.00    +0.000 OA
ATOM     23  C   UNL     1       6.212   3.966  14.559  0.00  0.00    +0.000 A 
ATOM     24  C   UNL     1       5.873   5.288  14.713  0.00  0.00    +0.000 A 
ATOM     25  C   UNL     1       5.386   5.430  16.046  0.00  0.00    +0.000 A 
ATOM     26  C   UNL     1       4.901   6.677  16.686  0.00  0.00    +0.000 C 
ENDBRANCH  18  21
ENDBRANCH  16  17
ENDBRANCH   4  16
TORSDOF 6
ENDMDL
MODEL 3
REMARK VINA RESULT:      -7.7      1.494      2.213
REMARK  Name = 
REMARK  8 active torsions:
REMARK  status: ('A' for Active; 'I' for Inactive)
REMARK    1  A    between atoms: C_1  and  C_2
REMARK    2  A    between atoms: C_2  and  C_3
REMARK    3  A    between atoms: C_6  and  C_7
REMARK    4  A    between atoms: C_7  and  N_8
REMARK    5  A    between atoms: C_11  and  C_12
REMARK    6  A    between atoms: C_12  and  N_13
REMARK    7  A    between atoms: C_14  and  C_16
REMARK    8  A    between atoms: C_20  and  C_21
REMARK                            x       y       z     vdW  Elec       q    Type
REMARK                         _______ _______ _______ _____ _____    ______ ____
ROOT
ATOM      1  N   UNL     1       2.161   5.384  19.366  0.00  0.00    +0.000 NA
ATOM      2  C   UNL     1       1.921   4.675  18.097  0.00  0.00    +0.000 C 
ATOM      3  C   UNL     1       1.376   3.256  18.276  0.00  0.00    +0.000 C 
ATOM      4  C   UNL     1       2.236   2.401  19.210  0.00  0.00    +0.000 C 
ATOM      5  C   UNL     1       2.403   3.167  20.526  0.00  0.00    +0.000 C 
ATOM      6  C   UNL     1       2.947   4.584  20.318  0.00  0.00    +0.000 C 
ENDROOT
BRANCH   1   7
ATOM      7  C   UNL     1       2.867   6.673  19.116  0.00  0.00    +0.000 C 
BRANCH   7  11
ATOM      8  C   UNL     1       0.497  10.245  19.313  0.00  0.00    +0.000 A 
ATOM      9  C   UNL     1       0.996   9.822  18.082  0.00  0.00    +0.000 A 
ATOM     10  C   UNL     1       1.763   8.661  18.010  0.00  0.00    +0.000 A 
ATOM     11  C   UNL     1       2.010   7.933  19.173  0.00  0.00    +0.000 A 
ATOM     12  N   UNL     1       1.468   8.292  20.367  0.00  0.00    +0.000 NA
ATOM     13  C   UNL     1       0.756   9.441  20.415  0.00  0.00    +0.000 A 
BRANCH   8  15
ATOM     14  C   UNL     1      -1.197  11.771  18.303  0.00  0.00    +0.000 C 
ATOM     15  C   UNL     1      -0.222  11.556  19.453  0.00  0.00    +0.000 C 
ENDBRANCH   8  15
ENDBRANCH   7  11
ENDBRANCH   1   7
BRANCH   4  16
ATOM     16  C   UNL     1       3.599   2.020  18.603  0.00  0.00    +0.000 C 
BRANCH  16  17
ATOM     17  N   UNL     1       4.556   3.104  18.651  0.00  0.00    +0.000 N 
ATOM     18  C   UNL     1       5.074   3.713  17.526  0.00  0.00    +0.000 C 
ATOM     19  O   UNL     1       4.758   3.376  16.388  0.00  0.00    +0.000 OA
ATOM     20  H   UNL     1       4.846   3.483  19.546  0.00  0.00    +0.000 HD
BRANCH  18  21
ATOM     21  C   UNL     1       6.028   4.771  17.819  0.00  0.00    +0.000 A 
ATOM     22  O   UNL     1       7.021   4.528  18.738  0.00  0.00    +0.000 OA
ATOM     23  C   UNL     1       7.781   5.649  18.819  0.00  0.00    +0.000 A 
ATOM     24  C   UNL     1       7.301   6.618  17.973  0.00  0.00    +0.000 A 
ATOM     25  C   UNL     1       6.162   6.060  17.320  0.00  0.00    +0.000 A 
ATOM     26  C   UNL     1       5.300   6.727  16.314  0.00  0.00    +0.000 C 
ENDBRANCH  18  21
ENDBRANCH  16  17
ENDBRANCH   4  16
TORSDOF 6
ENDMDL
MODEL 4
REMARK VINA RESULT:      -7.7      2.443      6.827
REMARK  Name = 
REMARK  8 active torsions:
REMARK  status: ('A' for Active; 'I' for Inactive)
REMARK    1  A    between atoms: C_1  and  C_2
REMARK    2  A    between atoms: C_2  and  C_3
REMARK    3  A    between atoms: C_6  and  C_7
REMARK    4  A    between atoms: C_7  and  N_8
REMARK    5  A    between atoms: C_11  and  C_12
REMARK    6  A    between atoms: C_12  and  N_13
REMARK    7  A    between atoms: C_14  and  C_16
REMARK    8  A    between atoms: C_20  and  C_21
REMARK                            x       y       z     vdW  Elec       q    Type
REMARK                         _______ _______ _______ _____ _____    ______ ____
ROOT
ATOM      1  N   UNL     1       3.476   3.199  17.635  0.00  0.00    +0.000 NA
ATOM      2  C   UNL     1       3.650   2.688  19.006  0.00  0.00    +0.000 C 
ATOM      3  C   UNL     1       2.369   2.721  19.845  0.00  0.00    +0.000 C 
ATOM      4  C   UNL     1       1.710   4.103  19.871  0.00  0.00    +0.000 C 
ATOM      5  C   UNL     1       1.508   4.554  18.421  0.00  0.00    +0.000 C 
ATOM      6  C   UNL     1       2.803   4.508  17.603  0.00  0.00    +0.000 C 
ENDROOT
BRANCH   1   7
ATOM      7  C   UNL     1       4.795   3.315  16.952  0.00  0.00    +0.000 C 
BRANCH   7  11
ATOM      8  C   UNL     1       7.299   6.601  18.112  0.00  0.00    +0.000 A 
ATOM      9  C   UNL     1       6.551   6.691  16.939  0.00  0.00    +0.000 A 
ATOM     10  C   UNL     1       5.733   5.629  16.558  0.00  0.00    +0.000 A 
ATOM     11  C   UNL     1       5.667   4.495  17.366  0.00  0.00    +0.000 A 
ATOM     12  N   UNL     1       6.332   4.424  18.549  0.00  0.00    +0.000 NA
ATOM     13  C   UNL     1       7.145   5.453  18.878  0.00  0.00    +0.000 A 
BRANCH   8  15
ATOM     14  C   UNL     1       8.006   8.964  17.744  0.00  0.00    +0.000 C 
ATOM     15  C   UNL     1       8.289   7.666  18.489  0.00  0.00    +0.000 C 
ENDBRANCH   8  15
ENDBRANCH   7  11
ENDBRANCH   1   7
BRANCH   4  16
ATOM     16  C   UNL     1       2.509   5.142  20.678  0.00  0.00    +0.000 C 
BRANCH  16  17
ATOM     17  N   UNL     1       1.765   6.359  20.916  0.00  0.00    +0.000 N 
ATOM     18  C   UNL     1       1.917   7.505  20.162  0.00  0.00    +0.000 C 
ATOM     19  O   UNL     1       2.705   7.577  19.222  0.00  0.00    +0.000 OA
ATOM     20  H   UNL     1       1.058   6.386  21.643  0.00  0.00    +0.000 HD
BRANCH  18  21
ATOM     21  C   UNL     1       1.072   8.608  20.593  0.00  0.00    +0.000 A 
ATOM     22  O   UNL     1       0.732   8.697  21.922  0.00  0.00    +0.000 OA
ATOM     23  C   UNL     1      -0.035   9.806  22.069  0.00  0.00    +0.000 A 
ATOM     24  C   UNL     1      -0.203  10.439  20.863  0.00  0.00    +0.000 A 
ATOM     25  C   UNL     1       0.510   9.669  19.897  0.00  0.00    +0.000 A 
ATOM     26  C   UNL     1       0.622   9.950  18.445  0.00  0.00    +0.000 C 
ENDBRANCH  18  21
ENDBRANCH  16  17
ENDBRANCH   4  16
TORSDOF 6
ENDMDL
MODEL 5
REMARK VINA RESULT:      -7.6      1.236      1.858
REMARK  Name = 
REMARK  8 active torsions:
REMARK  status: ('A' for Active; 'I' for Inactive)
REMARK    1  A    between atoms: C_1  and  C_2
REMARK    2  A    between atoms: C_2  and  C_3
REMARK    3  A    between atoms: C_6  and  C_7
REMARK    4  A    between atoms: C_7  and  N_8
REMARK    5  A    between atoms: C_11  and  C_12
REMARK    6  A    between atoms: C_12  and  N_13
REMARK    7  A    between atoms: C_14  and  C_16
REMARK    8  A    between atoms: C_20  and  C_21
REMARK                            x       y       z     vdW  Elec       q    Type
REMARK                         _______ _______ _______ _____ _____    ______ ____
ROOT
ATOM      1  N   UNL     1       2.015   5.084  19.657  0.00  0.00    +0.000 NA
ATOM      2  C   UNL     1       1.558   4.459  18.404  0.00  0.00    +0.000 C 
ATOM      3  C   UNL     1       1.085   3.013  18.572  0.00  0.00    +0.000 C 
ATOM      4  C   UNL     1       2.121   2.123  19.264  0.00  0.00    +0.000 C 
ATOM      5  C   UNL     1       2.514   2.799  20.581  0.00  0.00    +0.000 C 
ATOM      6  C   UNL     1       2.981   4.245  20.386  0.00  0.00    +0.000 C 
ENDROOT
BRANCH   1   7
ATOM      7  C   UNL     1       2.636   6.411  19.381  0.00  0.00    +0.000 C 
BRANCH   7  11
ATOM      8  C   UNL     1       0.387   9.837  20.653  0.00  0.00    +0.000 A 
ATOM      9  C   UNL     1       0.583   8.779  21.539  0.00  0.00    +0.000 A 
ATOM     10  C   UNL     1       1.316   7.665  21.135  0.00  0.00    +0.000 A 
ATOM     11  C   UNL     1       1.852   7.633  19.848  0.00  0.00    +0.000 A 
ATOM     12  N   UNL     1       1.732   8.687  18.999  0.00  0.00    +0.000 NA
ATOM     13  C   UNL     1       0.987   9.741  19.405  0.00  0.00    +0.000 A 
BRANCH   8  15
ATOM     14  C   UNL     1      -0.701  11.093  22.513  0.00  0.00    +0.000 C 
ATOM     15  C   UNL     1      -0.505  10.993  21.005  0.00  0.00    +0.000 C 
ENDBRANCH   8  15
ENDBRANCH   7  11
ENDBRANCH   1   7
BRANCH   4  16
ATOM     16  C   UNL     1       3.354   1.834  18.389  0.00  0.00    +0.000 C 
BRANCH  16  17
ATOM     17  N   UNL     1       4.413   2.802  18.575  0.00  0.00    +0.000 N 
ATOM     18  C   UNL     1       4.837   3.667  17.586  0.00  0.00    +0.000 C 
ATOM     19  O   UNL     1       4.341   3.678  16.463  0.00  0.00    +0.000 OA
ATOM     20  H   UNL     1       4.855   2.900  19.483  0.00  0.00    +0.000 HD
BRANCH  18  21
ATOM     21  C   UNL     1       5.922   4.543  18.000  0.00  0.00    +0.000 A 
ATOM     22  O   UNL     1       6.116   4.764  19.342  0.00  0.00    +0.000 OA
ATOM     23  C   UNL     1       7.186   5.589  19.465  0.00  0.00    +0.000 A 
ATOM     24  C   UNL     1       7.691   5.911  18.230  0.00  0.00    +0.000 A 
ATOM     25  C   UNL     1       6.877   5.238  17.271  0.00  0.00    +0.000 A 
ATOM     26  C   UNL     1       7.026   5.279  15.796  0.00  0.00    +0.000 C 
ENDBRANCH  18  21
ENDBRANCH  16  17
ENDBRANCH   4  16
TORSDOF 6
ENDMDL
MODEL 6
REMARK VINA RESULT:      -7.5      2.750      6.391
REMARK  Name = 
REMARK  8 active torsions:
REMARK  status: ('A' for Active; 'I' for Inactive)
REMARK    1  A    between atoms: C_1  and  C_2
REMARK    2  A    between atoms: C_2  and  C_3
REMARK    3  A    between atoms: C_6  and  C_7
REMARK    4  A    between atoms: C_7  and  N_8
REMARK    5  A    between atoms: C_11  and  C_12
REMARK    6  A    between atoms: C_12  and  N_13
REMARK    7  A    between atoms: C_14  and  C_16
REMARK    8  A    between atoms: C_20  and  C_21
REMARK                            x       y       z     vdW  Elec       q    Type
REMARK                         _______ _______ _______ _____ _____    ______ ____
ROOT
ATOM      1  N   UNL     1       2.902   2.549  18.944  0.00  0.00    +0.000 NA
ATOM      2  C   UNL     1       3.355   2.563  20.346  0.00  0.00    +0.000 C 
ATOM      3  C   UNL     1       2.234   2.828  21.354  0.00  0.00    +0.000 C 
ATOM      4  C   UNL     1       1.436   4.096  21.040  0.00  0.00    +0.000 C 
ATOM      5  C   UNL     1       0.949   3.996  19.591  0.00  0.00    +0.000 C 
ATOM      6  C   UNL     1       2.089   3.728  18.603  0.00  0.00    +0.000 C 
ENDROOT
BRANCH   1   7
ATOM      7  C   UNL     1       4.070   2.481  18.020  0.00  0.00    +0.000 C 
BRANCH   7  11
ATOM      8  C   UNL     1       6.334   6.087  17.491  0.00  0.00    +0.000 A 
ATOM      9  C   UNL     1       5.481   5.660  16.475  0.00  0.00    +0.000 A 
ATOM     10  C   UNL     1       4.739   4.491  16.641  0.00  0.00    +0.000 A 
ATOM     11  C   UNL     1       4.856   3.774  17.831  0.00  0.00    +0.000 A 
ATOM     12  N   UNL     1       5.626   4.218  18.859  0.00  0.00    +0.000 NA
ATOM     13  C   UNL     1       6.361   5.335  18.658  0.00  0.00    +0.000 A 
BRANCH   8  15
ATOM     14  C   UNL     1       8.205   7.413  18.473  0.00  0.00    +0.000 C 
ATOM     15  C   UNL     1       7.245   7.266  17.299  0.00  0.00    +0.000 C 
ENDBRANCH   8  15
ENDBRANCH   7  11
ENDBRANCH   1   7
BRANCH   4  16
ATOM     16  C   UNL     1       2.234   5.390  21.278  0.00  0.00    +0.000 C 
BRANCH  16  17
ATOM     17  N   UNL     1       1.865   6.451  20.366  0.00  0.00    +0.000 N 
ATOM     18  C   UNL     1       1.661   7.758  20.761  0.00  0.00    +0.000 C 
ATOM     19  O   UNL     1       1.779   8.121  21.928  0.00  0.00    +0.000 OA
ATOM     20  H   UNL     1       1.786   6.260  19.373  0.00  0.00    +0.000 HD
BRANCH  18  21
ATOM     21  C   UNL     1       1.286   8.647  19.672  0.00  0.00    +0.000 A 
ATOM     22  O   UNL     1       0.254   9.533  19.870  0.00  0.00    +0.000 OA
ATOM     23  C   UNL     1       0.115  10.252  18.728  0.00  0.00    +0.000 A 
ATOM     24  C   UNL     1       1.033   9.850  17.789  0.00  0.00    +0.000 A 
ATOM     25  C   UNL     1       1.798   8.807  18.391  0.00  0.00    +0.000 A 
ATOM     26  C   UNL     1       2.912   8.051  17.769  0.00  0.00    +0.000 C 
ENDBRANCH  18  21
ENDBRANCH  16  17
ENDBRANCH   4  16
TORSDOF 6
ENDMDL
MODEL 7
REMARK VINA RESULT:      -7.4      1.235      1.697
REMARK  Name = 
REMARK  8 active torsions:
REMARK  status: ('A' for Active; 'I' for Inactive)
REMARK    1  A    between atoms: C_1  and  C_2
REMARK    2  A    between atoms: C_2  and  C_3
REMARK    3  A    between atoms: C_6  and  C_7
REMARK    4  A    between atoms: C_7  and  N_8
REMARK    5  A    between atoms: C_11  and  C_12
REMARK    6  A    between atoms: C_12  and  N_13
REMARK    7  A    between atoms: C_14  and  C_16
REMARK    8  A    between atoms: C_20  and  C_21
REMARK                            x       y       z     vdW  Elec       q    Type
REMARK                         _______ _______ _______ _____ _____    ______ ____
ROOT
ATOM      1  N   UNL     1       1.660   4.991  20.491  0.00  0.00    +0.000 NA
ATOM      2  C   UNL     1       1.525   4.720  19.048  0.00  0.00    +0.000 C 
ATOM      3  C   UNL     1       0.910   3.353  18.733  0.00  0.00    +0.000 C 
ATOM      4  C   UNL     1       1.636   2.198  19.427  0.00  0.00    +0.000 C 
ATOM      5  C   UNL     1       1.696   2.514  20.925  0.00  0.00    +0.000 C 
ATOM      6  C   UNL     1       2.312   3.887  21.213  0.00  0.00    +0.000 C 
ENDROOT
BRANCH   1   7
ATOM      7  C   UNL     1       2.437   6.244  20.713  0.00  0.00    +0.000 C 
BRANCH   7  11
ATOM      8  C   UNL     1       0.545   9.855  19.375  0.00  0.00    +0.000 A 
ATOM      9  C   UNL     1       0.282   9.379  20.658  0.00  0.00    +0.000 A 
ATOM     10  C   UNL     1       0.895   8.209  21.101  0.00  0.00    +0.000 A 
ATOM     11  C   UNL     1       1.775   7.538  20.253  0.00  0.00    +0.000 A 
ATOM     12  N   UNL     1       2.100   8.030  19.029  0.00  0.00    +0.000 NA
ATOM     13  C   UNL     1       1.464   9.148  18.611  0.00  0.00    +0.000 A 
BRANCH   8  15
ATOM     14  C   UNL     1      -1.361  11.427  19.713  0.00  0.00    +0.000 C 
ATOM     15  C   UNL     1      -0.194  11.036  18.815  0.00  0.00    +0.000 C 
ENDBRANCH   8  15
ENDBRANCH   7  11
ENDBRANCH   1   7
BRANCH   4  16
ATOM     16  C   UNL     1       3.038   1.928  18.852  0.00  0.00    +0.000 C 
BRANCH  16  17
ATOM     17  N   UNL     1       3.509   2.998  17.999  0.00  0.00    +0.000 N 
ATOM     18  C   UNL     1       4.617   3.769  18.286  0.00  0.00    +0.000 C 
ATOM     19  O   UNL     1       5.292   3.604  19.299  0.00  0.00    +0.000 OA
ATOM     20  H   UNL     1       3.044   3.184  17.117  0.00  0.00    +0.000 HD
BRANCH  18  21
ATOM     21  C   UNL     1       4.893   4.792  17.289  0.00  0.00    +0.000 A 
ATOM     22  O   UNL     1       4.548   6.094  17.567  0.00  0.00    +0.000 OA
ATOM     23  C   UNL     1       4.922   6.846  16.501  0.00  0.00    +0.000 A 
ATOM     24  C   UNL     1       5.500   6.061  15.535  0.00  0.00    +0.000 A 
ATOM     25  C   UNL     1       5.486   4.725  16.036  0.00  0.00    +0.000 A 
ATOM     26  C   UNL     1       6.000   3.514  15.350  0.00  0.00    +0.000 C 
ENDBRANCH  18  21
ENDBRANCH  16  17
ENDBRANCH   4  16
TORSDOF 6
ENDMDL
MODEL 8
REMARK VINA RESULT:      -7.4      1.340      1.917
REMARK  Name = 
REMARK  8 active torsions:
REMARK  status: ('A' for Active; 'I' for Inactive)
REMARK    1  A    between atoms: C_1  and  C_2
REMARK    2  A    between atoms: C_2  and  C_3
REMARK    3  A    between atoms: C_6  and  C_7
REMARK    4  A    between atoms: C_7  and  N_8
REMARK    5  A    between atoms: C_11  and  C_12
REMARK    6  A    between atoms: C_12  and  N_13
REMARK    7  A    between atoms: C_14  and  C_16
REMARK    8  A    between atoms: C_20  and  C_21
REMARK                            x       y       z     vdW  Elec       q    Type
REMARK                         _______ _______ _______ _____ _____    ______ ____
ROOT
ATOM      1  N   UNL     1       2.129   5.104  19.359  0.00  0.00    +0.000 NA
ATOM      2  C   UNL     1       2.041   4.739  17.934  0.00  0.00    +0.000 C 
ATOM      3  C   UNL     1       1.457   3.345  17.689  0.00  0.00    +0.000 C 
ATOM      4  C   UNL     1       2.180   2.249  18.476  0.00  0.00    +0.000 C 
ATOM      5  C   UNL     1       2.191   2.661  19.952  0.00  0.00    +0.000 C 
ATOM      6  C   UNL     1       2.777   4.060  20.169  0.00  0.00    +0.000 C 
ENDROOT
BRANCH   1   7
ATOM      7  C   UNL     1       2.880   6.382  19.523  0.00  0.00    +0.000 C 
BRANCH   7  11
ATOM      8  C   UNL     1       0.470   9.922  19.791  0.00  0.00    +0.000 A 
ATOM      9  C   UNL     1       0.649   9.128  20.922  0.00  0.00    +0.000 A 
ATOM     10  C   UNL     1       1.433   7.979  20.844  0.00  0.00    +0.000 A 
ATOM     11  C   UNL     1       2.038   7.648  19.632  0.00  0.00    +0.000 A 
ATOM     12  N   UNL     1       1.934   8.452  18.541  0.00  0.00    +0.000 NA
ATOM     13  C   UNL     1       1.140   9.542  18.635  0.00  0.00    +0.000 A 
BRANCH   8  15
ATOM     14  C   UNL     1      -1.043  11.346  18.412  0.00  0.00    +0.000 C 
ATOM     15  C   UNL     1      -0.470  11.093  19.801  0.00  0.00    +0.000 C 
ENDBRANCH   8  15
ENDBRANCH   7  11
ENDBRANCH   1   7
BRANCH   4  16
ATOM     16  C   UNL     1       3.603   1.968  17.959  0.00  0.00    +0.000 C 
BRANCH  16  17
ATOM     17  N   UNL     1       4.498   3.090  18.143  0.00  0.00    +0.000 N 
ATOM     18  C   UNL     1       5.230   3.656  17.119  0.00  0.00    +0.000 C 
ATOM     19  O   UNL     1       5.176   3.244  15.963  0.00  0.00    +0.000 OA
ATOM     20  H   UNL     1       4.578   3.528  19.054  0.00  0.00    +0.000 HD
BRANCH  18  21
ATOM     21  C   UNL     1       6.070   4.765  17.543  0.00  0.00    +0.000 A 
ATOM     22  O   UNL     1       7.180   4.497  18.309  0.00  0.00    +0.000 OA
ATOM     23  C   UNL     1       7.797   5.680  18.554  0.00  0.00    +0.000 A 
ATOM     24  C   UNL     1       7.109   6.713  17.965  0.00  0.00    +0.000 A 
ATOM     25  C   UNL     1       5.986   6.131  17.308  0.00  0.00    +0.000 A 
ATOM     26  C   UNL     1       4.942   6.845  16.533  0.00  0.00    +0.000 C 
ENDBRANCH  18  21
ENDBRANCH  16  17
ENDBRANCH   4  16
TORSDOF 6
ENDMDL
MODEL 9
REMARK VINA RESULT:      -7.3      2.410      7.245
REMARK  Name = 
REMARK  8 active torsions:
REMARK  status: ('A' for Active; 'I' for Inactive)
REMARK    1  A    between atoms: C_1  and  C_2
REMARK    2  A    between atoms: C_2  and  C_3
REMARK    3  A    between atoms: C_6  and  C_7
REMARK    4  A    between atoms: C_7  and  N_8
REMARK    5  A    between atoms: C_11  and  C_12
REMARK    6  A    between atoms: C_12  and  N_13
REMARK    7  A    between atoms: C_14  and  C_16
REMARK    8  A    between atoms: C_20  and  C_21
REMARK                            x       y       z     vdW  Elec       q    Type
REMARK                         _______ _______ _______ _____ _____    ______ ____
ROOT
ATOM      1  N   UNL     1       2.743   2.547  18.834  0.00  0.00    +0.000 NA
ATOM      2  C   UNL     1       3.305   2.712  20.186  0.00  0.00    +0.000 C 
ATOM      3  C   UNL     1       2.266   3.095  21.244  0.00  0.00    +0.000 C 
ATOM      4  C   UNL     1       1.445   4.327  20.855  0.00  0.00    +0.000 C 
ATOM      5  C   UNL     1       0.846   4.072  19.468  0.00  0.00    +0.000 C 
ATOM      6  C   UNL     1       1.905   3.688  18.430  0.00  0.00    +0.000 C 
ENDROOT
BRANCH   1   7
ATOM      7  C   UNL     1       3.835   2.368  17.835  0.00  0.00    +0.000 C 
BRANCH   7  11
ATOM      8  C   UNL     1       6.382   5.751  17.142  0.00  0.00    +0.000 A 
ATOM      9  C   UNL     1       5.672   5.199  16.077  0.00  0.00    +0.000 A 
ATOM     10  C   UNL     1       4.840   4.103  16.295  0.00  0.00    +0.000 A 
ATOM     11  C   UNL     1       4.722   3.582  17.583  0.00  0.00    +0.000 A 
ATOM     12  N   UNL     1       5.349   4.155  18.643  0.00  0.00    +0.000 NA
ATOM     13  C   UNL     1       6.177   5.196  18.398  0.00  0.00    +0.000 A 
BRANCH   8  15
ATOM     14  C   UNL     1       7.992   7.303  18.246  0.00  0.00    +0.000 C 
ATOM     15  C   UNL     1       7.386   6.846  16.924  0.00  0.00    +0.000 C 
ENDBRANCH   8  15
ENDBRANCH   7  11
ENDBRANCH   1   7
BRANCH   4  16
ATOM     16  C   UNL     1       2.258   5.633  20.885  0.00  0.00    +0.000 C 
BRANCH  16  17
ATOM     17  N   UNL     1       1.484   6.765  21.345  0.00  0.00    +0.000 N 
ATOM     18  C   UNL     1       1.392   7.957  20.654  0.00  0.00    +0.000 C 
ATOM     19  O   UNL     1       1.968   8.146  19.586  0.00  0.00    +0.000 OA
ATOM     20  H   UNL     1       0.936   6.691  22.195  0.00  0.00    +0.000 HD
BRANCH  18  21
ATOM     21  C   UNL     1       0.566   8.955  21.315  0.00  0.00    +0.000 A 
ATOM     22  O   UNL     1       0.550   8.993  22.689  0.00  0.00    +0.000 OA
ATOM     23  C   UNL     1      -0.270  10.010  23.055  0.00  0.00    +0.000 A 
ATOM     24  C   UNL     1      -0.790  10.633  21.948  0.00  0.00    +0.000 A 
ATOM     25  C   UNL     1      -0.256   9.955  20.812  0.00  0.00    +0.000 A 
ATOM     26  C   UNL     1      -0.528  10.260  19.386  0.00  0.00    +0.000 C 
ENDBRANCH  18  21
ENDBRANCH  16  17
ENDBRANCH   4  16
TORSDOF 6
ENDMDL
