MODEL 1
REMARK VINA RESULT:      -8.7      0.000      0.000
REMARK  Name = 
REMARK  11 active torsions:
REMARK  status: ('A' for Active; 'I' for Inactive)
REMARK    1  A    between atoms: C_2  and  O_3
REMARK    2  A    between atoms: C_2  and  C_28
REMARK    3  A    between atoms: O_3  and  C_4
REMARK    4  A    between atoms: C_4  and  C_5
REMARK    5  A    between atoms: C_5  and  C_6
REMARK    6  A    between atoms: C_6  and  C_7
REMARK    7  A    between atoms: C_7  and  N_8
REMARK    8  A    between atoms: C_11  and  O_12
REMARK    9  A    between atoms: O_12  and  C_13
REMARK   10  A    between atoms: C_13  and  C_14
REMARK   11  A    between atoms: C_13  and  C_20
REMARK                            x       y       z     vdW  Elec       q    Type
REMARK                         _______ _______ _______ _____ _____    ______ ____
ROOT
ATOM      1  N   UNL     1       7.698   6.889  17.805  0.00  0.00    +0.000 NA
ATOM      2  C   UNL     1       7.318   5.903  18.835  0.00  0.00    +0.000 C 
ATOM      3  C   UNL     1       6.461   4.766  18.284  0.00  0.00    +0.000 C 
ATOM      4  C   UNL     1       5.190   5.306  17.625  0.00  0.00    +0.000 C 
ATOM      5  C   UNL     1       5.631   6.264  16.521  0.00  0.00    +0.000 C 
ATOM      6  C   UNL     1       6.507   7.388  17.085  0.00  0.00    +0.000 C 
ENDROOT
BRANCH   1   7
ATOM      7  C   UNL     1       8.410   8.024  18.431  0.00  0.00    +0.000 C 
BRANCH   7   8
ATOM      8  C   UNL     1       8.061   9.406  17.845  0.00  0.00    +0.000 C 
BRANCH   8   9
ATOM      9  C   UNL     1       9.010  10.533  18.258  0.00  0.00    +0.000 C 
BRANCH   9  10
ATOM     10  C   UNL     1       9.569  10.324  19.661  0.00  0.00    +0.000 C 
BRANCH  10  11
ATOM     11  O   UNL     1      10.078  11.557  20.197  0.00  0.00    +0.000 OA
BRANCH  11  13
ATOM     12  O   UNL     1      12.170  11.437  19.264  0.00  0.00    +0.000 OA
ATOM     13  C   UNL     1      11.163  12.057  19.574  0.00  0.00    +0.000 C 
BRANCH  13  14
ATOM     14  C   UNL     1      10.998  13.510  19.316  0.00  0.00    +0.000 A 
ATOM     15  C   UNL     1      12.048  14.367  19.661  0.00  0.00    +0.000 A 
ATOM     16  C   UNL     1      11.942  15.747  19.458  0.00  0.00    +0.000 A 
ATOM     17  C   UNL     1      10.783  16.273  18.891  0.00  0.00    +0.000 A 
ATOM     18  C   UNL     1       9.736  15.424  18.534  0.00  0.00    +0.000 A 
ATOM     19 CL   UNL     1       8.316  16.081  17.819  0.00  0.00    +0.000 Cl
ATOM     20  C   UNL     1       9.831  14.044  18.745  0.00  0.00    +0.000 A 
ENDBRANCH  13  14
ENDBRANCH  11  13
ENDBRANCH  10  11
ENDBRANCH   9  10
ENDBRANCH   8   9
ENDBRANCH   7   8
ENDBRANCH   1   7
BRANCH   4  21
ATOM     21  O   UNL     1       4.383   5.932  18.639  0.00  0.00    +0.000 OA
BRANCH  21  22
ATOM     22  C   UNL     1       2.948   5.848  18.481  0.00  0.00    +0.000 C 
BRANCH  22  23
ATOM     23  C   UNL     1       2.389   4.724  19.341  0.00  0.00    +0.000 A 
ATOM     24  C   UNL     1       1.364   3.903  18.844  0.00  0.00    +0.000 A 
ATOM     25  C   UNL     1       0.735   2.979  19.675  0.00  0.00    +0.000 A 
ATOM     26  C   UNL     1       1.153   2.832  20.996  0.00  0.00    +0.000 A 
ATOM     27  C   UNL     1       2.230   3.576  21.474  0.00  0.00    +0.000 A 
ATOM     28  C   UNL     1       2.845   4.522  20.654  0.00  0.00    +0.000 A 
ENDBRANCH  22  23
BRANCH  22  29
ATOM     29  C   UNL     1       2.295   7.196  18.803  0.00  0.00    +0.000 A 
ATOM     30  C   UNL     1       2.132   8.196  17.831  0.00  0.00    +0.000 A 
ATOM     31  C   UNL     1       1.547   9.424  18.153  0.00  0.00    +0.000 A 
ATOM     32  C   UNL     1       1.111   9.674  19.452  0.00  0.00    +0.000 A 
ATOM     33  C   UNL     1       1.254   8.692  20.430  0.00  0.00    +0.000 A 
ATOM     34  C   UNL     1       1.835   7.462  20.107  0.00  0.00    +0.000 A 
ENDBRANCH  22  29
ENDBRANCH  21  22
ENDBRANCH   4  21
TORSDOF 11
ENDMDL
MODEL 2
REMARK VINA RESULT:      -8.6      2.037      2.650
REMARK  Name = 
REMARK  11 active torsions:
REMARK  status: ('A' for Active; 'I' for Inactive)
REMARK    1  A    between atoms: C_2  and  O_3
REMARK    2  A    between atoms: C_2  and  C_28
REMARK    3  A    between atoms: O_3  and  C_4
REMARK    4  A    between atoms: C_4  and  C_5
REMARK    5  A    between atoms: C_5  and  C_6
REMARK    6  A    between atoms: C_6  and  C_7
REMARK    7  A    between atoms: C_7  and  N_8
REMARK    8  A    between atoms: C_11  and  O_12
REMARK    9  A    between atoms: O_12  and  C_13
REMARK   10  A    between atoms: C_13  and  C_14
REMARK   11  A    between atoms: C_13  and  C_20
REMARK                            x       y       z     vdW  Elec       q    Type
REMARK                         _______ _______ _______ _____ _____    ______ ____
ROOT
ATOM      1  N   UNL     1       7.622   6.566  17.956  0.00  0.00    +0.000 NA
ATOM      2  C   UNL     1       7.095   5.617  18.956  0.00  0.00    +0.000 C 
ATOM      3  C   UNL     1       6.131   4.596  18.355  0.00  0.00    +0.000 C 
ATOM      4  C   UNL     1       4.955   5.289  17.665  0.00  0.00    +0.000 C 
ATOM      5  C   UNL     1       5.543   6.205  16.594  0.00  0.00    +0.000 C 
ATOM      6  C   UNL     1       6.523   7.210  17.206  0.00  0.00    +0.000 C 
ENDROOT
BRANCH   1   7
ATOM      7  C   UNL     1       8.438   7.602  18.626  0.00  0.00    +0.000 C 
BRANCH   7   8
ATOM      8  C   UNL     1       8.302   9.016  18.030  0.00  0.00    +0.000 C 
BRANCH   8   9
ATOM      9  C   UNL     1       8.933  10.127  18.871  0.00  0.00    +0.000 C 
BRANCH   9  10
ATOM     10  C   UNL     1       9.837  11.030  18.038  0.00  0.00    +0.000 C 
BRANCH  10  11
ATOM     11  O   UNL     1       9.928  12.340  18.622  0.00  0.00    +0.000 OA
BRANCH  11  13
ATOM     12  O   UNL     1      11.592  12.113  20.185  0.00  0.00    +0.000 OA
ATOM     13  C   UNL     1      10.444  12.387  19.867  0.00  0.00    +0.000 C 
BRANCH  13  14
ATOM     14  C   UNL     1       9.412  12.809  20.847  0.00  0.00    +0.000 A 
ATOM     15  C   UNL     1       8.622  13.922  20.539  0.00  0.00    +0.000 A 
ATOM     16  C   UNL     1       7.646  14.376  21.431  0.00  0.00    +0.000 A 
ATOM     17  C   UNL     1       7.448  13.705  22.637  0.00  0.00    +0.000 A 
ATOM     18  C   UNL     1       8.224  12.589  22.947  0.00  0.00    +0.000 A 
ATOM     19 CL   UNL     1       7.961  11.756  24.429  0.00  0.00    +0.000 Cl
ATOM     20  C   UNL     1       9.210  12.136  22.063  0.00  0.00    +0.000 A 
ENDBRANCH  13  14
ENDBRANCH  11  13
ENDBRANCH  10  11
ENDBRANCH   9  10
ENDBRANCH   8   9
ENDBRANCH   7   8
ENDBRANCH   1   7
BRANCH   4  21
ATOM     21  O   UNL     1       4.191   5.991  18.662  0.00  0.00    +0.000 OA
BRANCH  21  22
ATOM     22  C   UNL     1       2.752   5.970  18.524  0.00  0.00    +0.000 C 
BRANCH  22  23
ATOM     23  C   UNL     1       2.155   4.879  19.400  0.00  0.00    +0.000 A 
ATOM     24  C   UNL     1       2.536   4.771  20.747  0.00  0.00    +0.000 A 
ATOM     25  C   UNL     1       2.124   3.684  21.513  0.00  0.00    +0.000 A 
ATOM     26  C   UNL     1       1.287   2.718  20.958  0.00  0.00    +0.000 A 
ATOM     27  C   UNL     1       0.827   2.861  19.650  0.00  0.00    +0.000 A 
ATOM     28  C   UNL     1       1.261   3.934  18.870  0.00  0.00    +0.000 A 
ENDBRANCH  22  23
BRANCH  22  29
ATOM     29  C   UNL     1       2.164   7.348  18.840  0.00  0.00    +0.000 A 
ATOM     30  C   UNL     1       1.741   7.700  20.132  0.00  0.00    +0.000 A 
ATOM     31  C   UNL     1       1.194   8.959  20.392  0.00  0.00    +0.000 A 
ATOM     32  C   UNL     1       1.060   9.891  19.365  0.00  0.00    +0.000 A 
ATOM     33  C   UNL     1       1.481   9.567  18.079  0.00  0.00    +0.000 A 
ATOM     34  C   UNL     1       2.034   8.309  17.819  0.00  0.00    +0.000 A 
ENDBRANCH  22  29
ENDBRANCH  21  22
ENDBRANCH   4  21
TORSDOF 11
ENDMDL
MODEL 3
REMARK VINA RESULT:      -8.5      0.902      1.068
REMARK  Name = 
REMARK  11 active torsions:
REMARK  status: ('A' for Active; 'I' for Inactive)
REMARK    1  A    between atoms: C_2  and  O_3
REMARK    2  A    between atoms: C_2  and  C_28
REMARK    3  A    between atoms: O_3  and  C_4
REMARK    4  A    between atoms: C_4  and  C_5
REMARK    5  A    between atoms: C_5  and  C_6
REMARK    6  A    between atoms: C_6  and  C_7
REMARK    7  A    between atoms: C_7  and  N_8
REMARK    8  A    between atoms: C_11  and  O_12
REMARK    9  A    between atoms: O_12  and  C_13
REMARK   10  A    between atoms: C_13  and  C_14
REMARK   11  A    between atoms: C_13  and  C_20
REMARK                            x       y       z     vdW  Elec       q    Type
REMARK                         _______ _______ _______ _____ _____    ______ ____
ROOT
ATOM      1  N   UNL     1       7.715   6.875  17.707  0.00  0.00    +0.000 NA
ATOM      2  C   UNL     1       7.502   5.631  18.472  0.00  0.00    +0.000 C 
ATOM      3  C   UNL     1       6.699   4.588  17.699  0.00  0.00    +0.000 C 
ATOM      4  C   UNL     1       5.339   5.145  17.273  0.00  0.00    +0.000 C 
ATOM      5  C   UNL     1       5.611   6.386  16.426  0.00  0.00    +0.000 C 
ATOM      6  C   UNL     1       6.434   7.416  17.206  0.00  0.00    +0.000 C 
ENDROOT
BRANCH   1   7
ATOM      7  C   UNL     1       8.380   7.884  18.560  0.00  0.00    +0.000 C 
BRANCH   7   8
ATOM      8  C   UNL     1       8.277   9.332  18.045  0.00  0.00    +0.000 C 
BRANCH   8   9
ATOM      9  C   UNL     1       9.120  10.347  18.819  0.00  0.00    +0.000 C 
BRANCH   9  10
ATOM     10  C   UNL     1       9.937  11.239  17.889  0.00  0.00    +0.000 C 
BRANCH  10  11
ATOM     11  O   UNL     1      11.099  11.748  18.562  0.00  0.00    +0.000 OA
BRANCH  11  13
ATOM     12  O   UNL     1      10.870  12.765  20.605  0.00  0.00    +0.000 OA
ATOM     13  C   UNL     1      10.884  12.795  19.384  0.00  0.00    +0.000 C 
BRANCH  13  14
ATOM     14  C   UNL     1      10.636  14.033  18.603  0.00  0.00    +0.000 A 
ATOM     15  C   UNL     1      11.561  14.390  17.615  0.00  0.00    +0.000 A 
ATOM     16  C   UNL     1      11.389  15.554  16.861  0.00  0.00    +0.000 A 
ATOM     17  C   UNL     1      10.276  16.363  17.085  0.00  0.00    +0.000 A 
ATOM     18  C   UNL     1       9.345  16.010  18.061  0.00  0.00    +0.000 A 
ATOM     19 CL   UNL     1       7.966  17.006  18.319  0.00  0.00    +0.000 Cl
ATOM     20  C   UNL     1       9.516  14.852  18.827  0.00  0.00    +0.000 A 
ENDBRANCH  13  14
ENDBRANCH  11  13
ENDBRANCH  10  11
ENDBRANCH   9  10
ENDBRANCH   8   9
ENDBRANCH   7   8
ENDBRANCH   1   7
BRANCH   4  21
ATOM     21  O   UNL     1       4.567   5.417  18.457  0.00  0.00    +0.000 OA
BRANCH  21  22
ATOM     22  C   UNL     1       3.128   5.370  18.328  0.00  0.00    +0.000 C 
BRANCH  22  23
ATOM     23  C   UNL     1       2.552   4.298  19.241  0.00  0.00    +0.000 A 
ATOM     24  C   UNL     1       1.214   3.898  19.098  0.00  0.00    +0.000 A 
ATOM     25  C   UNL     1       0.630   3.040  20.027  0.00  0.00    +0.000 A 
ATOM     26  C   UNL     1       1.390   2.534  21.080  0.00  0.00    +0.000 A 
ATOM     27  C   UNL     1       2.743   2.851  21.181  0.00  0.00    +0.000 A 
ATOM     28  C   UNL     1       3.324   3.732  20.268  0.00  0.00    +0.000 A 
ENDBRANCH  22  23
BRANCH  22  29
ATOM     29  C   UNL     1       2.521   6.749  18.607  0.00  0.00    +0.000 A 
ATOM     30  C   UNL     1       2.328   7.698  17.590  0.00  0.00    +0.000 A 
ATOM     31  C   UNL     1       1.787   8.955  17.874  0.00  0.00    +0.000 A 
ATOM     32  C   UNL     1       1.427   9.286  19.177  0.00  0.00    +0.000 A 
ATOM     33  C   UNL     1       1.600   8.356  20.200  0.00  0.00    +0.000 A 
ATOM     34  C   UNL     1       2.137   7.097  19.916  0.00  0.00    +0.000 A 
ENDBRANCH  22  29
ENDBRANCH  21  22
ENDBRANCH   4  21
TORSDOF 11
ENDMDL
MODEL 4
REMARK VINA RESULT:      -8.5      5.341      9.239
REMARK  Name = 
REMARK  11 active torsions:
REMARK  status: ('A' for Active; 'I' for Inactive)
REMARK    1  A    between atoms: C_2  and  O_3
REMARK    2  A    between atoms: C_2  and  C_28
REMARK    3  A    between atoms: O_3  and  C_4
REMARK    4  A    between atoms: C_4  and  C_5
REMARK    5  A    between atoms: C_5  and  C_6
REMARK    6  A    between atoms: C_6  and  C_7
REMARK    7  A    between atoms: C_7  and  N_8
REMARK    8  A    between atoms: C_11  and  O_12
REMARK    9  A    between atoms: O_12  and  C_13
REMARK   10  A    between atoms: C_13  and  C_14
REMARK   11  A    between atoms: C_13  and  C_20
REMARK                            x       y       z     vdW  Elec       q    Type
REMARK                         _______ _______ _______ _____ _____    ______ ____
ROOT
ATOM      1  N   UNL     1       2.451   4.730  19.372  0.00  0.00    +0.000 NA
ATOM      2  C   UNL     1       1.985   4.657  17.973  0.00  0.00    +0.000 C 
ATOM      3  C   UNL     1       2.410   3.368  17.272  0.00  0.00    +0.000 C 
ATOM      4  C   UNL     1       3.931   3.205  17.294  0.00  0.00    +0.000 C 
ATOM      5  C   UNL     1       4.359   3.215  18.760  0.00  0.00    +0.000 C 
ATOM      6  C   UNL     1       3.909   4.503  19.457  0.00  0.00    +0.000 C 
ENDROOT
BRANCH   1   7
ATOM      7  C   UNL     1       2.121   6.053  19.945  0.00  0.00    +0.000 C 
BRANCH   7   8
ATOM      8  C   UNL     1       2.457   7.251  19.036  0.00  0.00    +0.000 C 
BRANCH   8   9
ATOM      9  C   UNL     1       1.643   8.515  19.318  0.00  0.00    +0.000 C 
BRANCH   9  10
ATOM     10  C   UNL     1       1.338   9.295  18.044  0.00  0.00    +0.000 C 
BRANCH  10  11
ATOM     11  O   UNL     1       0.619  10.502  18.343  0.00  0.00    +0.000 OA
BRANCH  11  13
ATOM     12  O   UNL     1      -0.521  10.070  20.287  0.00  0.00    +0.000 OA
ATOM     13  C   UNL     1      -0.488  10.348  19.097  0.00  0.00    +0.000 C 
BRANCH  13  14
ATOM     14  C   UNL     1      -1.712  10.543  18.280  0.00  0.00    +0.000 A 
ATOM     15  C   UNL     1      -1.797   9.885  17.047  0.00  0.00    +0.000 A 
ATOM     16  C   UNL     1      -2.917  10.046  16.226  0.00  0.00    +0.000 A 
ATOM     17  C   UNL     1      -3.969  10.858  16.645  0.00  0.00    +0.000 A 
ATOM     18  C   UNL     1      -3.897  11.509  17.876  0.00  0.00    +0.000 A 
ATOM     19 CL   UNL     1      -5.207  12.497  18.394  0.00  0.00    +0.000 Cl
ATOM     20  C   UNL     1      -2.774  11.362  18.698  0.00  0.00    +0.000 A 
ENDBRANCH  13  14
ENDBRANCH  11  13
ENDBRANCH  10  11
ENDBRANCH   9  10
ENDBRANCH   8   9
ENDBRANCH   7   8
ENDBRANCH   1   7
BRANCH   4  21
ATOM     21  O   UNL     1       4.515   4.269  16.520  0.00  0.00    +0.000 OA
BRANCH  21  22
ATOM     22  C   UNL     1       5.940   4.207  16.288  0.00  0.00    +0.000 C 
BRANCH  22  23
ATOM     23  C   UNL     1       6.235   4.291  14.797  0.00  0.00    +0.000 A 
ATOM     24  C   UNL     1       5.429   3.597  13.881  0.00  0.00    +0.000 A 
ATOM     25  C   UNL     1       5.782   3.534  12.536  0.00  0.00    +0.000 A 
ATOM     26  C   UNL     1       6.918   4.202  12.082  0.00  0.00    +0.000 A 
ATOM     27  C   UNL     1       7.676   4.969  12.965  0.00  0.00    +0.000 A 
ATOM     28  C   UNL     1       7.340   5.012  14.318  0.00  0.00    +0.000 A 
ENDBRANCH  22  23
BRANCH  22  29
ATOM     29  C   UNL     1       6.659   5.304  17.078  0.00  0.00    +0.000 A 
ATOM     30  C   UNL     1       6.536   6.663  16.748  0.00  0.00    +0.000 A 
ATOM     31  C   UNL     1       7.216   7.644  17.477  0.00  0.00    +0.000 A 
ATOM     32  C   UNL     1       8.028   7.285  18.549  0.00  0.00    +0.000 A 
ATOM     33  C   UNL     1       8.156   5.944  18.900  0.00  0.00    +0.000 A 
ATOM     34  C   UNL     1       7.474   4.963  18.176  0.00  0.00    +0.000 A 
ENDBRANCH  22  29
ENDBRANCH  21  22
ENDBRANCH   4  21
TORSDOF 11
ENDMDL
MODEL 5
REMARK VINA RESULT:      -8.3      1.204      1.388
REMARK  Name = 
REMARK  11 active torsions:
REMARK  status: ('A' for Active; 'I' for Inactive)
REMARK    1  A    between atoms: C_2  and  O_3
REMARK    2  A    between atoms: C_2  and  C_28
REMARK    3  A    between atoms: O_3  and  C_4
REMARK    4  A    between atoms: C_4  and  C_5
REMARK    5  A    between atoms: C_5  and  C_6
REMARK    6  A    between atoms: C_6  and  C_7
REMARK    7  A    between atoms: C_7  and  N_8
REMARK    8  A    between atoms: C_11  and  O_12
REMARK    9  A    between atoms: O_12  and  C_13
REMARK   10  A    between atoms: C_13  and  C_14
REMARK   11  A    between atoms: C_13  and  C_20
REMARK                            x       y       z     vdW  Elec       q    Type
REMARK                         _______ _______ _______ _____ _____    ______ ____
ROOT
ATOM      1  N   UNL     1       7.455   6.434  17.927  0.00  0.00    +0.000 NA
ATOM      2  C   UNL     1       6.815   5.592  18.956  0.00  0.00    +0.000 C 
ATOM      3  C   UNL     1       5.745   4.665  18.385  0.00  0.00    +0.000 C 
ATOM      4  C   UNL     1       4.660   5.461  17.655  0.00  0.00    +0.000 C 
ATOM      5  C   UNL     1       5.357   6.259  16.556  0.00  0.00    +0.000 C 
ATOM      6  C   UNL     1       6.443   7.169  17.140  0.00  0.00    +0.000 C 
ENDROOT
BRANCH   1   7
ATOM      7  C   UNL     1       8.381   7.395  18.564  0.00  0.00    +0.000 C 
BRANCH   7   8
ATOM      8  C   UNL     1       8.251   8.846  18.063  0.00  0.00    +0.000 C 
BRANCH   8   9
ATOM      9  C   UNL     1       9.004   9.882  18.899  0.00  0.00    +0.000 C 
BRANCH   9  10
ATOM     10  C   UNL     1       9.044  11.246  18.219  0.00  0.00    +0.000 C 
BRANCH  10  11
ATOM     11  O   UNL     1       9.889  12.154  18.945  0.00  0.00    +0.000 OA
BRANCH  11  13
ATOM     12  O   UNL     1      11.885  11.643  17.938  0.00  0.00    +0.000 OA
ATOM     13  C   UNL     1      11.067  12.447  18.359  0.00  0.00    +0.000 C 
BRANCH  13  14
ATOM     14  C   UNL     1      11.273  13.916  18.300  0.00  0.00    +0.000 A 
ATOM     15  C   UNL     1      11.246  14.538  17.046  0.00  0.00    +0.000 A 
ATOM     16  C   UNL     1      11.452  15.916  16.927  0.00  0.00    +0.000 A 
ATOM     17  C   UNL     1      11.671  16.682  18.070  0.00  0.00    +0.000 A 
ATOM     18  C   UNL     1      11.688  16.072  19.324  0.00  0.00    +0.000 A 
ATOM     19 CL   UNL     1      11.942  17.028  20.731  0.00  0.00    +0.000 Cl
ATOM     20  C   UNL     1      11.494  14.692  19.449  0.00  0.00    +0.000 A 
ENDBRANCH  13  14
ENDBRANCH  11  13
ENDBRANCH  10  11
ENDBRANCH   9  10
ENDBRANCH   8   9
ENDBRANCH   7   8
ENDBRANCH   1   7
BRANCH   4  21
ATOM     21  O   UNL     1       3.976   6.285  18.616  0.00  0.00    +0.000 OA
BRANCH  21  22
ATOM     22  C   UNL     1       2.538   6.155  18.688  0.00  0.00    +0.000 C 
BRANCH  22  23
ATOM     23  C   UNL     1       2.161   4.912  19.481  0.00  0.00    +0.000 A 
ATOM     24  C   UNL     1       1.330   3.937  18.907  0.00  0.00    +0.000 A 
ATOM     25  C   UNL     1       0.848   2.880  19.674  0.00  0.00    +0.000 A 
ATOM     26  C   UNL     1       1.228   2.758  21.009  0.00  0.00    +0.000 A 
ATOM     27  C   UNL     1       2.124   3.669  21.566  0.00  0.00    +0.000 A 
ATOM     28  C   UNL     1       2.588   4.745  20.808  0.00  0.00    +0.000 A 
ENDBRANCH  22  23
BRANCH  22  29
ATOM     29  C   UNL     1       1.915   7.424  19.277  0.00  0.00    +0.000 A 
ATOM     30  C   UNL     1       1.788   8.607  18.533  0.00  0.00    +0.000 A 
ATOM     31  C   UNL     1       1.229   9.756  19.099  0.00  0.00    +0.000 A 
ATOM     32  C   UNL     1       0.785   9.744  20.419  0.00  0.00    +0.000 A 
ATOM     33  C   UNL     1       0.893   8.578  21.173  0.00  0.00    +0.000 A 
ATOM     34  C   UNL     1       1.447   7.426  20.606  0.00  0.00    +0.000 A 
ENDBRANCH  22  29
ENDBRANCH  21  22
ENDBRANCH   4  21
TORSDOF 11
ENDMDL
MODEL 6
REMARK VINA RESULT:      -8.2      0.957      3.335
REMARK  Name = 
REMARK  11 active torsions:
REMARK  status: ('A' for Active; 'I' for Inactive)
REMARK    1  A    between atoms: C_2  and  O_3
REMARK    2  A    between atoms: C_2  and  C_28
REMARK    3  A    between atoms: O_3  and  C_4
REMARK    4  A    between atoms: C_4  and  C_5
REMARK    5  A    between atoms: C_5  and  C_6
REMARK    6  A    between atoms: C_6  and  C_7
REMARK    7  A    between atoms: C_7  and  N_8
REMARK    8  A    between atoms: C_11  and  O_12
REMARK    9  A    between atoms: O_12  and  C_13
REMARK   10  A    between atoms: C_13  and  C_14
REMARK   11  A    between atoms: C_13  and  C_20
REMARK                            x       y       z     vdW  Elec       q    Type
REMARK                         _______ _______ _______ _____ _____    ______ ____
ROOT
ATOM      1  N   UNL     1       7.144   6.419  17.426  0.00  0.00    +0.000 NA
ATOM      2  C   UNL     1       6.451   6.290  18.723  0.00  0.00    +0.000 C 
ATOM      3  C   UNL     1       5.823   4.913  18.927  0.00  0.00    +0.000 C 
ATOM      4  C   UNL     1       4.835   4.587  17.805  0.00  0.00    +0.000 C 
ATOM      5  C   UNL     1       5.611   4.662  16.492  0.00  0.00    +0.000 C 
ATOM      6  C   UNL     1       6.252   6.041  16.309  0.00  0.00    +0.000 C 
ENDROOT
BRANCH   1   7
ATOM      7  C   UNL     1       7.610   7.810  17.240  0.00  0.00    +0.000 C 
BRANCH   7   8
ATOM      8  C   UNL     1       8.416   8.384  18.421  0.00  0.00    +0.000 C 
BRANCH   8   9
ATOM      9  C   UNL     1       8.802   9.857  18.275  0.00  0.00    +0.000 C 
BRANCH   9  10
ATOM     10  C   UNL     1       9.162  10.489  19.615  0.00  0.00    +0.000 C 
BRANCH  10  11
ATOM     11  O   UNL     1      10.485  11.049  19.577  0.00  0.00    +0.000 OA
BRANCH  11  13
ATOM     12  O   UNL     1      11.019  11.406  17.375  0.00  0.00    +0.000 OA
ATOM     13  C   UNL     1      10.763  11.810  18.500  0.00  0.00    +0.000 C 
BRANCH  13  14
ATOM     14  C   UNL     1      10.743  13.251  18.855  0.00  0.00    +0.000 A 
ATOM     15  C   UNL     1      10.831  13.601  20.208  0.00  0.00    +0.000 A 
ATOM     16  C   UNL     1      10.799  14.941  20.604  0.00  0.00    +0.000 A 
ATOM     17  C   UNL     1      10.694  15.943  19.641  0.00  0.00    +0.000 A 
ATOM     18  C   UNL     1      10.617  15.604  18.290  0.00  0.00    +0.000 A 
ATOM     19 CL   UNL     1      10.505  16.847  17.107  0.00  0.00    +0.000 Cl
ATOM     20  C   UNL     1      10.637  14.264  17.888  0.00  0.00    +0.000 A 
ENDBRANCH  13  14
ENDBRANCH  11  13
ENDBRANCH  10  11
ENDBRANCH   9  10
ENDBRANCH   8   9
ENDBRANCH   7   8
ENDBRANCH   1   7
BRANCH   4  21
ATOM     21  O   UNL     1       3.740   5.518  17.878  0.00  0.00    +0.000 OA
BRANCH  21  22
ATOM     22  C   UNL     1       3.273   5.882  19.197  0.00  0.00    +0.000 C 
BRANCH  22  23
ATOM     23  C   UNL     1       2.457   7.164  19.132  0.00  0.00    +0.000 A 
ATOM     24  C   UNL     1       2.405   7.905  17.941  0.00  0.00    +0.000 A 
ATOM     25  C   UNL     1       1.799   9.159  17.914  0.00  0.00    +0.000 A 
ATOM     26  C   UNL     1       1.195   9.664  19.064  0.00  0.00    +0.000 A 
ATOM     27  C   UNL     1       1.159   8.899  20.228  0.00  0.00    +0.000 A 
ATOM     28  C   UNL     1       1.790   7.655  20.266  0.00  0.00    +0.000 A 
ENDBRANCH  22  23
BRANCH  22  29
ATOM     29  C   UNL     1       2.482   4.728  19.821  0.00  0.00    +0.000 A 
ATOM     30  C   UNL     1       2.728   4.277  21.127  0.00  0.00    +0.000 A 
ATOM     31  C   UNL     1       2.002   3.211  21.668  0.00  0.00    +0.000 A 
ATOM     32  C   UNL     1       1.017   2.579  20.914  0.00  0.00    +0.000 A 
ATOM     33  C   UNL     1       0.750   3.016  19.619  0.00  0.00    +0.000 A 
ATOM     34  C   UNL     1       1.472   4.085  19.079  0.00  0.00    +0.000 A 
ENDBRANCH  22  29
ENDBRANCH  21  22
ENDBRANCH   4  21
TORSDOF 11
ENDMDL
MODEL 7
REMARK VINA RESULT:      -8.2      1.032      3.342
REMARK  Name = 
REMARK  11 active torsions:
REMARK  status: ('A' for Active; 'I' for Inactive)
REMARK    1  A    between atoms: C_2  and  O_3
REMARK    2  A    between atoms: C_2  and  C_28
REMARK    3  A    between atoms: O_3  and  C_4
REMARK    4  A    between atoms: C_4  and  C_5
REMARK    5  A    between atoms: C_5  and  C_6
REMARK    6  A    between atoms: C_6  and  C_7
REMARK    7  A    between atoms: C_7  and  N_8
REMARK    8  A    between atoms: C_11  and  O_12
REMARK    9  A    between atoms: O_12  and  C_13
REMARK   10  A    between atoms: C_13  and  C_14
REMARK   11  A    between atoms: C_13  and  C_20
REMARK                            x       y       z     vdW  Elec       q    Type
REMARK                         _______ _______ _______ _____ _____    ______ ____
ROOT
ATOM      1  N   UNL     1       6.983   6.503  17.244  0.00  0.00    +0.000 NA
ATOM      2  C   UNL     1       6.325   6.173  18.523  0.00  0.00    +0.000 C 
ATOM      3  C   UNL     1       5.785   4.746  18.563  0.00  0.00    +0.000 C 
ATOM      4  C   UNL     1       4.795   4.500  17.422  0.00  0.00    +0.000 C 
ATOM      5  C   UNL     1       5.539   4.784  16.118  0.00  0.00    +0.000 C 
ATOM      6  C   UNL     1       6.093   6.212  16.100  0.00  0.00    +0.000 C 
ENDROOT
BRANCH   1   7
ATOM      7  C   UNL     1       7.362   7.933  17.226  0.00  0.00    +0.000 C 
BRANCH   7   8
ATOM      8  C   UNL     1       8.385   8.344  18.302  0.00  0.00    +0.000 C 
BRANCH   8   9
ATOM      9  C   UNL     1       8.742   9.831  18.311  0.00  0.00    +0.000 C 
BRANCH   9  10
ATOM     10  C   UNL     1       9.339  10.268  19.644  0.00  0.00    +0.000 C 
BRANCH  10  11
ATOM     11  O   UNL     1      10.084  11.487  19.495  0.00  0.00    +0.000 OA
BRANCH  11  13
ATOM     12  O   UNL     1       9.542  12.132  21.628  0.00  0.00    +0.000 OA
ATOM     13  C   UNL     1       9.961  12.371  20.505  0.00  0.00    +0.000 C 
BRANCH  13  14
ATOM     14  C   UNL     1      10.391  13.725  20.074  0.00  0.00    +0.000 A 
ATOM     15  C   UNL     1      10.667  14.678  21.062  0.00  0.00    +0.000 A 
ATOM     16  C   UNL     1      11.059  15.974  20.715  0.00  0.00    +0.000 A 
ATOM     17  C   UNL     1      11.191  16.319  19.371  0.00  0.00    +0.000 A 
ATOM     18  C   UNL     1      10.929  15.373  18.382  0.00  0.00    +0.000 A 
ATOM     19 CL   UNL     1      11.111  15.802  16.726  0.00  0.00    +0.000 Cl
ATOM     20  C   UNL     1      10.525  14.076  18.721  0.00  0.00    +0.000 A 
ENDBRANCH  13  14
ENDBRANCH  11  13
ENDBRANCH  10  11
ENDBRANCH   9  10
ENDBRANCH   8   9
ENDBRANCH   7   8
ENDBRANCH   1   7
BRANCH   4  21
ATOM     21  O   UNL     1       3.649   5.346  17.623  0.00  0.00    +0.000 OA
BRANCH  21  22
ATOM     22  C   UNL     1       3.353   5.741  18.982  0.00  0.00    +0.000 C 
BRANCH  22  23
ATOM     23  C   UNL     1       2.656   7.093  18.998  0.00  0.00    +0.000 A 
ATOM     24  C   UNL     1       1.985   7.524  20.154  0.00  0.00    +0.000 A 
ATOM     25  C   UNL     1       1.209   8.680  20.130  0.00  0.00    +0.000 A 
ATOM     26  C   UNL     1       1.132   9.443  18.967  0.00  0.00    +0.000 A 
ATOM     27  C   UNL     1       1.866   9.075  17.840  0.00  0.00    +0.000 A 
ATOM     28  C   UNL     1       2.623   7.903  17.852  0.00  0.00    +0.000 A 
ENDBRANCH  22  23
BRANCH  22  29
ATOM     29  C   UNL     1       2.528   4.659  19.686  0.00  0.00    +0.000 A 
ATOM     30  C   UNL     1       1.450   4.017  19.056  0.00  0.00    +0.000 A 
ATOM     31  C   UNL     1       0.703   3.044  19.726  0.00  0.00    +0.000 A 
ATOM     32  C   UNL     1       1.020   2.693  21.036  0.00  0.00    +0.000 A 
ATOM     33  C   UNL     1       2.092   3.310  21.676  0.00  0.00    +0.000 A 
ATOM     34  C   UNL     1       2.843   4.280  21.005  0.00  0.00    +0.000 A 
ENDBRANCH  22  29
ENDBRANCH  21  22
ENDBRANCH   4  21
TORSDOF 11
ENDMDL
MODEL 8
REMARK VINA RESULT:      -8.2      2.430      3.060
REMARK  Name = 
REMARK  11 active torsions:
REMARK  status: ('A' for Active; 'I' for Inactive)
REMARK    1  A    between atoms: C_2  and  O_3
REMARK    2  A    between atoms: C_2  and  C_28
REMARK    3  A    between atoms: O_3  and  C_4
REMARK    4  A    between atoms: C_4  and  C_5
REMARK    5  A    between atoms: C_5  and  C_6
REMARK    6  A    between atoms: C_6  and  C_7
REMARK    7  A    between atoms: C_7  and  N_8
REMARK    8  A    between atoms: C_11  and  O_12
REMARK    9  A    between atoms: O_12  and  C_13
REMARK   10  A    between atoms: C_13  and  C_14
REMARK   11  A    between atoms: C_13  and  C_20
REMARK                            x       y       z     vdW  Elec       q    Type
REMARK                         _______ _______ _______ _____ _____    ______ ____
ROOT
ATOM      1  N   UNL     1       7.848   7.123  18.021  0.00  0.00    +0.000 NA
ATOM      2  C   UNL     1       7.541   6.017  18.948  0.00  0.00    +0.000 C 
ATOM      3  C   UNL     1       6.805   4.862  18.272  0.00  0.00    +0.000 C 
ATOM      4  C   UNL     1       5.503   5.342  17.627  0.00  0.00    +0.000 C 
ATOM      5  C   UNL     1       5.877   6.433  16.626  0.00  0.00    +0.000 C 
ATOM      6  C   UNL     1       6.632   7.575  17.313  0.00  0.00    +0.000 C 
ENDROOT
BRANCH   1   7
ATOM      7  C   UNL     1       8.438   8.256  18.766  0.00  0.00    +0.000 C 
BRANCH   7   8
ATOM      8  C   UNL     1       8.454   9.593  18.000  0.00  0.00    +0.000 C 
BRANCH   8   9
ATOM      9  C   UNL     1       9.554  10.564  18.431  0.00  0.00    +0.000 C 
BRANCH   9  10
ATOM     10  C   UNL     1       9.019  11.670  19.335  0.00  0.00    +0.000 C 
BRANCH  10  11
ATOM     11  O   UNL     1       9.605  11.588  20.644  0.00  0.00    +0.000 OA
BRANCH  11  13
ATOM     12  O   UNL     1      10.304  13.647  21.375  0.00  0.00    +0.000 OA
ATOM     13  C   UNL     1       9.522  12.708  21.390  0.00  0.00    +0.000 C 
BRANCH  13  14
ATOM     14  C   UNL     1       8.335  12.659  22.280  0.00  0.00    +0.000 A 
ATOM     15  C   UNL     1       8.283  11.661  23.260  0.00  0.00    +0.000 A 
ATOM     16  C   UNL     1       7.182  11.555  24.116  0.00  0.00    +0.000 A 
ATOM     17  C   UNL     1       6.130  12.463  24.002  0.00  0.00    +0.000 A 
ATOM     18  C   UNL     1       6.179  13.466  23.035  0.00  0.00    +0.000 A 
ATOM     19 CL   UNL     1       4.884  14.592  22.913  0.00  0.00    +0.000 Cl
ATOM     20  C   UNL     1       7.273  13.571  22.168  0.00  0.00    +0.000 A 
ENDBRANCH  13  14
ENDBRANCH  11  13
ENDBRANCH  10  11
ENDBRANCH   9  10
ENDBRANCH   8   9
ENDBRANCH   7   8
ENDBRANCH   1   7
BRANCH   4  21
ATOM     21  O   UNL     1       4.620   5.798  18.668  0.00  0.00    +0.000 OA
BRANCH  21  22
ATOM     22  C   UNL     1       3.200   5.723  18.405  0.00  0.00    +0.000 C 
BRANCH  22  23
ATOM     23  C   UNL     1       2.577   4.581  19.194  0.00  0.00    +0.000 A 
ATOM     24  C   UNL     1       1.389   3.984  18.746  0.00  0.00    +0.000 A 
ATOM     25  C   UNL     1       0.723   3.052  19.540  0.00  0.00    +0.000 A 
ATOM     26  C   UNL     1       1.263   2.671  20.767  0.00  0.00    +0.000 A 
ATOM     27  C   UNL     1       2.489   3.189  21.181  0.00  0.00    +0.000 A 
ATOM     28  C   UNL     1       3.144   4.143  20.402  0.00  0.00    +0.000 A 
ENDBRANCH  22  23
BRANCH  22  29
ATOM     29  C   UNL     1       2.529   7.066  18.710  0.00  0.00    +0.000 A 
ATOM     30  C   UNL     1       2.030   7.378  19.985  0.00  0.00    +0.000 A 
ATOM     31  C   UNL     1       1.408   8.604  20.233  0.00  0.00    +0.000 A 
ATOM     32  C   UNL     1       1.274   9.543  19.213  0.00  0.00    +0.000 A 
ATOM     33  C   UNL     1       1.770   9.258  17.943  0.00  0.00    +0.000 A 
ATOM     34  C   UNL     1       2.397   8.034  17.695  0.00  0.00    +0.000 A 
ENDBRANCH  22  29
ENDBRANCH  21  22
ENDBRANCH   4  21
TORSDOF 11
ENDMDL
MODEL 9
REMARK VINA RESULT:      -8.0      5.342      8.830
REMARK  Name = 
REMARK  11 active torsions:
REMARK  status: ('A' for Active; 'I' for Inactive)
REMARK    1  A    between atoms: C_2  and  O_3
REMARK    2  A    between atoms: C_2  and  C_28
REMARK    3  A    between atoms: O_3  and  C_4
REMARK    4  A    between atoms: C_4  and  C_5
REMARK    5  A    between atoms: C_5  and  C_6
REMARK    6  A    between atoms: C_6  and  C_7
REMARK    7  A    between atoms: C_7  and  N_8
REMARK    8  A    between atoms: C_11  and  O_12
REMARK    9  A    between atoms: O_12  and  C_13
REMARK   10  A    between atoms: C_13  and  C_14
REMARK   11  A    between atoms: C_13  and  C_20
REMARK                            x       y       z     vdW  Elec       q    Type
REMARK                         _______ _______ _______ _____ _____    ______ ____
ROOT
ATOM      1  N   UNL     1       2.545   5.135  19.043  0.00  0.00    +0.000 NA
ATOM      2  C   UNL     1       2.029   4.753  17.715  0.00  0.00    +0.000 C 
ATOM      3  C   UNL     1       2.449   3.345  17.297  0.00  0.00    +0.000 C 
ATOM      4  C   UNL     1       3.973   3.204  17.294  0.00  0.00    +0.000 C 
ATOM      5  C   UNL     1       4.454   3.539  18.704  0.00  0.00    +0.000 C 
ATOM      6  C   UNL     1       4.008   4.945  19.118  0.00  0.00    +0.000 C 
ENDROOT
BRANCH   1   7
ATOM      7  C   UNL     1       2.214   6.549  19.325  0.00  0.00    +0.000 C 
BRANCH   7   8
ATOM      8  C   UNL     1       1.898   7.398  18.078  0.00  0.00    +0.000 C 
BRANCH   8   9
ATOM      9  C   UNL     1       2.614   8.749  18.028  0.00  0.00    +0.000 C 
BRANCH   9  10
ATOM     10  C   UNL     1       1.701   9.896  18.448  0.00  0.00    +0.000 C 
BRANCH  10  11
ATOM     11  O   UNL     1       0.877   9.511  19.561  0.00  0.00    +0.000 OA
BRANCH  11  13
ATOM     12  O   UNL     1       0.887  11.032  21.278  0.00  0.00    +0.000 OA
ATOM     13  C   UNL     1       0.374  10.527  20.291  0.00  0.00    +0.000 C 
BRANCH  13  14
ATOM     14  C   UNL     1      -0.936  10.965  19.747  0.00  0.00    +0.000 A 
ATOM     15  C   UNL     1      -1.413  10.345  18.587  0.00  0.00    +0.000 A 
ATOM     16  C   UNL     1      -2.631  10.728  18.019  0.00  0.00    +0.000 A 
ATOM     17  C   UNL     1      -3.389  11.730  18.623  0.00  0.00    +0.000 A 
ATOM     18  C   UNL     1      -2.926  12.346  19.785  0.00  0.00    +0.000 A 
ATOM     19 CL   UNL     1      -3.876  13.570  20.534  0.00  0.00    +0.000 Cl
ATOM     20  C   UNL     1      -1.702  11.975  20.353  0.00  0.00    +0.000 A 
ENDBRANCH  13  14
ENDBRANCH  11  13
ENDBRANCH  10  11
ENDBRANCH   9  10
ENDBRANCH   8   9
ENDBRANCH   7   8
ENDBRANCH   1   7
BRANCH   4  21
ATOM     21  O   UNL     1       4.509   4.076  16.283  0.00  0.00    +0.000 OA
BRANCH  21  22
ATOM     22  C   UNL     1       5.940   4.041  16.076  0.00  0.00    +0.000 C 
BRANCH  22  23
ATOM     23  C   UNL     1       6.261   4.167  14.594  0.00  0.00    +0.000 A 
ATOM     24  C   UNL     1       5.509   3.452  13.649  0.00  0.00    +0.000 A 
ATOM     25  C   UNL     1       5.893   3.431  12.310  0.00  0.00    +0.000 A 
ATOM     26  C   UNL     1       7.004   4.161  11.893  0.00  0.00    +0.000 A 
ATOM     27  C   UNL     1       7.706   4.947  12.806  0.00  0.00    +0.000 A 
ATOM     28  C   UNL     1       7.340   4.949  14.152  0.00  0.00    +0.000 A 
ENDBRANCH  22  23
BRANCH  22  29
ATOM     29  C   UNL     1       6.627   5.129  16.908  0.00  0.00    +0.000 A 
ATOM     30  C   UNL     1       6.415   6.496  16.668  0.00  0.00    +0.000 A 
ATOM     31  C   UNL     1       7.067   7.469  17.431  0.00  0.00    +0.000 A 
ATOM     32  C   UNL     1       7.940   7.094  18.449  0.00  0.00    +0.000 A 
ATOM     33  C   UNL     1       8.157   5.743  18.711  0.00  0.00    +0.000 A 
ATOM     34  C   UNL     1       7.502   4.769  17.951  0.00  0.00    +0.000 A 
ENDBRANCH  22  29
ENDBRANCH  21  22
ENDBRANCH   4  21
TORSDOF 11
ENDMDL
