MODEL 1
REMARK VINA RESULT:      -8.4      0.000      0.000
REMARK  Name = 
REMARK  4 active torsions:
REMARK  status: ('A' for Active; 'I' for Inactive)
REMARK    1  A    between atoms: C_2  and  C_3
REMARK    2  A    between atoms: N_5  and  C_6
REMARK    3  A    between atoms: C_11  and  N_12
REMARK    4  A    between atoms: C_13  and  C_15
REMARK                            x       y       z     vdW  Elec       q    Type
REMARK                         _______ _______ _______ _____ _____    ______ ____
ROOT
ATOM      1  C   UNL     1       6.484   4.989  15.541  0.00  0.00    +0.000 A 
ATOM      2  C   UNL     1       5.742   3.985  14.907  0.00  0.00    +0.000 A 
ATOM      3  C   UNL     1       4.573   3.497  15.491  0.00  0.00    +0.000 A 
ATOM      4  C   UNL     1       4.160   3.991  16.730  0.00  0.00    +0.000 A 
ATOM      5  C   UNL     1       4.876   5.034  17.340  0.00  0.00    +0.000 A 
ATOM      6  C   UNL     1       5.989   5.612  16.702  0.00  0.00    +0.000 A 
ATOM      7  C   UNL     1       4.557   5.323  18.748  0.00  0.00    +0.000 C 
ATOM      8  O   UNL     1       5.431   5.665  19.535  0.00  0.00    +0.000 OA
ATOM      9  C   UNL     1       3.213   5.035  19.247  0.00  0.00    +0.000 A 
ATOM     10  C   UNL     1       2.740   5.701  20.380  0.00  0.00    +0.000 A 
ATOM     11  C   UNL     1       1.546   5.290  20.963  0.00  0.00    +0.000 A 
ATOM     12  C   UNL     1       0.843   4.211  20.423  0.00  0.00    +0.000 A 
ATOM     13  C   UNL     1       1.299   3.578  19.260  0.00  0.00    +0.000 A 
ATOM     14  C   UNL     1       2.482   4.012  18.654  0.00  0.00    +0.000 A 
ATOM     15  C   UNL     1       2.977   3.397  17.405  0.00  0.00    +0.000 C 
ATOM     16  O   UNL     1       2.409   2.425  16.916  0.00  0.00    +0.000 OA
ENDROOT
BRANCH   1  19
ATOM     17  O   UNL     1       9.048   5.931  13.256  0.00  0.00    +0.000 OA
ATOM     18  C   UNL     1       7.958   5.458  13.592  0.00  0.00    +0.000 C 
ATOM     19  N   UNL     1       7.695   5.373  14.940  0.00  0.00    +0.000 N 
ATOM     20  H   UNL     1       8.303   6.005  15.455  0.00  0.00    +0.000 HD
BRANCH  18  21
ATOM     21  C   UNL     1       6.912   5.069  12.559  0.00  0.00    +0.000 C 
ATOM     22 CL   UNL     1       7.323   3.492  11.866  0.00  0.00    +0.000 Cl
ENDBRANCH  18  21
ENDBRANCH   1  19
BRANCH   6  23
ATOM     23  N   UNL     1       6.603   6.829  17.108  0.00  0.00    +0.000 N 
ATOM     24  C   UNL     1       7.692   6.964  17.964  0.00  0.00    +0.000 C 
ATOM     25  O   UNL     1       8.203   6.032  18.583  0.00  0.00    +0.000 OA
ATOM     26  H   UNL     1       6.096   7.697  16.966  0.00  0.00    +0.000 HD
BRANCH  24  27
ATOM     27  C   UNL     1       8.114   8.342  18.140  0.00  0.00    +0.000 A 
ATOM     28  C   UNL     1       7.810   9.486  17.430  0.00  0.00    +0.000 A 
ATOM     29  C   UNL     1       8.509  10.552  18.048  0.00  0.00    +0.000 A 
ATOM     30  C   UNL     1       9.207   9.990  19.094  0.00  0.00    +0.000 A 
ATOM     31  O   UNL     1       8.981   8.655  19.155  0.00  0.00    +0.000 OA
ENDBRANCH  24  27
ENDBRANCH   6  23
TORSDOF 4
ENDMDL
MODEL 2
REMARK VINA RESULT:      -8.0      6.427      8.543
REMARK  Name = 
REMARK  4 active torsions:
REMARK  status: ('A' for Active; 'I' for Inactive)
REMARK    1  A    between atoms: C_2  and  C_3
REMARK    2  A    between atoms: N_5  and  C_6
REMARK    3  A    between atoms: C_11  and  N_12
REMARK    4  A    between atoms: C_13  and  C_15
REMARK                            x       y       z     vdW  Elec       q    Type
REMARK                         _______ _______ _______ _____ _____    ______ ____
ROOT
ATOM      1  C   UNL     1      -0.036  10.630  21.008  0.00  0.00    +0.000 A 
ATOM      2  C   UNL     1      -0.303   9.546  21.852  0.00  0.00    +0.000 A 
ATOM      3  C   UNL     1       0.289   8.305  21.613  0.00  0.00    +0.000 A 
ATOM      4  C   UNL     1       1.126   8.138  20.508  0.00  0.00    +0.000 A 
ATOM      5  C   UNL     1       1.432   9.239  19.693  0.00  0.00    +0.000 A 
ATOM      6  C   UNL     1       0.933  10.520  19.995  0.00  0.00    +0.000 A 
ATOM      7  C   UNL     1       2.090   8.951  18.407  0.00  0.00    +0.000 C 
ATOM      8  O   UNL     1       1.834   9.609  17.406  0.00  0.00    +0.000 OA
ATOM      9  C   UNL     1       2.929   7.759  18.289  0.00  0.00    +0.000 A 
ATOM     10  C   UNL     1       3.907   7.700  17.293  0.00  0.00    +0.000 A 
ATOM     11  C   UNL     1       4.570   6.499  17.059  0.00  0.00    +0.000 A 
ATOM     12  C   UNL     1       4.239   5.365  17.805  0.00  0.00    +0.000 A 
ATOM     13  C   UNL     1       3.290   5.443  18.832  0.00  0.00    +0.000 A 
ATOM     14  C   UNL     1       2.648   6.658  19.091  0.00  0.00    +0.000 A 
ATOM     15  C   UNL     1       1.669   6.793  20.189  0.00  0.00    +0.000 C 
ATOM     16  O   UNL     1       1.325   5.815  20.846  0.00  0.00    +0.000 OA
ENDROOT
BRANCH   1  19
ATOM     17  O   UNL     1      -2.364  13.326  21.003  0.00  0.00    +0.000 OA
ATOM     18  C   UNL     1      -1.812  12.315  20.558  0.00  0.00    +0.000 C 
ATOM     19  N   UNL     1      -0.732  11.827  21.257  0.00  0.00    +0.000 N 
ATOM     20  H   UNL     1      -0.741  12.182  22.209  0.00  0.00    +0.000 HD
BRANCH  18  21
ATOM     21  C   UNL     1      -2.359  11.584  19.342  0.00  0.00    +0.000 C 
ATOM     22 CL   UNL     1      -1.576  12.204  17.879  0.00  0.00    +0.000 Cl
ENDBRANCH  18  21
ENDBRANCH   1  19
BRANCH   6  23
ATOM     23  N   UNL     1       1.399  11.724  19.395  0.00  0.00    +0.000 N 
ATOM     24  C   UNL     1       2.042  12.776  20.038  0.00  0.00    +0.000 C 
ATOM     25  O   UNL     1       2.193  12.852  21.256  0.00  0.00    +0.000 OA
ATOM     26  H   UNL     1       1.050  11.970  18.474  0.00  0.00    +0.000 HD
BRANCH  24  27
ATOM     27  C   UNL     1       2.438  13.841  19.134  0.00  0.00    +0.000 A 
ATOM     28  C   UNL     1       3.442  13.908  18.189  0.00  0.00    +0.000 A 
ATOM     29  C   UNL     1       3.368  15.196  17.603  0.00  0.00    +0.000 A 
ATOM     30  C   UNL     1       2.330  15.841  18.235  0.00  0.00    +0.000 A 
ATOM     31  O   UNL     1       1.764  15.035  19.167  0.00  0.00    +0.000 OA
ENDBRANCH  24  27
ENDBRANCH   6  23
TORSDOF 4
ENDMDL
MODEL 3
REMARK VINA RESULT:      -7.8     10.101     12.450
REMARK  Name = 
REMARK  4 active torsions:
REMARK  status: ('A' for Active; 'I' for Inactive)
REMARK    1  A    between atoms: C_2  and  C_3
REMARK    2  A    between atoms: N_5  and  C_6
REMARK    3  A    between atoms: C_11  and  N_12
REMARK    4  A    between atoms: C_13  and  C_15
REMARK                            x       y       z     vdW  Elec       q    Type
REMARK                         _______ _______ _______ _____ _____    ______ ____
ROOT
ATOM      1  C   UNL     1      -0.841  12.775  20.590  0.00  0.00    +0.000 A 
ATOM      2  C   UNL     1      -0.470  12.938  21.930  0.00  0.00    +0.000 A 
ATOM      3  C   UNL     1      -1.443  13.014  22.927  0.00  0.00    +0.000 A 
ATOM      4  C   UNL     1      -2.794  12.959  22.581  0.00  0.00    +0.000 A 
ATOM      5  C   UNL     1      -3.164  12.744  21.243  0.00  0.00    +0.000 A 
ATOM      6  C   UNL     1      -2.187  12.549  20.248  0.00  0.00    +0.000 A 
ATOM      7  C   UNL     1      -4.579  12.963  20.902  0.00  0.00    +0.000 C 
ATOM      8  O   UNL     1      -4.901  13.440  19.821  0.00  0.00    +0.000 OA
ATOM      9  C   UNL     1      -5.598  12.765  21.932  0.00  0.00    +0.000 A 
ATOM     10  C   UNL     1      -6.918  12.505  21.556  0.00  0.00    +0.000 A 
ATOM     11  C   UNL     1      -7.916  12.508  22.525  0.00  0.00    +0.000 A 
ATOM     12  C   UNL     1      -7.594  12.788  23.855  0.00  0.00    +0.000 A 
ATOM     13  C   UNL     1      -6.262  13.002  24.232  0.00  0.00    +0.000 A 
ATOM     14  C   UNL     1      -5.254  12.966  23.264  0.00  0.00    +0.000 A 
ATOM     15  C   UNL     1      -3.833  13.149  23.626  0.00  0.00    +0.000 C 
ATOM     16  O   UNL     1      -3.509  13.430  24.775  0.00  0.00    +0.000 OA
ENDROOT
BRANCH   1  19
ATOM     17  O   UNL     1       1.618  13.722  18.194  0.00  0.00    +0.000 OA
ATOM     18  C   UNL     1       0.621  13.879  18.905  0.00  0.00    +0.000 C 
ATOM     19  N   UNL     1       0.186  12.793  19.630  0.00  0.00    +0.000 N 
ATOM     20  H   UNL     1       0.933  12.110  19.720  0.00  0.00    +0.000 HD
BRANCH  18  21
ATOM     21  C   UNL     1      -0.044  15.239  19.047  0.00  0.00    +0.000 C 
ATOM     22 CL   UNL     1       0.845  16.210  20.232  0.00  0.00    +0.000 Cl
ENDBRANCH  18  21
ENDBRANCH   1  19
BRANCH   6  23
ATOM     23  N   UNL     1      -2.462  12.065  18.939  0.00  0.00    +0.000 N 
ATOM     24  C   UNL     1      -2.072  10.839  18.409  0.00  0.00    +0.000 C 
ATOM     25  O   UNL     1      -1.326  10.046  18.980  0.00  0.00    +0.000 OA
ATOM     26  H   UNL     1      -2.766  12.729  18.233  0.00  0.00    +0.000 HD
BRANCH  24  27
ATOM     27  C   UNL     1      -2.556  10.622  17.057  0.00  0.00    +0.000 A 
ATOM     28  C   UNL     1      -2.184   9.709  16.092  0.00  0.00    +0.000 A 
ATOM     29  C   UNL     1      -2.994   9.958  14.956  0.00  0.00    +0.000 A 
ATOM     30  C   UNL     1      -3.805  11.017  15.295  0.00  0.00    +0.000 A 
ATOM     31  O   UNL     1      -3.545  11.431  16.560  0.00  0.00    +0.000 OA
ENDBRANCH  24  27
ENDBRANCH   6  23
TORSDOF 4
ENDMDL
MODEL 4
REMARK VINA RESULT:      -7.8      3.612      6.030
REMARK  Name = 
REMARK  4 active torsions:
REMARK  status: ('A' for Active; 'I' for Inactive)
REMARK    1  A    between atoms: C_2  and  C_3
REMARK    2  A    between atoms: N_5  and  C_6
REMARK    3  A    between atoms: C_11  and  N_12
REMARK    4  A    between atoms: C_13  and  C_15
REMARK                            x       y       z     vdW  Elec       q    Type
REMARK                         _______ _______ _______ _____ _____    ______ ____
ROOT
ATOM      1  C   UNL     1       3.121   4.155  19.634  0.00  0.00    +0.000 A 
ATOM      2  C   UNL     1       2.218   4.207  20.702  0.00  0.00    +0.000 A 
ATOM      3  C   UNL     1       1.531   5.387  20.988  0.00  0.00    +0.000 A 
ATOM      4  C   UNL     1       1.772   6.531  20.223  0.00  0.00    +0.000 A 
ATOM      5  C   UNL     1       2.639   6.463  19.120  0.00  0.00    +0.000 A 
ATOM      6  C   UNL     1       3.245   5.246  18.754  0.00  0.00    +0.000 A 
ATOM      7  C   UNL     1       3.057   7.743  18.526  0.00  0.00    +0.000 C 
ATOM      8  O   UNL     1       4.188   7.892  18.079  0.00  0.00    +0.000 OA
ATOM      9  C   UNL     1       2.166   8.898  18.624  0.00  0.00    +0.000 A 
ATOM     10  C   UNL     1       2.293   9.947  17.709  0.00  0.00    +0.000 A 
ATOM     11  C   UNL     1       1.580  11.123  17.919  0.00  0.00    +0.000 A 
ATOM     12  C   UNL     1       0.762  11.250  19.044  0.00  0.00    +0.000 A 
ATOM     13  C   UNL     1       0.604  10.178  19.931  0.00  0.00    +0.000 A 
ATOM     14  C   UNL     1       1.294   8.983  19.703  0.00  0.00    +0.000 A 
ATOM     15  C   UNL     1       1.126   7.816  20.593  0.00  0.00    +0.000 C 
ATOM     16  O   UNL     1       0.444   7.895  21.610  0.00  0.00    +0.000 OA
ENDROOT
BRANCH   1  19
ATOM     17  O   UNL     1       4.352   1.013  18.494  0.00  0.00    +0.000 OA
ATOM     18  C   UNL     1       3.531   1.929  18.598  0.00  0.00    +0.000 C 
ATOM     19  N   UNL     1       3.841   2.960  19.455  0.00  0.00    +0.000 N 
ATOM     20  H   UNL     1       4.841   2.976  19.637  0.00  0.00    +0.000 HD
BRANCH  18  21
ATOM     21  C   UNL     1       2.273   1.965  17.745  0.00  0.00    +0.000 C 
ATOM     22 CL   UNL     1       0.846   1.902  18.794  0.00  0.00    +0.000 Cl
ENDBRANCH  18  21
ENDBRANCH   1  19
BRANCH   6  23
ATOM     23  N   UNL     1       3.912   5.023  17.518  0.00  0.00    +0.000 N 
ATOM     24  C   UNL     1       5.283   4.889  17.327  0.00  0.00    +0.000 C 
ATOM     25  O   UNL     1       6.123   5.064  18.207  0.00  0.00    +0.000 OA
ATOM     26  H   UNL     1       3.402   5.197  16.656  0.00  0.00    +0.000 HD
BRANCH  24  27
ATOM     27  C   UNL     1       5.644   4.617  15.947  0.00  0.00    +0.000 A 
ATOM     28  C   UNL     1       5.001   3.894  14.962  0.00  0.00    +0.000 A 
ATOM     29  C   UNL     1       5.816   3.963  13.804  0.00  0.00    +0.000 A 
ATOM     30  C   UNL     1       6.913   4.715  14.157  0.00  0.00    +0.000 A 
ATOM     31  O   UNL     1       6.824   5.111  15.451  0.00  0.00    +0.000 OA
ENDBRANCH  24  27
ENDBRANCH   6  23
TORSDOF 4
ENDMDL
MODEL 5
REMARK VINA RESULT:      -7.7      9.861     12.252
REMARK  Name = 
REMARK  4 active torsions:
REMARK  status: ('A' for Active; 'I' for Inactive)
REMARK    1  A    between atoms: C_2  and  C_3
REMARK    2  A    between atoms: N_5  and  C_6
REMARK    3  A    between atoms: C_11  and  N_12
REMARK    4  A    between atoms: C_13  and  C_15
REMARK                            x       y       z     vdW  Elec       q    Type
REMARK                         _______ _______ _______ _____ _____    ______ ____
ROOT
ATOM      1  C   UNL     1      -1.040  13.514  20.382  0.00  0.00    +0.000 A 
ATOM      2  C   UNL     1      -0.702  13.831  21.703  0.00  0.00    +0.000 A 
ATOM      3  C   UNL     1      -1.668  13.776  22.709  0.00  0.00    +0.000 A 
ATOM      4  C   UNL     1      -2.983  13.435  22.388  0.00  0.00    +0.000 A 
ATOM      5  C   UNL     1      -3.308  13.068  21.072  0.00  0.00    +0.000 A 
ATOM      6  C   UNL     1      -2.315  13.007  20.075  0.00  0.00    +0.000 A 
ATOM      7  C   UNL     1      -4.740  12.983  20.741  0.00  0.00    +0.000 C 
ATOM      8  O   UNL     1      -5.154  13.319  19.638  0.00  0.00    +0.000 OA
ATOM      9  C   UNL     1      -5.696  12.654  21.797  0.00  0.00    +0.000 A 
ATOM     10  C   UNL     1      -6.940  12.116  21.458  0.00  0.00    +0.000 A 
ATOM     11  C   UNL     1      -7.916  11.984  22.441  0.00  0.00    +0.000 A 
ATOM     12  C   UNL     1      -7.650  12.404  23.746  0.00  0.00    +0.000 A 
ATOM     13  C   UNL     1      -6.386  12.899  24.089  0.00  0.00    +0.000 A 
ATOM     14  C   UNL     1      -5.393  13.001  23.109  0.00  0.00    +0.000 A 
ATOM     15  C   UNL     1      -4.035  13.482  23.436  0.00  0.00    +0.000 C 
ATOM     16  O   UNL     1      -3.769  13.893  24.561  0.00  0.00    +0.000 OA
ENDROOT
BRANCH   1  19
ATOM     17  O   UNL     1       1.686  13.051  18.135  0.00  0.00    +0.000 OA
ATOM     18  C   UNL     1       0.974  12.791  19.110  0.00  0.00    +0.000 C 
ATOM     19  N   UNL     1      -0.040  13.673  19.405  0.00  0.00    +0.000 N 
ATOM     20  H   UNL     1      -0.255  14.243  18.592  0.00  0.00    +0.000 HD
BRANCH  18  21
ATOM     21  C   UNL     1       1.150  11.501  19.897  0.00  0.00    +0.000 C 
ATOM     22 CL   UNL     1       1.373  10.150  18.774  0.00  0.00    +0.000 Cl
ENDBRANCH  18  21
ENDBRANCH   1  19
BRANCH   6  23
ATOM     23  N   UNL     1      -2.494  12.397  18.803  0.00  0.00    +0.000 N 
ATOM     24  C   UNL     1      -2.307  11.054  18.492  0.00  0.00    +0.000 C 
ATOM     25  O   UNL     1      -1.842  10.224  19.271  0.00  0.00    +0.000 OA
ATOM     26  H   UNL     1      -2.540  12.996  17.983  0.00  0.00    +0.000 HD
BRANCH  24  27
ATOM     27  C   UNL     1      -2.623  10.738  17.111  0.00  0.00    +0.000 A 
ATOM     28  C   UNL     1      -2.148   9.751  16.270  0.00  0.00    +0.000 A 
ATOM     29  C   UNL     1      -2.808   9.918  15.027  0.00  0.00    +0.000 A 
ATOM     30  C   UNL     1      -3.637  11.006  15.182  0.00  0.00    +0.000 A 
ATOM     31  O   UNL     1      -3.530  11.513  16.435  0.00  0.00    +0.000 OA
ENDBRANCH  24  27
ENDBRANCH   6  23
TORSDOF 4
ENDMDL
MODEL 6
REMARK VINA RESULT:      -7.7      9.231     11.412
REMARK  Name = 
REMARK  4 active torsions:
REMARK  status: ('A' for Active; 'I' for Inactive)
REMARK    1  A    between atoms: C_2  and  C_3
REMARK    2  A    between atoms: N_5  and  C_6
REMARK    3  A    between atoms: C_11  and  N_12
REMARK    4  A    between atoms: C_13  and  C_15
REMARK                            x       y       z     vdW  Elec       q    Type
REMARK                         _______ _______ _______ _____ _____    ______ ____
ROOT
ATOM      1  C   UNL     1      -1.727  13.361  22.061  0.00  0.00    +0.000 A 
ATOM      2  C   UNL     1      -1.755  12.402  23.080  0.00  0.00    +0.000 A 
ATOM      3  C   UNL     1      -1.129  11.167  22.902  0.00  0.00    +0.000 A 
ATOM      4  C   UNL     1      -0.502  10.877  21.689  0.00  0.00    +0.000 A 
ATOM      5  C   UNL     1      -0.430  11.860  20.688  0.00  0.00    +0.000 A 
ATOM      6  C   UNL     1      -0.956  13.148  20.905  0.00  0.00    +0.000 A 
ATOM      7  C   UNL     1      -0.002  11.415  19.352  0.00  0.00    +0.000 C 
ATOM      8  O   UNL     1      -0.485  11.907  18.338  0.00  0.00    +0.000 OA
ATOM      9  C   UNL     1       0.883  10.258  19.236  0.00  0.00    +0.000 A 
ATOM     10  C   UNL     1       1.663  10.097  18.088  0.00  0.00    +0.000 A 
ATOM     11  C   UNL     1       2.356   8.906  17.896  0.00  0.00    +0.000 A 
ATOM     12  C   UNL     1       2.251   7.880  18.838  0.00  0.00    +0.000 A 
ATOM     13  C   UNL     1       1.504   8.065  20.008  0.00  0.00    +0.000 A 
ATOM     14  C   UNL     1       0.835   9.275  20.219  0.00  0.00    +0.000 A 
ATOM     15  C   UNL     1       0.069   9.526  21.457  0.00  0.00    +0.000 C 
ATOM     16  O   UNL     1      -0.077   8.641  22.294  0.00  0.00    +0.000 OA
ENDROOT
BRANCH   1  19
ATOM     17  O   UNL     1      -4.238  15.881  22.240  0.00  0.00    +0.000 OA
ATOM     18  C   UNL     1      -3.728  14.826  21.851  0.00  0.00    +0.000 C 
ATOM     19  N   UNL     1      -2.449  14.549  22.275  0.00  0.00    +0.000 N 
ATOM     20  H   UNL     1      -2.227  15.098  23.101  0.00  0.00    +0.000 HD
BRANCH  18  21
ATOM     21  C   UNL     1      -4.514  13.828  21.015  0.00  0.00    +0.000 C 
ATOM     22 CL   UNL     1      -5.390  12.721  22.084  0.00  0.00    +0.000 Cl
ENDBRANCH  18  21
ENDBRANCH   1  19
BRANCH   6  23
ATOM     23  N   UNL     1      -0.697  14.270  20.069  0.00  0.00    +0.000 N 
ATOM     24  C   UNL     1       0.430  15.085  20.101  0.00  0.00    +0.000 C 
ATOM     25  O   UNL     1       1.314  15.008  20.952  0.00  0.00    +0.000 OA
ATOM     26  H   UNL     1      -1.471  14.675  19.551  0.00  0.00    +0.000 HD
BRANCH  24  27
ATOM     27  C   UNL     1       0.417  16.118  19.080  0.00  0.00    +0.000 A 
ATOM     28  C   UNL     1       1.444  16.784  18.444  0.00  0.00    +0.000 A 
ATOM     29  C   UNL     1       0.845  17.693  17.537  0.00  0.00    +0.000 A 
ATOM     30  C   UNL     1      -0.514  17.535  17.684  0.00  0.00    +0.000 A 
ATOM     31  O   UNL     1      -0.786  16.590  18.619  0.00  0.00    +0.000 OA
ENDBRANCH  24  27
ENDBRANCH   6  23
TORSDOF 4
ENDMDL
MODEL 7
REMARK VINA RESULT:      -7.6      9.309     11.483
REMARK  Name = 
REMARK  4 active torsions:
REMARK  status: ('A' for Active; 'I' for Inactive)
REMARK    1  A    between atoms: C_2  and  C_3
REMARK    2  A    between atoms: N_5  and  C_6
REMARK    3  A    between atoms: C_11  and  N_12
REMARK    4  A    between atoms: C_13  and  C_15
REMARK                            x       y       z     vdW  Elec       q    Type
REMARK                         _______ _______ _______ _____ _____    ______ ____
ROOT
ATOM      1  C   UNL     1      -1.781  13.248  22.094  0.00  0.00    +0.000 A 
ATOM      2  C   UNL     1      -1.802  12.266  23.091  0.00  0.00    +0.000 A 
ATOM      3  C   UNL     1      -1.161  11.043  22.889  0.00  0.00    +0.000 A 
ATOM      4  C   UNL     1      -0.526  10.787  21.672  0.00  0.00    +0.000 A 
ATOM      5  C   UNL     1      -0.462  11.791  20.693  0.00  0.00    +0.000 A 
ATOM      6  C   UNL     1      -1.004  13.068  20.935  0.00  0.00    +0.000 A 
ATOM      7  C   UNL     1      -0.025  11.381  19.349  0.00  0.00    +0.000 C 
ATOM      8  O   UNL     1      -0.509  11.889  18.345  0.00  0.00    +0.000 OA
ATOM      9  C   UNL     1       0.875  10.236  19.212  0.00  0.00    +0.000 A 
ATOM     10  C   UNL     1       1.661  10.110  18.064  0.00  0.00    +0.000 A 
ATOM     11  C   UNL     1       2.368   8.931  17.849  0.00  0.00    +0.000 A 
ATOM     12  C   UNL     1       2.272   7.884  18.768  0.00  0.00    +0.000 A 
ATOM     13  C   UNL     1       1.519   8.035  19.939  0.00  0.00    +0.000 A 
ATOM     14  C   UNL     1       0.835   9.233  20.174  0.00  0.00    +0.000 A 
ATOM     15  C   UNL     1       0.061   9.447  21.414  0.00  0.00    +0.000 C 
ATOM     16  O   UNL     1      -0.077   8.543  22.231  0.00  0.00    +0.000 OA
ENDROOT
BRANCH   1  19
ATOM     17  O   UNL     1      -2.890  16.466  23.143  0.00  0.00    +0.000 OA
ATOM     18  C   UNL     1      -2.170  15.463  23.159  0.00  0.00    +0.000 C 
ATOM     19  N   UNL     1      -2.518  14.422  22.330  0.00  0.00    +0.000 N 
ATOM     20  H   UNL     1      -3.134  14.754  21.592  0.00  0.00    +0.000 HD
BRANCH  18  21
ATOM     21  C   UNL     1      -0.898  15.415  23.992  0.00  0.00    +0.000 C 
ATOM     22 CL   UNL     1      -1.309  15.562  25.708  0.00  0.00    +0.000 Cl
ENDBRANCH  18  21
ENDBRANCH   1  19
BRANCH   6  23
ATOM     23  N   UNL     1      -0.755  14.211  20.125  0.00  0.00    +0.000 N 
ATOM     24  C   UNL     1       0.362  15.039  20.179  0.00  0.00    +0.000 C 
ATOM     25  O   UNL     1       1.244  14.953  21.032  0.00  0.00    +0.000 OA
ATOM     26  H   UNL     1      -1.532  14.618  19.613  0.00  0.00    +0.000 HD
BRANCH  24  27
ATOM     27  C   UNL     1       0.340  16.093  19.181  0.00  0.00    +0.000 A 
ATOM     28  C   UNL     1      -0.708  16.709  18.529  0.00  0.00    +0.000 A 
ATOM     29  C   UNL     1      -0.141  17.669  17.654  0.00  0.00    +0.000 A 
ATOM     30  C   UNL     1       1.222  17.571  17.818  0.00  0.00    +0.000 A 
ATOM     31  O   UNL     1       1.526  16.618  18.733  0.00  0.00    +0.000 OA
ENDBRANCH  24  27
ENDBRANCH   6  23
TORSDOF 4
ENDMDL
MODEL 8
REMARK VINA RESULT:      -7.5     10.878     13.342
REMARK  Name = 
REMARK  4 active torsions:
REMARK  status: ('A' for Active; 'I' for Inactive)
REMARK    1  A    between atoms: C_2  and  C_3
REMARK    2  A    between atoms: N_5  and  C_6
REMARK    3  A    between atoms: C_11  and  N_12
REMARK    4  A    between atoms: C_13  and  C_15
REMARK                            x       y       z     vdW  Elec       q    Type
REMARK                         _______ _______ _______ _____ _____    ______ ____
ROOT
ATOM      1  C   UNL     1      -5.399  13.293  20.069  0.00  0.00    +0.000 A 
ATOM      2  C   UNL     1      -5.951  12.411  19.133  0.00  0.00    +0.000 A 
ATOM      3  C   UNL     1      -5.136  11.506  18.451  0.00  0.00    +0.000 A 
ATOM      4  C   UNL     1      -3.759  11.505  18.681  0.00  0.00    +0.000 A 
ATOM      5  C   UNL     1      -3.215  12.354  19.659  0.00  0.00    +0.000 A 
ATOM      6  C   UNL     1      -4.045  13.186  20.434  0.00  0.00    +0.000 A 
ATOM      7  C   UNL     1      -1.750  12.502  19.667  0.00  0.00    +0.000 C 
ATOM      8  O   UNL     1      -1.226  13.575  19.939  0.00  0.00    +0.000 OA
ATOM      9  C   UNL     1      -0.921  11.400  19.182  0.00  0.00    +0.000 A 
ATOM     10  C   UNL     1       0.411  11.304  19.595  0.00  0.00    +0.000 A 
ATOM     11  C   UNL     1       1.247  10.374  18.987  0.00  0.00    +0.000 A 
ATOM     12  C   UNL     1       0.756   9.561  17.962  0.00  0.00    +0.000 A 
ATOM     13  C   UNL     1      -0.591   9.630  17.586  0.00  0.00    +0.000 A 
ATOM     14  C   UNL     1      -1.441  10.542  18.220  0.00  0.00    +0.000 A 
ATOM     15  C   UNL     1      -2.877  10.620  17.879  0.00  0.00    +0.000 C 
ATOM     16  O   UNL     1      -3.342   9.949  16.963  0.00  0.00    +0.000 OA
ENDROOT
BRANCH   1  19
ATOM     17  O   UNL     1      -7.693  15.017  22.180  0.00  0.00    +0.000 OA
ATOM     18  C   UNL     1      -7.097  14.032  21.733  0.00  0.00    +0.000 C 
ATOM     19  N   UNL     1      -6.264  14.234  20.656  0.00  0.00    +0.000 N 
ATOM     20  H   UNL     1      -6.015  15.217  20.585  0.00  0.00    +0.000 HD
BRANCH  18  21
ATOM     21  C   UNL     1      -7.205  12.670  22.400  0.00  0.00    +0.000 C 
ATOM     22 CL   UNL     1      -7.117  12.865  24.158  0.00  0.00    +0.000 Cl
ENDBRANCH  18  21
ENDBRANCH   1  19
BRANCH   6  23
ATOM     23  N   UNL     1      -3.623  13.869  21.608  0.00  0.00    +0.000 N 
ATOM     24  C   UNL     1      -3.484  13.323  22.880  0.00  0.00    +0.000 C 
ATOM     25  O   UNL     1      -3.826  12.181  23.183  0.00  0.00    +0.000 OA
ATOM     26  H   UNL     1      -3.634  14.884  21.607  0.00  0.00    +0.000 HD
BRANCH  24  27
ATOM     27  C   UNL     1      -2.983  14.272  23.858  0.00  0.00    +0.000 A 
ATOM     28  C   UNL     1      -1.697  14.580  24.254  0.00  0.00    +0.000 A 
ATOM     29  C   UNL     1      -1.803  15.584  25.248  0.00  0.00    +0.000 A 
ATOM     30  C   UNL     1      -3.149  15.821  25.406  0.00  0.00    +0.000 A 
ATOM     31  O   UNL     1      -3.873  15.030  24.576  0.00  0.00    +0.000 OA
ENDBRANCH  24  27
ENDBRANCH   6  23
TORSDOF 4
ENDMDL
MODEL 9
REMARK VINA RESULT:      -7.5      8.746     10.948
REMARK  Name = 
REMARK  4 active torsions:
REMARK  status: ('A' for Active; 'I' for Inactive)
REMARK    1  A    between atoms: C_2  and  C_3
REMARK    2  A    between atoms: N_5  and  C_6
REMARK    3  A    between atoms: C_11  and  N_12
REMARK    4  A    between atoms: C_13  and  C_15
REMARK                            x       y       z     vdW  Elec       q    Type
REMARK                         _______ _______ _______ _____ _____    ______ ____
ROOT
ATOM      1  C   UNL     1       0.014  13.458  21.014  0.00  0.00    +0.000 A 
ATOM      2  C   UNL     1      -0.715  14.314  21.848  0.00  0.00    +0.000 A 
ATOM      3  C   UNL     1      -2.108  14.352  21.774  0.00  0.00    +0.000 A 
ATOM      4  C   UNL     1      -2.774  13.555  20.841  0.00  0.00    +0.000 A 
ATOM      5  C   UNL     1      -2.044  12.660  20.042  0.00  0.00    +0.000 A 
ATOM      6  C   UNL     1      -0.651  12.531  20.192  0.00  0.00    +0.000 A 
ATOM      7  C   UNL     1      -2.758  12.052  18.906  0.00  0.00    +0.000 C 
ATOM      8  O   UNL     1      -2.185  11.832  17.846  0.00  0.00    +0.000 OA
ATOM      9  C   UNL     1      -4.206  11.867  18.992  0.00  0.00    +0.000 A 
ATOM     10  C   UNL     1      -4.828  10.910  18.187  0.00  0.00    +0.000 A 
ATOM     11  C   UNL     1      -6.218  10.868  18.129  0.00  0.00    +0.000 A 
ATOM     12  C   UNL     1      -6.973  11.790  18.857  0.00  0.00    +0.000 A 
ATOM     13  C   UNL     1      -6.343  12.717  19.697  0.00  0.00    +0.000 A 
ATOM     14  C   UNL     1      -4.948  12.738  19.783  0.00  0.00    +0.000 A 
ATOM     15  C   UNL     1      -4.246  13.674  20.686  0.00  0.00    +0.000 C 
ATOM     16  O   UNL     1      -4.868  14.522  21.317  0.00  0.00    +0.000 OA
ENDROOT
BRANCH   1  19
ATOM     17  O   UNL     1       3.446  14.289  20.542  0.00  0.00    +0.000 OA
ATOM     18  C   UNL     1       2.247  14.251  20.250  0.00  0.00    +0.000 C 
ATOM     19  N   UNL     1       1.417  13.533  21.081  0.00  0.00    +0.000 N 
ATOM     20  H   UNL     1       1.857  13.402  21.988  0.00  0.00    +0.000 HD
BRANCH  18  21
ATOM     21  C   UNL     1       1.693  15.042  19.075  0.00  0.00    +0.000 C 
ATOM     22 CL   UNL     1       2.977  15.308  17.885  0.00  0.00    +0.000 Cl
ENDBRANCH  18  21
ENDBRANCH   1  19
BRANCH   6  23
ATOM     23  N   UNL     1       0.122  11.478  19.628  0.00  0.00    +0.000 N 
ATOM     24  C   UNL     1       0.335  10.218  20.178  0.00  0.00    +0.000 C 
ATOM     25  O   UNL     1      -0.032   9.885  21.303  0.00  0.00    +0.000 OA
ATOM     26  H   UNL     1       0.769  11.702  18.878  0.00  0.00    +0.000 HD
BRANCH  24  27
ATOM     27  C   UNL     1       1.130   9.350  19.328  0.00  0.00    +0.000 A 
ATOM     28  C   UNL     1       1.456   9.435  17.990  0.00  0.00    +0.000 A 
ATOM     29  C   UNL     1       2.258   8.305  17.690  0.00  0.00    +0.000 A 
ATOM     30  C   UNL     1       2.363   7.594  18.863  0.00  0.00    +0.000 A 
ATOM     31  O   UNL     1       1.680   8.211  19.859  0.00  0.00    +0.000 OA
ENDBRANCH  24  27
ENDBRANCH   6  23
TORSDOF 4
ENDMDL
