MODEL 1
REMARK VINA RESULT:      -7.5      0.000      0.000
REMARK  Name = 
REMARK  5 active torsions:
REMARK  status: ('A' for Active; 'I' for Inactive)
REMARK    1  A    between atoms: C_1  and  N_2
REMARK    2  A    between atoms: C_5  and  C_6
REMARK    3  A    between atoms: N_8  and  C_9
REMARK    4  A    between atoms: C_9  and  C_10
REMARK    5  A    between atoms: C_10  and  C_11
REMARK                            x       y       z     vdW  Elec       q    Type
REMARK                         _______ _______ _______ _____ _____    ______ ____
ROOT
ATOM      1  C   UNL     1       0.904   3.701  20.355  0.00  0.00    +0.000 C 
ATOM      2  N   UNL     1       1.729   4.649  19.627  0.00  0.00    +0.000 N 
ATOM      3  C   UNL     1       2.392   5.699  20.372  0.00  0.00    +0.000 C 
ATOM      4  C   UNL     1       2.128   6.975  19.672  0.00  0.00    +0.000 A 
ATOM      5  C   UNL     1       1.394   8.100  20.016  0.00  0.00    +0.000 A 
ATOM      6  N   UNL     1       1.596   9.098  19.072  0.00  0.00    +0.000 NA
ATOM      7  C   UNL     1       2.392   8.567  18.168  0.00  0.00    +0.000 A 
ATOM      8  N   UNL     1       2.697   7.256  18.449  0.00  0.00    +0.000 N 
ATOM      9  C   UNL     1       3.497   6.367  17.696  0.00  0.00    +0.000 A 
ATOM     10  C   UNL     1       4.619   6.867  17.012  0.00  0.00    +0.000 A 
ATOM     11  C   UNL     1       5.497   5.980  16.385  0.00  0.00    +0.000 A 
ATOM     12  C   UNL     1       5.229   4.615  16.392  0.00  0.00    +0.000 A 
ATOM     13  F   UNL     1       6.088   3.769  15.810  0.00  0.00    +0.000 F 
ATOM     14  C   UNL     1       4.094   4.116  17.009  0.00  0.00    +0.000 A 
ATOM     15  C   UNL     1       3.229   4.984  17.687  0.00  0.00    +0.000 A 
ATOM     16  C   UNL     1       2.053   4.324  18.316  0.00  0.00    +0.000 C 
ATOM     17  O   UNL     1       1.467   3.456  17.677  0.00  0.00    +0.000 OA
ENDROOT
BRANCH   5  18
ATOM     18  C   UNL     1       0.539   8.273  21.194  0.00  0.00    +0.000 C 
ATOM     19  O   UNL     1      -0.461   7.595  21.401  0.00  0.00    +0.000 OA
ATOM     20  N   UNL     1       0.969   9.272  22.037  0.00  0.00    +0.000 N 
ATOM     21  H   UNL     1       1.891   9.649  21.833  0.00  0.00    +0.000 HD
BRANCH  20  22
ATOM     22  C   UNL     1       0.312   9.562  23.294  0.00  0.00    +0.000 C 
BRANCH  22  23
ATOM     23  C   UNL     1      -0.898  10.466  23.089  0.00  0.00    +0.000 C 
BRANCH  23  24
ATOM     24  C   UNL     1      -0.570  11.620  22.160  0.00  0.00    +0.000 C 
ATOM     25  F   UNL     1      -1.274  11.477  21.006  0.00  0.00    +0.000 F 
ENDBRANCH  23  24
ENDBRANCH  22  23
ENDBRANCH  20  22
ENDBRANCH   5  18
TORSDOF 4
ENDMDL
MODEL 2
REMARK VINA RESULT:      -7.2      3.205      8.021
REMARK  Name = 
REMARK  5 active torsions:
REMARK  status: ('A' for Active; 'I' for Inactive)
REMARK    1  A    between atoms: C_1  and  N_2
REMARK    2  A    between atoms: C_5  and  C_6
REMARK    3  A    between atoms: N_8  and  C_9
REMARK    4  A    between atoms: C_9  and  C_10
REMARK    5  A    between atoms: C_10  and  C_11
REMARK                            x       y       z     vdW  Elec       q    Type
REMARK                         _______ _______ _______ _____ _____    ______ ____
ROOT
ATOM      1  C   UNL     1       3.453   1.831  18.413  0.00  0.00    +0.000 C 
ATOM      2  N   UNL     1       3.430   3.282  18.344  0.00  0.00    +0.000 N 
ATOM      3  C   UNL     1       3.228   3.906  17.053  0.00  0.00    +0.000 C 
ATOM      4  C   UNL     1       4.264   4.951  16.898  0.00  0.00    +0.000 A 
ATOM      5  C   UNL     1       5.355   5.073  16.050  0.00  0.00    +0.000 A 
ATOM      6  N   UNL     1       5.926   6.330  16.198  0.00  0.00    +0.000 NA
ATOM      7  C   UNL     1       5.222   6.923  17.139  0.00  0.00    +0.000 A 
ATOM      8  N   UNL     1       4.238   6.107  17.646  0.00  0.00    +0.000 N 
ATOM      9  C   UNL     1       3.313   6.394  18.675  0.00  0.00    +0.000 A 
ATOM     10  C   UNL     1       2.808   7.700  18.798  0.00  0.00    +0.000 A 
ATOM     11  C   UNL     1       1.788   7.961  19.717  0.00  0.00    +0.000 A 
ATOM     12  C   UNL     1       1.318   6.946  20.542  0.00  0.00    +0.000 A 
ATOM     13  F   UNL     1       0.324   7.199  21.402  0.00  0.00    +0.000 F 
ATOM     14  C   UNL     1       1.851   5.669  20.474  0.00  0.00    +0.000 A 
ATOM     15  C   UNL     1       2.838   5.375  19.525  0.00  0.00    +0.000 A 
ATOM     16  C   UNL     1       3.322   3.969  19.547  0.00  0.00    +0.000 C 
ATOM     17  O   UNL     1       3.525   3.444  20.637  0.00  0.00    +0.000 OA
ENDROOT
BRANCH   5  18
ATOM     18  C   UNL     1       5.858   4.071  15.106  0.00  0.00    +0.000 C 
ATOM     19  O   UNL     1       5.990   2.887  15.393  0.00  0.00    +0.000 OA
ATOM     20  N   UNL     1       6.171   4.594  13.872  0.00  0.00    +0.000 N 
ATOM     21  H   UNL     1       5.872   5.553  13.716  0.00  0.00    +0.000 HD
BRANCH  20  22
ATOM     22  C   UNL     1       6.618   3.768  12.770  0.00  0.00    +0.000 C 
BRANCH  22  23
ATOM     23  C   UNL     1       5.438   3.221  11.975  0.00  0.00    +0.000 C 
BRANCH  23  24
ATOM     24  C   UNL     1       5.722   1.819  11.468  0.00  0.00    +0.000 C 
ATOM     25  F   UNL     1       7.025   1.735  11.093  0.00  0.00    +0.000 F 
ENDBRANCH  23  24
ENDBRANCH  22  23
ENDBRANCH  20  22
ENDBRANCH   5  18
TORSDOF 4
ENDMDL
MODEL 3
REMARK VINA RESULT:      -7.0      1.085      1.169
REMARK  Name = 
REMARK  5 active torsions:
REMARK  status: ('A' for Active; 'I' for Inactive)
REMARK    1  A    between atoms: C_1  and  N_2
REMARK    2  A    between atoms: C_5  and  C_6
REMARK    3  A    between atoms: N_8  and  C_9
REMARK    4  A    between atoms: C_9  and  C_10
REMARK    5  A    between atoms: C_10  and  C_11
REMARK                            x       y       z     vdW  Elec       q    Type
REMARK                         _______ _______ _______ _____ _____    ______ ____
ROOT
ATOM      1  C   UNL     1       1.870   3.241  19.945  0.00  0.00    +0.000 C 
ATOM      2  N   UNL     1       2.596   4.215  19.146  0.00  0.00    +0.000 N 
ATOM      3  C   UNL     1       3.265   5.303  19.828  0.00  0.00    +0.000 C 
ATOM      4  C   UNL     1       2.893   6.556  19.136  0.00  0.00    +0.000 A 
ATOM      5  C   UNL     1       2.137   7.653  19.522  0.00  0.00    +0.000 A 
ATOM      6  N   UNL     1       2.223   8.645  18.555  0.00  0.00    +0.000 NA
ATOM      7  C   UNL     1       2.973   8.137  17.600  0.00  0.00    +0.000 A 
ATOM      8  N   UNL     1       3.356   6.845  17.871  0.00  0.00    +0.000 N 
ATOM      9  C   UNL     1       4.136   5.981  17.070  0.00  0.00    +0.000 A 
ATOM     10  C   UNL     1       5.180   6.520  16.298  0.00  0.00    +0.000 A 
ATOM     11  C   UNL     1       6.048   5.663  15.615  0.00  0.00    +0.000 A 
ATOM     12  C   UNL     1       5.842   4.288  15.657  0.00  0.00    +0.000 A 
ATOM     13  F   UNL     1       6.692   3.473  15.022  0.00  0.00    +0.000 F 
ATOM     14  C   UNL     1       4.780   3.748  16.364  0.00  0.00    +0.000 A 
ATOM     15  C   UNL     1       3.930   4.587  17.096  0.00  0.00    +0.000 A 
ATOM     16  C   UNL     1       2.835   3.886  17.818  0.00  0.00    +0.000 C 
ATOM     17  O   UNL     1       2.242   2.984  17.234  0.00  0.00    +0.000 OA
ENDROOT
BRANCH   5  18
ATOM     18  C   UNL     1       1.366   7.804  20.760  0.00  0.00    +0.000 C 
ATOM     19  O   UNL     1       0.951   6.853  21.411  0.00  0.00    +0.000 OA
ATOM     20  N   UNL     1       1.152   9.118  21.110  0.00  0.00    +0.000 N 
ATOM     21  H   UNL     1       1.677   9.804  20.575  0.00  0.00    +0.000 HD
BRANCH  20  22
ATOM     22  C   UNL     1       0.474   9.493  22.333  0.00  0.00    +0.000 C 
BRANCH  22  23
ATOM     23  C   UNL     1      -0.193  10.857  22.201  0.00  0.00    +0.000 C 
BRANCH  23  24
ATOM     24  C   UNL     1      -1.370  10.987  23.150  0.00  0.00    +0.000 C 
ATOM     25  F   UNL     1      -1.628  12.304  23.362  0.00  0.00    +0.000 F 
ENDBRANCH  23  24
ENDBRANCH  22  23
ENDBRANCH  20  22
ENDBRANCH   5  18
TORSDOF 4
ENDMDL
MODEL 4
REMARK VINA RESULT:      -6.8      3.096      7.716
REMARK  Name = 
REMARK  5 active torsions:
REMARK  status: ('A' for Active; 'I' for Inactive)
REMARK    1  A    between atoms: C_1  and  N_2
REMARK    2  A    between atoms: C_5  and  C_6
REMARK    3  A    between atoms: N_8  and  C_9
REMARK    4  A    between atoms: C_9  and  C_10
REMARK    5  A    between atoms: C_10  and  C_11
REMARK                            x       y       z     vdW  Elec       q    Type
REMARK                         _______ _______ _______ _____ _____    ______ ____
ROOT
ATOM      1  C   UNL     1       3.282   1.930  18.627  0.00  0.00    +0.000 C 
ATOM      2  N   UNL     1       3.271   3.379  18.516  0.00  0.00    +0.000 N 
ATOM      3  C   UNL     1       3.071   3.968  17.208  0.00  0.00    +0.000 C 
ATOM      4  C   UNL     1       4.115   4.998  17.020  0.00  0.00    +0.000 A 
ATOM      5  C   UNL     1       5.204   5.086  16.166  0.00  0.00    +0.000 A 
ATOM      6  N   UNL     1       5.786   6.341  16.277  0.00  0.00    +0.000 NA
ATOM      7  C   UNL     1       5.091   6.968  17.202  0.00  0.00    +0.000 A 
ATOM      8  N   UNL     1       4.101   6.176  17.735  0.00  0.00    +0.000 N 
ATOM      9  C   UNL     1       3.182   6.500  18.758  0.00  0.00    +0.000 A 
ATOM     10  C   UNL     1       2.689   7.813  18.845  0.00  0.00    +0.000 A 
ATOM     11  C   UNL     1       1.674   8.110  19.759  0.00  0.00    +0.000 A 
ATOM     12  C   UNL     1       1.198   7.122  20.614  0.00  0.00    +0.000 A 
ATOM     13  F   UNL     1       0.209   7.409  21.470  0.00  0.00    +0.000 F 
ATOM     14  C   UNL     1       1.720   5.840  20.582  0.00  0.00    +0.000 A 
ATOM     15  C   UNL     1       2.701   5.510  19.638  0.00  0.00    +0.000 A 
ATOM     16  C   UNL     1       3.173   4.100  19.699  0.00  0.00    +0.000 C 
ATOM     17  O   UNL     1       3.375   3.605  20.803  0.00  0.00    +0.000 OA
ENDROOT
BRANCH   5  18
ATOM     18  C   UNL     1       5.696   4.053  15.250  0.00  0.00    +0.000 C 
ATOM     19  O   UNL     1       6.042   2.938  15.621  0.00  0.00    +0.000 OA
ATOM     20  N   UNL     1       5.734   4.464  13.937  0.00  0.00    +0.000 N 
ATOM     21  H   UNL     1       5.277   5.351  13.743  0.00  0.00    +0.000 HD
BRANCH  20  22
ATOM     22  C   UNL     1       6.120   3.578  12.858  0.00  0.00    +0.000 C 
BRANCH  22  23
ATOM     23  C   UNL     1       7.157   4.229  11.952  0.00  0.00    +0.000 C 
BRANCH  23  24
ATOM     24  C   UNL     1       7.915   5.323  12.682  0.00  0.00    +0.000 C 
ATOM     25  F   UNL     1       8.136   6.357  11.829  0.00  0.00    +0.000 F 
ENDBRANCH  23  24
ENDBRANCH  22  23
ENDBRANCH  20  22
ENDBRANCH   5  18
TORSDOF 4
ENDMDL
MODEL 5
REMARK VINA RESULT:      -6.6      2.843      4.495
REMARK  Name = 
REMARK  5 active torsions:
REMARK  status: ('A' for Active; 'I' for Inactive)
REMARK    1  A    between atoms: C_1  and  N_2
REMARK    2  A    between atoms: C_5  and  C_6
REMARK    3  A    between atoms: N_8  and  C_9
REMARK    4  A    between atoms: C_9  and  C_10
REMARK    5  A    between atoms: C_10  and  C_11
REMARK                            x       y       z     vdW  Elec       q    Type
REMARK                         _______ _______ _______ _____ _____    ______ ____
ROOT
ATOM      1  C   UNL     1       7.254   5.910  19.367  0.00  0.00    +0.000 C 
ATOM      2  N   UNL     1       6.492   5.434  18.225  0.00  0.00    +0.000 N 
ATOM      3  C   UNL     1       5.182   6.001  17.987  0.00  0.00    +0.000 C 
ATOM      4  C   UNL     1       4.246   4.878  17.765  0.00  0.00    +0.000 A 
ATOM      5  C   UNL     1       3.176   4.388  18.498  0.00  0.00    +0.000 A 
ATOM      6  N   UNL     1       2.518   3.406  17.770  0.00  0.00    +0.000 NA
ATOM      7  C   UNL     1       3.204   3.283  16.653  0.00  0.00    +0.000 A 
ATOM      8  N   UNL     1       4.302   4.109  16.623  0.00  0.00    +0.000 N 
ATOM      9  C   UNL     1       5.274   4.229  15.604  0.00  0.00    +0.000 A 
ATOM     10  C   UNL     1       4.880   4.093  14.262  0.00  0.00    +0.000 A 
ATOM     11  C   UNL     1       5.801   4.352  13.242  0.00  0.00    +0.000 A 
ATOM     12  C   UNL     1       7.113   4.687  13.559  0.00  0.00    +0.000 A 
ATOM     13  F   UNL     1       7.981   4.958  12.577  0.00  0.00    +0.000 F 
ATOM     14  C   UNL     1       7.529   4.764  14.877  0.00  0.00    +0.000 A 
ATOM     15  C   UNL     1       6.609   4.558  15.913  0.00  0.00    +0.000 A 
ATOM     16  C   UNL     1       7.178   4.677  17.282  0.00  0.00    +0.000 C 
ATOM     17  O   UNL     1       8.274   4.171  17.500  0.00  0.00    +0.000 OA
ENDROOT
BRANCH   5  18
ATOM     18  C   UNL     1       2.745   4.820  19.831  0.00  0.00    +0.000 C 
ATOM     19  O   UNL     1       2.998   4.191  20.853  0.00  0.00    +0.000 OA
ATOM     20  N   UNL     1       2.027   5.993  19.817  0.00  0.00    +0.000 N 
ATOM     21  H   UNL     1       2.021   6.491  18.931  0.00  0.00    +0.000 HD
BRANCH  20  22
ATOM     22  C   UNL     1       1.566   6.635  21.031  0.00  0.00    +0.000 C 
BRANCH  22  23
ATOM     23  C   UNL     1       1.461   8.144  20.854  0.00  0.00    +0.000 C 
BRANCH  23  24
ATOM     24  C   UNL     1       0.384   8.729  21.750  0.00  0.00    +0.000 C 
ATOM     25  F   UNL     1       0.963   9.234  22.870  0.00  0.00    +0.000 F 
ENDBRANCH  23  24
ENDBRANCH  22  23
ENDBRANCH  20  22
ENDBRANCH   5  18
TORSDOF 4
ENDMDL
MODEL 6
REMARK VINA RESULT:      -6.5      3.434      5.411
REMARK  Name = 
REMARK  5 active torsions:
REMARK  status: ('A' for Active; 'I' for Inactive)
REMARK    1  A    between atoms: C_1  and  N_2
REMARK    2  A    between atoms: C_5  and  C_6
REMARK    3  A    between atoms: N_8  and  C_9
REMARK    4  A    between atoms: C_9  and  C_10
REMARK    5  A    between atoms: C_10  and  C_11
REMARK                            x       y       z     vdW  Elec       q    Type
REMARK                         _______ _______ _______ _____ _____    ______ ____
ROOT
ATOM      1  C   UNL     1      -0.422  12.566  18.563  0.00  0.00    +0.000 C 
ATOM      2  N   UNL     1       0.008  11.360  19.249  0.00  0.00    +0.000 N 
ATOM      3  C   UNL     1      -0.971  10.614  20.010  0.00  0.00    +0.000 C 
ATOM      4  C   UNL     1      -0.382  10.334  21.338  0.00  0.00    +0.000 A 
ATOM      5  C   UNL     1      -0.693  10.775  22.615  0.00  0.00    +0.000 A 
ATOM      6  N   UNL     1       0.069  10.085  23.548  0.00  0.00    +0.000 NA
ATOM      7  C   UNL     1       0.845   9.288  22.843  0.00  0.00    +0.000 A 
ATOM      8  N   UNL     1       0.658   9.443  21.490  0.00  0.00    +0.000 N 
ATOM      9  C   UNL     1       1.327   8.781  20.437  0.00  0.00    +0.000 A 
ATOM     10  C   UNL     1       1.706   7.437  20.604  0.00  0.00    +0.000 A 
ATOM     11  C   UNL     1       2.237   6.730  19.521  0.00  0.00    +0.000 A 
ATOM     12  C   UNL     1       2.440   7.371  18.305  0.00  0.00    +0.000 A 
ATOM     13  F   UNL     1       2.926   6.680  17.266  0.00  0.00    +0.000 F 
ATOM     14  C   UNL     1       2.129   8.711  18.145  0.00  0.00    +0.000 A 
ATOM     15  C   UNL     1       1.549   9.424  19.202  0.00  0.00    +0.000 A 
ATOM     16  C   UNL     1       1.254  10.850  18.903  0.00  0.00    +0.000 C 
ATOM     17  O   UNL     1       2.094  11.497  18.285  0.00  0.00    +0.000 OA
ENDROOT
BRANCH   5  18
ATOM     18  C   UNL     1      -1.683  11.791  22.984  0.00  0.00    +0.000 C 
ATOM     19  O   UNL     1      -2.757  11.520  23.508  0.00  0.00    +0.000 OA
ATOM     20  N   UNL     1      -1.287  13.073  22.677  0.00  0.00    +0.000 N 
ATOM     21  H   UNL     1      -0.318  13.174  22.391  0.00  0.00    +0.000 HD
BRANCH  20  22
ATOM     22  C   UNL     1      -2.084  14.233  23.020  0.00  0.00    +0.000 C 
BRANCH  22  23
ATOM     23  C   UNL     1      -1.548  14.922  24.270  0.00  0.00    +0.000 C 
BRANCH  23  24
ATOM     24  C   UNL     1      -2.623  15.042  25.334  0.00  0.00    +0.000 C 
ATOM     25  F   UNL     1      -3.385  13.917  25.327  0.00  0.00    +0.000 F 
ENDBRANCH  23  24
ENDBRANCH  22  23
ENDBRANCH  20  22
ENDBRANCH   5  18
TORSDOF 4
ENDMDL
MODEL 7
REMARK VINA RESULT:      -6.4      2.923      4.046
REMARK  Name = 
REMARK  5 active torsions:
REMARK  status: ('A' for Active; 'I' for Inactive)
REMARK    1  A    between atoms: C_1  and  N_2
REMARK    2  A    between atoms: C_5  and  C_6
REMARK    3  A    between atoms: N_8  and  C_9
REMARK    4  A    between atoms: C_9  and  C_10
REMARK    5  A    between atoms: C_10  and  C_11
REMARK                            x       y       z     vdW  Elec       q    Type
REMARK                         _______ _______ _______ _____ _____    ______ ____
ROOT
ATOM      1  C   UNL     1       4.956   7.181  16.485  0.00  0.00    +0.000 C 
ATOM      2  N   UNL     1       4.223   6.575  17.584  0.00  0.00    +0.000 N 
ATOM      3  C   UNL     1       2.777   6.634  17.562  0.00  0.00    +0.000 C 
ATOM      4  C   UNL     1       2.332   7.105  18.892  0.00  0.00    +0.000 A 
ATOM      5  C   UNL     1       1.717   8.272  19.318  0.00  0.00    +0.000 A 
ATOM      6  N   UNL     1       1.362   8.154  20.655  0.00  0.00    +0.000 NA
ATOM      7  C   UNL     1       1.793   6.968  21.027  0.00  0.00    +0.000 A 
ATOM      8  N   UNL     1       2.448   6.310  20.012  0.00  0.00    +0.000 N 
ATOM      9  C   UNL     1       3.061   5.038  20.052  0.00  0.00    +0.000 A 
ATOM     10  C   UNL     1       2.484   4.023  20.835  0.00  0.00    +0.000 A 
ATOM     11  C   UNL     1       2.996   2.725  20.769  0.00  0.00    +0.000 A 
ATOM     12  C   UNL     1       4.106   2.455  19.976  0.00  0.00    +0.000 A 
ATOM     13  F   UNL     1       4.576   1.204  19.900  0.00  0.00    +0.000 F 
ATOM     14  C   UNL     1       4.723   3.459  19.249  0.00  0.00    +0.000 A 
ATOM     15  C   UNL     1       4.193   4.756  19.261  0.00  0.00    +0.000 A 
ATOM     16  C   UNL     1       4.939   5.740  18.433  0.00  0.00    +0.000 C 
ATOM     17  O   UNL     1       6.166   5.717  18.471  0.00  0.00    +0.000 OA
ENDROOT
BRANCH   5  18
ATOM     18  C   UNL     1       1.437   9.468  18.517  0.00  0.00    +0.000 C 
ATOM     19  O   UNL     1       2.092   9.780  17.529  0.00  0.00    +0.000 OA
ATOM     20  N   UNL     1       0.373  10.202  18.989  0.00  0.00    +0.000 N 
ATOM     21  H   UNL     1      -0.178   9.755  19.717  0.00  0.00    +0.000 HD
BRANCH  20  22
ATOM     22  C   UNL     1      -0.117  11.382  18.306  0.00  0.00    +0.000 C 
BRANCH  22  23
ATOM     23  C   UNL     1      -1.640  11.427  18.306  0.00  0.00    +0.000 C 
BRANCH  23  24
ATOM     24  C   UNL     1      -2.229  10.091  17.892  0.00  0.00    +0.000 C 
ATOM     25  F   UNL     1      -1.791   9.778  16.645  0.00  0.00    +0.000 F 
ENDBRANCH  23  24
ENDBRANCH  22  23
ENDBRANCH  20  22
ENDBRANCH   5  18
TORSDOF 4
ENDMDL
MODEL 8
REMARK VINA RESULT:      -6.4      3.708      5.786
REMARK  Name = 
REMARK  5 active torsions:
REMARK  status: ('A' for Active; 'I' for Inactive)
REMARK    1  A    between atoms: C_1  and  N_2
REMARK    2  A    between atoms: C_5  and  C_6
REMARK    3  A    between atoms: N_8  and  C_9
REMARK    4  A    between atoms: C_9  and  C_10
REMARK    5  A    between atoms: C_10  and  C_11
REMARK                            x       y       z     vdW  Elec       q    Type
REMARK                         _______ _______ _______ _____ _____    ______ ____
ROOT
ATOM      1  C   UNL     1      -0.354  12.858  18.387  0.00  0.00    +0.000 C 
ATOM      2  N   UNL     1      -0.019  11.656  19.131  0.00  0.00    +0.000 N 
ATOM      3  C   UNL     1      -1.081  10.955  19.821  0.00  0.00    +0.000 C 
ATOM      4  C   UNL     1      -0.615  10.689  21.199  0.00  0.00    +0.000 A 
ATOM      5  C   UNL     1      -1.021  11.166  22.436  0.00  0.00    +0.000 A 
ATOM      6  N   UNL     1      -0.361  10.476  23.444  0.00  0.00    +0.000 NA
ATOM      7  C   UNL     1       0.448   9.643  22.825  0.00  0.00    +0.000 A 
ATOM      8  N   UNL     1       0.381   9.773  21.457  0.00  0.00    +0.000 N 
ATOM      9  C   UNL     1       1.117   9.068  20.479  0.00  0.00    +0.000 A 
ATOM     10  C   UNL     1       1.440   7.719  20.704  0.00  0.00    +0.000 A 
ATOM     11  C   UNL     1       2.039   6.973  19.686  0.00  0.00    +0.000 A 
ATOM     12  C   UNL     1       2.364   7.580  18.478  0.00  0.00    +0.000 A 
ATOM     13  F   UNL     1       2.915   6.853  17.499  0.00  0.00    +0.000 F 
ATOM     14  C   UNL     1       2.108   8.925  18.266  0.00  0.00    +0.000 A 
ATOM     15  C   UNL     1       1.461   9.677  19.255  0.00  0.00    +0.000 A 
ATOM     16  C   UNL     1       1.236  11.104  18.903  0.00  0.00    +0.000 C 
ATOM     17  O   UNL     1       2.144  11.713  18.346  0.00  0.00    +0.000 OA
ENDROOT
BRANCH   5  18
ATOM     18  C   UNL     1      -2.008  12.218  22.699  0.00  0.00    +0.000 C 
ATOM     19  O   UNL     1      -1.939  13.338  22.207  0.00  0.00    +0.000 OA
ATOM     20  N   UNL     1      -3.011  11.822  23.554  0.00  0.00    +0.000 N 
ATOM     21  H   UNL     1      -3.038  10.828  23.765  0.00  0.00    +0.000 HD
BRANCH  20  22
ATOM     22  C   UNL     1      -4.126  12.682  23.891  0.00  0.00    +0.000 C 
BRANCH  22  23
ATOM     23  C   UNL     1      -5.171  12.692  22.782  0.00  0.00    +0.000 C 
BRANCH  23  24
ATOM     24  C   UNL     1      -6.540  13.068  23.321  0.00  0.00    +0.000 C 
ATOM     25  F   UNL     1      -7.039  12.025  24.035  0.00  0.00    +0.000 F 
ENDBRANCH  23  24
ENDBRANCH  22  23
ENDBRANCH  20  22
ENDBRANCH   5  18
TORSDOF 4
ENDMDL
MODEL 9
REMARK VINA RESULT:      -6.3      3.013      4.142
REMARK  Name = 
REMARK  5 active torsions:
REMARK  status: ('A' for Active; 'I' for Inactive)
REMARK    1  A    between atoms: C_1  and  N_2
REMARK    2  A    between atoms: C_5  and  C_6
REMARK    3  A    between atoms: N_8  and  C_9
REMARK    4  A    between atoms: C_9  and  C_10
REMARK    5  A    between atoms: C_10  and  C_11
REMARK                            x       y       z     vdW  Elec       q    Type
REMARK                         _______ _______ _______ _____ _____    ______ ____
ROOT
ATOM      1  C   UNL     1       5.492   7.244  16.931  0.00  0.00    +0.000 C 
ATOM      2  N   UNL     1       4.595   6.580  17.862  0.00  0.00    +0.000 N 
ATOM      3  C   UNL     1       3.170   6.663  17.623  0.00  0.00    +0.000 C 
ATOM      4  C   UNL     1       2.528   7.054  18.897  0.00  0.00    +0.000 A 
ATOM      5  C   UNL     1       1.862   8.201  19.301  0.00  0.00    +0.000 A 
ATOM      6  N   UNL     1       1.305   8.002  20.557  0.00  0.00    +0.000 NA
ATOM      7  C   UNL     1       1.667   6.787  20.910  0.00  0.00    +0.000 A 
ATOM      8  N   UNL     1       2.466   6.186  19.966  0.00  0.00    +0.000 N 
ATOM      9  C   UNL     1       3.058   4.904  20.014  0.00  0.00    +0.000 A 
ATOM     10  C   UNL     1       2.360   3.850  20.630  0.00  0.00    +0.000 A 
ATOM     11  C   UNL     1       2.869   2.551  20.557  0.00  0.00    +0.000 A 
ATOM     12  C   UNL     1       4.086   2.315  19.927  0.00  0.00    +0.000 A 
ATOM     13  F   UNL     1       4.554   1.064  19.841  0.00  0.00    +0.000 F 
ATOM     14  C   UNL     1       4.813   3.354  19.371  0.00  0.00    +0.000 A 
ATOM     15  C   UNL     1       4.296   4.656  19.389  0.00  0.00    +0.000 A 
ATOM     16  C   UNL     1       5.167   5.679  18.753  0.00  0.00    +0.000 C 
ATOM     17  O   UNL     1       6.373   5.633  18.976  0.00  0.00    +0.000 OA
ENDROOT
BRANCH   5  18
ATOM     18  C   UNL     1       1.717   9.450  18.548  0.00  0.00    +0.000 C 
ATOM     19  O   UNL     1       2.077   9.576  17.384  0.00  0.00    +0.000 OA
ATOM     20  N   UNL     1       1.142  10.463  19.281  0.00  0.00    +0.000 N 
ATOM     21  H   UNL     1       0.750  10.186  20.177  0.00  0.00    +0.000 HD
BRANCH  20  22
ATOM     22  C   UNL     1       0.842  11.760  18.709  0.00  0.00    +0.000 C 
BRANCH  22  23
ATOM     23  C   UNL     1       1.541  12.877  19.474  0.00  0.00    +0.000 C 
BRANCH  23  24
ATOM     24  C   UNL     1       2.680  13.468  18.663  0.00  0.00    +0.000 C 
ATOM     25  F   UNL     1       3.213  12.499  17.873  0.00  0.00    +0.000 F 
ENDBRANCH  23  24
ENDBRANCH  22  23
ENDBRANCH  20  22
ENDBRANCH   5  18
TORSDOF 4
ENDMDL
