MODEL 1
REMARK VINA RESULT:      -8.4      0.000      0.000
REMARK  Name = 
REMARK  5 active torsions:
REMARK  status: ('A' for Active; 'I' for Inactive)
REMARK    1  A    between atoms: C_1  and  C_2
REMARK    2  A    between atoms: N_4  and  C_5
REMARK    3  A    between atoms: C_9  and  C_10
REMARK    4  A    between atoms: C_13  and  C_14
REMARK    5  A    between atoms: C_24  and  O_25
REMARK                            x       y       z     vdW  Elec       q    Type
REMARK                         _______ _______ _______ _____ _____    ______ ____
ROOT
ATOM      1  C   UNL     1       5.682   5.367  15.497  0.00  0.00    +0.000 A 
ATOM      2  C   UNL     1       5.154   6.624  15.725  0.00  0.00    +0.000 A 
ATOM      3  C   UNL     1       4.333   6.851  16.826  0.00  0.00    +0.000 A 
ATOM      4  C   UNL     1       3.937   5.820  17.709  0.00  0.00    +0.000 A 
ATOM      5  C   UNL     1       3.029   5.988  18.804  0.00  0.00    +0.000 A 
ATOM      6  C   UNL     1       2.799   4.871  19.625  0.00  0.00    +0.000 A 
ATOM      7  C   UNL     1       3.435   3.674  19.348  0.00  0.00    +0.000 A 
ATOM      8  N   UNL     1       4.260   3.485  18.298  0.00  0.00    +0.000 NA
ATOM      9  C   UNL     1       4.499   4.538  17.489  0.00  0.00    +0.000 A 
ATOM     10  C   UNL     1       5.341   4.343  16.391  0.00  0.00    +0.000 A 
ENDROOT
BRANCH   5  11
ATOM     11  C   UNL     1       2.323   7.269  19.109  0.00  0.00    +0.000 A 
ATOM     12  C   UNL     1       1.892   7.592  20.410  0.00  0.00    +0.000 A 
ATOM     13  C   UNL     1       1.139   8.740  20.680  0.00  0.00    +0.000 A 
ATOM     14  C   UNL     1       0.867   9.662  19.666  0.00  0.00    +0.000 A 
ATOM     15  C   UNL     1       1.362   9.405  18.381  0.00  0.00    +0.000 A 
ATOM     16  C   UNL     1       2.060   8.220  18.107  0.00  0.00    +0.000 A 
BRANCH  14  17
ATOM     17  C   UNL     1       0.076  10.917  19.945  0.00  0.00    +0.000 C 
ATOM     18  F   UNL     1       0.127  11.315  21.247  0.00  0.00    +0.000 F 
ATOM     19  F   UNL     1       0.514  11.978  19.213  0.00  0.00    +0.000 F 
ATOM     20  F   UNL     1      -1.244  10.776  19.650  0.00  0.00    +0.000 F 
ENDBRANCH  14  17
ENDBRANCH   5  11
BRANCH   1  24
ATOM     21  C   UNL     1       7.419   4.139  12.380  0.00  0.00    +0.000 C 
ATOM     22  C   UNL     1       6.262   4.280  13.325  0.00  0.00    +0.000 C 
ATOM     23  O   UNL     1       5.196   3.722  13.087  0.00  0.00    +0.000 OA
ATOM     24  N   UNL     1       6.547   5.081  14.420  0.00  0.00    +0.000 N 
ATOM     25  H   UNL     1       7.425   5.596  14.438  0.00  0.00    +0.000 HD
ENDBRANCH   1  24
BRANCH  10  26
ATOM     26  O   UNL     1       5.876   3.082  16.189  0.00  0.00    +0.000 OA
ATOM     27  H   UNL     1       6.847   3.238  16.237  0.00  0.00    +0.000 HD
ENDBRANCH  10  26
TORSDOF 4
ENDMDL
MODEL 2
REMARK VINA RESULT:      -8.4      5.415      7.970
REMARK  Name = 
REMARK  5 active torsions:
REMARK  status: ('A' for Active; 'I' for Inactive)
REMARK    1  A    between atoms: C_1  and  C_2
REMARK    2  A    between atoms: N_4  and  C_5
REMARK    3  A    between atoms: C_9  and  C_10
REMARK    4  A    between atoms: C_13  and  C_14
REMARK    5  A    between atoms: C_24  and  O_25
REMARK                            x       y       z     vdW  Elec       q    Type
REMARK                         _______ _______ _______ _____ _____    ______ ____
ROOT
ATOM      1  C   UNL     1       1.191  10.298  19.038  0.00  0.00    +0.000 A 
ATOM      2  C   UNL     1       1.904   9.912  17.917  0.00  0.00    +0.000 A 
ATOM      3  C   UNL     1       2.399   8.615  17.813  0.00  0.00    +0.000 A 
ATOM      4  C   UNL     1       2.276   7.664  18.853  0.00  0.00    +0.000 A 
ATOM      5  C   UNL     1       2.841   6.348  18.827  0.00  0.00    +0.000 A 
ATOM      6  C   UNL     1       2.562   5.508  19.917  0.00  0.00    +0.000 A 
ATOM      7  C   UNL     1       1.778   5.972  20.957  0.00  0.00    +0.000 A 
ATOM      8  N   UNL     1       1.272   7.220  21.021  0.00  0.00    +0.000 NA
ATOM      9  C   UNL     1       1.524   8.053  19.990  0.00  0.00    +0.000 A 
ATOM     10  C   UNL     1       1.016   9.353  20.058  0.00  0.00    +0.000 A 
ENDROOT
BRANCH   5  11
ATOM     11  C   UNL     1       3.701   5.836  17.718  0.00  0.00    +0.000 A 
ATOM     12  C   UNL     1       4.563   6.680  16.991  0.00  0.00    +0.000 A 
ATOM     13  C   UNL     1       5.290   6.225  15.885  0.00  0.00    +0.000 A 
ATOM     14  C   UNL     1       5.255   4.877  15.521  0.00  0.00    +0.000 A 
ATOM     15  C   UNL     1       4.474   4.001  16.285  0.00  0.00    +0.000 A 
ATOM     16  C   UNL     1       3.698   4.477  17.351  0.00  0.00    +0.000 A 
BRANCH  14  17
ATOM     17  C   UNL     1       6.051   4.366  14.346  0.00  0.00    +0.000 C 
ATOM     18  F   UNL     1       6.982   5.252  13.891  0.00  0.00    +0.000 F 
ATOM     19  F   UNL     1       6.736   3.226  14.641  0.00  0.00    +0.000 F 
ATOM     20  F   UNL     1       5.267   4.067  13.276  0.00  0.00    +0.000 F 
ENDBRANCH  14  17
ENDBRANCH   5  11
BRANCH   1  24
ATOM     21  C   UNL     1      -0.842  13.476  18.954  0.00  0.00    +0.000 C 
ATOM     22  C   UNL     1      -0.560  12.034  18.648  0.00  0.00    +0.000 C 
ATOM     23  O   UNL     1      -1.356  11.374  17.986  0.00  0.00    +0.000 OA
ATOM     24  N   UNL     1       0.635  11.585  19.188  0.00  0.00    +0.000 N 
ATOM     25  H   UNL     1       1.144  12.191  19.829  0.00  0.00    +0.000 HD
ENDBRANCH   1  24
BRANCH  10  26
ATOM     26  O   UNL     1       0.289   9.717  21.179  0.00  0.00    +0.000 OA
ATOM     27  H   UNL     1       0.333   8.915  21.746  0.00  0.00    +0.000 HD
ENDBRANCH  10  26
TORSDOF 4
ENDMDL
MODEL 3
REMARK VINA RESULT:      -8.4      6.296      9.251
REMARK  Name = 
REMARK  5 active torsions:
REMARK  status: ('A' for Active; 'I' for Inactive)
REMARK    1  A    between atoms: C_1  and  C_2
REMARK    2  A    between atoms: N_4  and  C_5
REMARK    3  A    between atoms: C_9  and  C_10
REMARK    4  A    between atoms: C_13  and  C_14
REMARK    5  A    between atoms: C_24  and  O_25
REMARK                            x       y       z     vdW  Elec       q    Type
REMARK                         _______ _______ _______ _____ _____    ______ ____
ROOT
ATOM      1  C   UNL     1      -3.084  11.606  18.062  0.00  0.00    +0.000 A 
ATOM      2  C   UNL     1      -2.387  10.559  17.486  0.00  0.00    +0.000 A 
ATOM      3  C   UNL     1      -1.264  10.033  18.117  0.00  0.00    +0.000 A 
ATOM      4  C   UNL     1      -0.736  10.572  19.313  0.00  0.00    +0.000 A 
ATOM      5  C   UNL     1       0.462  10.118  19.955  0.00  0.00    +0.000 A 
ATOM      6  C   UNL     1       0.804  10.721  21.176  0.00  0.00    +0.000 A 
ATOM      7  C   UNL     1      -0.004  11.714  21.701  0.00  0.00    +0.000 A 
ATOM      8  N   UNL     1      -1.112  12.183  21.093  0.00  0.00    +0.000 NA
ATOM      9  C   UNL     1      -1.466  11.627  19.916  0.00  0.00    +0.000 A 
ATOM     10  C   UNL     1      -2.605  12.121  19.274  0.00  0.00    +0.000 A 
ENDROOT
BRANCH   5  11
ATOM     11  C   UNL     1       1.353   9.057  19.395  0.00  0.00    +0.000 A 
ATOM     12  C   UNL     1       1.953   9.180  18.127  0.00  0.00    +0.000 A 
ATOM     13  C   UNL     1       2.702   8.145  17.557  0.00  0.00    +0.000 A 
ATOM     14  C   UNL     1       2.957   6.976  18.277  0.00  0.00    +0.000 A 
ATOM     15  C   UNL     1       2.444   6.868  19.575  0.00  0.00    +0.000 A 
ATOM     16  C   UNL     1       1.641   7.883  20.115  0.00  0.00    +0.000 A 
BRANCH  14  17
ATOM     17  C   UNL     1       3.782   5.859  17.685  0.00  0.00    +0.000 C 
ATOM     18  F   UNL     1       4.734   5.376  18.532  0.00  0.00    +0.000 F 
ATOM     19  F   UNL     1       3.022   4.787  17.328  0.00  0.00    +0.000 F 
ATOM     20  F   UNL     1       4.444   6.242  16.560  0.00  0.00    +0.000 F 
ENDBRANCH  14  17
ENDBRANCH   5  11
BRANCH   1  24
ATOM     21  C   UNL     1      -6.563  12.546  16.944  0.00  0.00    +0.000 C 
ATOM     22  C   UNL     1      -5.556  11.793  17.762  0.00  0.00    +0.000 C 
ATOM     23  O   UNL     1      -5.923  10.954  18.580  0.00  0.00    +0.000 OA
ATOM     24  N   UNL     1      -4.247  12.161  17.490  0.00  0.00    +0.000 N 
ATOM     25  H   UNL     1      -4.077  12.963  16.886  0.00  0.00    +0.000 HD
ENDBRANCH   1  24
BRANCH  10  26
ATOM     26  O   UNL     1      -3.301  13.156  19.875  0.00  0.00    +0.000 OA
ATOM     27  H   UNL     1      -2.595  13.806  20.093  0.00  0.00    +0.000 HD
ENDBRANCH  10  26
TORSDOF 4
ENDMDL
MODEL 4
REMARK VINA RESULT:      -8.3      6.343      9.318
REMARK  Name = 
REMARK  5 active torsions:
REMARK  status: ('A' for Active; 'I' for Inactive)
REMARK    1  A    between atoms: C_1  and  C_2
REMARK    2  A    between atoms: N_4  and  C_5
REMARK    3  A    between atoms: C_9  and  C_10
REMARK    4  A    between atoms: C_13  and  C_14
REMARK    5  A    between atoms: C_24  and  O_25
REMARK                            x       y       z     vdW  Elec       q    Type
REMARK                         _______ _______ _______ _____ _____    ______ ____
ROOT
ATOM      1  C   UNL     1      -3.325  11.608  18.241  0.00  0.00    +0.000 A 
ATOM      2  C   UNL     1      -2.672  10.530  17.673  0.00  0.00    +0.000 A 
ATOM      3  C   UNL     1      -1.498  10.043  18.240  0.00  0.00    +0.000 A 
ATOM      4  C   UNL     1      -0.876  10.653  19.354  0.00  0.00    +0.000 A 
ATOM      5  C   UNL     1       0.373  10.240  19.920  0.00  0.00    +0.000 A 
ATOM      6  C   UNL     1       0.811  10.915  21.071  0.00  0.00    +0.000 A 
ATOM      7  C   UNL     1       0.044  11.937  21.600  0.00  0.00    +0.000 A 
ATOM      8  N   UNL     1      -1.113  12.369  21.059  0.00  0.00    +0.000 NA
ATOM      9  C   UNL     1      -1.560  11.742  19.950  0.00  0.00    +0.000 A 
ATOM     10  C   UNL     1      -2.751  12.195  19.376  0.00  0.00    +0.000 A 
ENDROOT
BRANCH   5  11
ATOM     11  C   UNL     1       1.220   9.148  19.353  0.00  0.00    +0.000 A 
ATOM     12  C   UNL     1       1.557   8.001  20.099  0.00  0.00    +0.000 A 
ATOM     13  C   UNL     1       2.435   7.028  19.609  0.00  0.00    +0.000 A 
ATOM     14  C   UNL     1       2.940   7.120  18.309  0.00  0.00    +0.000 A 
ATOM     15  C   UNL     1       2.548   8.206  17.518  0.00  0.00    +0.000 A 
ATOM     16  C   UNL     1       1.718   9.210  18.039  0.00  0.00    +0.000 A 
BRANCH  14  17
ATOM     17  C   UNL     1       3.869   6.067  17.758  0.00  0.00    +0.000 C 
ATOM     18  F   UNL     1       4.585   6.484  16.676  0.00  0.00    +0.000 F 
ATOM     19  F   UNL     1       4.787   5.654  18.676  0.00  0.00    +0.000 F 
ATOM     20  F   UNL     1       3.208   4.947  17.358  0.00  0.00    +0.000 F 
ENDBRANCH  14  17
ENDBRANCH   5  11
BRANCH   1  24
ATOM     21  C   UNL     1      -6.882  12.396  17.259  0.00  0.00    +0.000 C 
ATOM     22  C   UNL     1      -5.809  11.650  17.997  0.00  0.00    +0.000 C 
ATOM     23  O   UNL     1      -6.102  10.726  18.749  0.00  0.00    +0.000 OA
ATOM     24  N   UNL     1      -4.535  12.127  17.734  0.00  0.00    +0.000 N 
ATOM     25  H   UNL     1      -4.431  12.985  17.195  0.00  0.00    +0.000 HD
ENDBRANCH   1  24
BRANCH  10  26
ATOM     26  O   UNL     1      -3.401  13.265  19.969  0.00  0.00    +0.000 OA
ATOM     27  H   UNL     1      -4.113  13.481  19.326  0.00  0.00    +0.000 HD
ENDBRANCH  10  26
TORSDOF 4
ENDMDL
MODEL 5
REMARK VINA RESULT:      -8.3      5.443      7.974
REMARK  Name = 
REMARK  5 active torsions:
REMARK  status: ('A' for Active; 'I' for Inactive)
REMARK    1  A    between atoms: C_1  and  C_2
REMARK    2  A    between atoms: N_4  and  C_5
REMARK    3  A    between atoms: C_9  and  C_10
REMARK    4  A    between atoms: C_13  and  C_14
REMARK    5  A    between atoms: C_24  and  O_25
REMARK                            x       y       z     vdW  Elec       q    Type
REMARK                         _______ _______ _______ _____ _____    ______ ____
ROOT
ATOM      1  C   UNL     1       1.154  10.495  18.893  0.00  0.00    +0.000 A 
ATOM      2  C   UNL     1       1.868  10.061  17.791  0.00  0.00    +0.000 A 
ATOM      3  C   UNL     1       2.357   8.759  17.742  0.00  0.00    +0.000 A 
ATOM      4  C   UNL     1       2.225   7.851  18.818  0.00  0.00    +0.000 A 
ATOM      5  C   UNL     1       2.783   6.532  18.847  0.00  0.00    +0.000 A 
ATOM      6  C   UNL     1       2.495   5.737  19.968  0.00  0.00    +0.000 A 
ATOM      7  C   UNL     1       1.710   6.247  20.987  0.00  0.00    +0.000 A 
ATOM      8  N   UNL     1       1.210   7.499  20.998  0.00  0.00    +0.000 NA
ATOM      9  C   UNL     1       1.471   8.289  19.935  0.00  0.00    +0.000 A 
ATOM     10  C   UNL     1       0.969   9.593  19.949  0.00  0.00    +0.000 A 
ENDROOT
BRANCH   5  11
ATOM     11  C   UNL     1       3.645   5.971  17.763  0.00  0.00    +0.000 A 
ATOM     12  C   UNL     1       4.511   6.782  17.004  0.00  0.00    +0.000 A 
ATOM     13  C   UNL     1       5.241   6.279  15.921  0.00  0.00    +0.000 A 
ATOM     14  C   UNL     1       5.201   4.917  15.612  0.00  0.00    +0.000 A 
ATOM     15  C   UNL     1       4.414   4.076  16.409  0.00  0.00    +0.000 A 
ATOM     16  C   UNL     1       3.637   4.599  17.452  0.00  0.00    +0.000 A 
BRANCH  14  17
ATOM     17  C   UNL     1       5.999   4.355  14.462  0.00  0.00    +0.000 C 
ATOM     18  F   UNL     1       6.931   5.220  13.970  0.00  0.00    +0.000 F 
ATOM     19  F   UNL     1       6.683   3.229  14.807  0.00  0.00    +0.000 F 
ATOM     20  F   UNL     1       5.216   4.011  13.404  0.00  0.00    +0.000 F 
ENDBRANCH  14  17
ENDBRANCH   5  11
BRANCH   1  24
ATOM     21  C   UNL     1       0.423  14.187  19.173  0.00  0.00    +0.000 C 
ATOM     22  C   UNL     1       1.307  12.985  19.010  0.00  0.00    +0.000 C 
ATOM     23  O   UNL     1       2.522  13.118  18.904  0.00  0.00    +0.000 OA
ATOM     24  N   UNL     1       0.603  11.791  18.989  0.00  0.00    +0.000 N 
ATOM     25  H   UNL     1      -0.414  11.819  18.953  0.00  0.00    +0.000 HD
ENDBRANCH   1  24
BRANCH  10  26
ATOM     26  O   UNL     1       0.240  10.005  21.052  0.00  0.00    +0.000 OA
ATOM     27  H   UNL     1       0.929  10.362  21.658  0.00  0.00    +0.000 HD
ENDBRANCH  10  26
TORSDOF 4
ENDMDL
MODEL 6
REMARK VINA RESULT:      -8.3      0.402      1.305
REMARK  Name = 
REMARK  5 active torsions:
REMARK  status: ('A' for Active; 'I' for Inactive)
REMARK    1  A    between atoms: C_1  and  C_2
REMARK    2  A    between atoms: N_4  and  C_5
REMARK    3  A    between atoms: C_9  and  C_10
REMARK    4  A    between atoms: C_13  and  C_14
REMARK    5  A    between atoms: C_24  and  O_25
REMARK                            x       y       z     vdW  Elec       q    Type
REMARK                         _______ _______ _______ _____ _____    ______ ____
ROOT
ATOM      1  C   UNL     1       5.686   5.473  15.565  0.00  0.00    +0.000 A 
ATOM      2  C   UNL     1       5.118   6.713  15.792  0.00  0.00    +0.000 A 
ATOM      3  C   UNL     1       4.295   6.916  16.896  0.00  0.00    +0.000 A 
ATOM      4  C   UNL     1       3.936   5.875  17.784  0.00  0.00    +0.000 A 
ATOM      5  C   UNL     1       3.029   6.015  18.883  0.00  0.00    +0.000 A 
ATOM      6  C   UNL     1       2.839   4.893  19.707  0.00  0.00    +0.000 A 
ATOM      7  C   UNL     1       3.513   3.718  19.429  0.00  0.00    +0.000 A 
ATOM      8  N   UNL     1       4.339   3.552  18.377  0.00  0.00    +0.000 NA
ATOM      9  C   UNL     1       4.540   4.611  17.564  0.00  0.00    +0.000 A 
ATOM     10  C   UNL     1       5.383   4.441  16.463  0.00  0.00    +0.000 A 
ENDROOT
BRANCH   5  11
ATOM     11  C   UNL     1       2.282   7.273  19.188  0.00  0.00    +0.000 A 
ATOM     12  C   UNL     1       2.033   8.250  18.204  0.00  0.00    +0.000 A 
ATOM     13  C   UNL     1       1.428   9.474  18.510  0.00  0.00    +0.000 A 
ATOM     14  C   UNL     1       0.961   9.730  19.801  0.00  0.00    +0.000 A 
ATOM     15  C   UNL     1       1.118   8.736  20.776  0.00  0.00    +0.000 A 
ATOM     16  C   UNL     1       1.783   7.538  20.476  0.00  0.00    +0.000 A 
BRANCH  14  17
ATOM     17  C   UNL     1       0.285  11.035  20.141  0.00  0.00    +0.000 C 
ATOM     18  F   UNL     1      -0.167  11.716  19.050  0.00  0.00    +0.000 F 
ATOM     19  F   UNL     1      -0.800  10.862  20.947  0.00  0.00    +0.000 F 
ATOM     20  F   UNL     1       1.110  11.892  20.800  0.00  0.00    +0.000 F 
ENDBRANCH  14  17
ENDBRANCH   5  11
BRANCH   1  24
ATOM     21  C   UNL     1       7.459   4.277  12.455  0.00  0.00    +0.000 C 
ATOM     22  C   UNL     1       6.305   4.373  13.411  0.00  0.00    +0.000 C 
ATOM     23  O   UNL     1       5.270   3.749  13.197  0.00  0.00    +0.000 OA
ATOM     24  N   UNL     1       6.555   5.213  14.484  0.00  0.00    +0.000 N 
ATOM     25  H   UNL     1       7.402   5.778  14.481  0.00  0.00    +0.000 HD
ENDBRANCH   1  24
BRANCH  10  26
ATOM     26  O   UNL     1       5.958   3.198  16.261  0.00  0.00    +0.000 OA
ATOM     27  H   UNL     1       5.211   2.656  15.917  0.00  0.00    +0.000 HD
ENDBRANCH  10  26
TORSDOF 4
ENDMDL
MODEL 7
REMARK VINA RESULT:      -8.3      1.463      1.726
REMARK  Name = 
REMARK  5 active torsions:
REMARK  status: ('A' for Active; 'I' for Inactive)
REMARK    1  A    between atoms: C_1  and  C_2
REMARK    2  A    between atoms: N_4  and  C_5
REMARK    3  A    between atoms: C_9  and  C_10
REMARK    4  A    between atoms: C_13  and  C_14
REMARK    5  A    between atoms: C_24  and  O_25
REMARK                            x       y       z     vdW  Elec       q    Type
REMARK                         _______ _______ _______ _____ _____    ______ ____
ROOT
ATOM      1  C   UNL     1       4.648   5.333  16.602  0.00  0.00    +0.000 A 
ATOM      2  C   UNL     1       4.310   6.661  16.786  0.00  0.00    +0.000 A 
ATOM      3  C   UNL     1       3.565   7.048  17.896  0.00  0.00    +0.000 A 
ATOM      4  C   UNL     1       3.055   6.121  18.835  0.00  0.00    +0.000 A 
ATOM      5  C   UNL     1       2.216   6.461  19.945  0.00  0.00    +0.000 A 
ATOM      6  C   UNL     1       1.857   5.423  20.820  0.00  0.00    +0.000 A 
ATOM      7  C   UNL     1       2.308   4.138  20.581  0.00  0.00    +0.000 A 
ATOM      8  N   UNL     1       3.065   3.789  19.521  0.00  0.00    +0.000 NA
ATOM      9  C   UNL     1       3.424   4.764  18.659  0.00  0.00    +0.000 A 
ATOM     10  C   UNL     1       4.195   4.406  17.550  0.00  0.00    +0.000 A 
ENDROOT
BRANCH   5  11
ATOM     11  C   UNL     1       1.707   7.841  20.209  0.00  0.00    +0.000 A 
ATOM     12  C   UNL     1       1.418   8.292  21.511  0.00  0.00    +0.000 A 
ATOM     13  C   UNL     1       0.843   9.546  21.752  0.00  0.00    +0.000 A 
ATOM     14  C   UNL     1       0.621  10.437  20.700  0.00  0.00    +0.000 A 
ATOM     15  C   UNL     1       0.984  10.043  19.406  0.00  0.00    +0.000 A 
ATOM     16  C   UNL     1       1.500   8.761  19.165  0.00  0.00    +0.000 A 
BRANCH  14  17
ATOM     17  C   UNL     1       0.024  11.800  20.946  0.00  0.00    +0.000 C 
ATOM     18  F   UNL     1      -0.225  12.058  22.261  0.00  0.00    +0.000 F 
ATOM     19  F   UNL     1       0.836  12.806  20.517  0.00  0.00    +0.000 F 
ATOM     20  F   UNL     1      -1.161  11.973  20.301  0.00  0.00    +0.000 F 
ENDBRANCH  14  17
ENDBRANCH   5  11
BRANCH   1  24
ATOM     21  C   UNL     1       7.281   4.595  14.000  0.00  0.00    +0.000 C 
ATOM     22  C   UNL     1       6.757   5.197  15.271  0.00  0.00    +0.000 C 
ATOM     23  O   UNL     1       7.488   5.882  15.980  0.00  0.00    +0.000 OA
ATOM     24  N   UNL     1       5.429   4.883  15.517  0.00  0.00    +0.000 N 
ATOM     25  H   UNL     1       4.968   4.197  14.923  0.00  0.00    +0.000 HD
ENDBRANCH   1  24
BRANCH  10  26
ATOM     26  O   UNL     1       4.540   3.074  17.391  0.00  0.00    +0.000 OA
ATOM     27  H   UNL     1       5.076   3.077  16.566  0.00  0.00    +0.000 HD
ENDBRANCH  10  26
TORSDOF 4
ENDMDL
MODEL 8
REMARK VINA RESULT:      -8.2      1.502      2.182
REMARK  Name = 
REMARK  5 active torsions:
REMARK  status: ('A' for Active; 'I' for Inactive)
REMARK    1  A    between atoms: C_1  and  C_2
REMARK    2  A    between atoms: N_4  and  C_5
REMARK    3  A    between atoms: C_9  and  C_10
REMARK    4  A    between atoms: C_13  and  C_14
REMARK    5  A    between atoms: C_24  and  O_25
REMARK                            x       y       z     vdW  Elec       q    Type
REMARK                         _______ _______ _______ _____ _____    ______ ____
ROOT
ATOM      1  C   UNL     1       4.675   5.380  16.626  0.00  0.00    +0.000 A 
ATOM      2  C   UNL     1       4.324   6.705  16.812  0.00  0.00    +0.000 A 
ATOM      3  C   UNL     1       3.557   7.079  17.912  0.00  0.00    +0.000 A 
ATOM      4  C   UNL     1       3.039   6.143  18.837  0.00  0.00    +0.000 A 
ATOM      5  C   UNL     1       2.178   6.469  19.934  0.00  0.00    +0.000 A 
ATOM      6  C   UNL     1       1.812   5.424  20.797  0.00  0.00    +0.000 A 
ATOM      7  C   UNL     1       2.278   4.143  20.558  0.00  0.00    +0.000 A 
ATOM      8  N   UNL     1       3.054   3.807  19.509  0.00  0.00    +0.000 NA
ATOM      9  C   UNL     1       3.421   4.790  18.659  0.00  0.00    +0.000 A 
ATOM     10  C   UNL     1       4.213   4.444  17.560  0.00  0.00    +0.000 A 
ENDROOT
BRANCH   5  11
ATOM     11  C   UNL     1       1.654   7.844  20.197  0.00  0.00    +0.000 A 
ATOM     12  C   UNL     1       1.452   8.777  19.162  0.00  0.00    +0.000 A 
ATOM     13  C   UNL     1       1.062  10.096  19.417  0.00  0.00    +0.000 A 
ATOM     14  C   UNL     1       0.769  10.509  20.718  0.00  0.00    +0.000 A 
ATOM     15  C   UNL     1       0.877   9.573  21.755  0.00  0.00    +0.000 A 
ATOM     16  C   UNL     1       1.330   8.270  21.498  0.00  0.00    +0.000 A 
BRANCH  14  17
ATOM     17  C   UNL     1       0.325  11.922  21.007  0.00  0.00    +0.000 C 
ATOM     18  F   UNL     1      -0.624  12.383  20.143  0.00  0.00    +0.000 F 
ATOM     19  F   UNL     1      -0.211  12.052  22.253  0.00  0.00    +0.000 F 
ATOM     20  F   UNL     1       1.351  12.813  20.944  0.00  0.00    +0.000 F 
ENDBRANCH  14  17
ENDBRANCH   5  11
BRANCH   1  24
ATOM     21  C   UNL     1       7.348   4.695  14.051  0.00  0.00    +0.000 C 
ATOM     22  C   UNL     1       6.796   5.296  15.311  0.00  0.00    +0.000 C 
ATOM     23  O   UNL     1       7.500   6.012  16.016  0.00  0.00    +0.000 OA
ATOM     24  N   UNL     1       5.478   4.943  15.552  0.00  0.00    +0.000 N 
ATOM     25  H   UNL     1       5.042   4.235  14.963  0.00  0.00    +0.000 HD
ENDBRANCH   1  24
BRANCH  10  26
ATOM     26  O   UNL     1       4.571   3.116  17.400  0.00  0.00    +0.000 OA
ATOM     27  H   UNL     1       4.077   2.660  18.119  0.00  0.00    +0.000 HD
ENDBRANCH  10  26
TORSDOF 4
ENDMDL
MODEL 9
REMARK VINA RESULT:      -8.1      5.462      8.016
REMARK  Name = 
REMARK  5 active torsions:
REMARK  status: ('A' for Active; 'I' for Inactive)
REMARK    1  A    between atoms: C_1  and  C_2
REMARK    2  A    between atoms: N_4  and  C_5
REMARK    3  A    between atoms: C_9  and  C_10
REMARK    4  A    between atoms: C_13  and  C_14
REMARK    5  A    between atoms: C_24  and  O_25
REMARK                            x       y       z     vdW  Elec       q    Type
REMARK                         _______ _______ _______ _____ _____    ______ ____
ROOT
ATOM      1  C   UNL     1       1.111  10.535  18.982  0.00  0.00    +0.000 A 
ATOM      2  C   UNL     1       1.800  10.108  17.861  0.00  0.00    +0.000 A 
ATOM      3  C   UNL     1       2.284   8.805  17.789  0.00  0.00    +0.000 A 
ATOM      4  C   UNL     1       2.173   7.888  18.860  0.00  0.00    +0.000 A 
ATOM      5  C   UNL     1       2.726   6.567  18.865  0.00  0.00    +0.000 A 
ATOM      6  C   UNL     1       2.461   5.764  19.986  0.00  0.00    +0.000 A 
ATOM      7  C   UNL     1       1.700   6.267  21.025  0.00  0.00    +0.000 A 
ATOM      8  N   UNL     1       1.205   7.520  21.059  0.00  0.00    +0.000 NA
ATOM      9  C   UNL     1       1.445   8.319  19.998  0.00  0.00    +0.000 A 
ATOM     10  C   UNL     1       0.947   9.624  20.034  0.00  0.00    +0.000 A 
ENDROOT
BRANCH   5  11
ATOM     11  C   UNL     1       3.562   6.014  17.757  0.00  0.00    +0.000 A 
ATOM     12  C   UNL     1       3.516   4.654  17.395  0.00  0.00    +0.000 A 
ATOM     13  C   UNL     1       4.372   4.112  16.431  0.00  0.00    +0.000 A 
ATOM     14  C   UNL     1       5.250   4.935  15.721  0.00  0.00    +0.000 A 
ATOM     15  C   UNL     1       5.250   6.307  16.001  0.00  0.00    +0.000 A 
ATOM     16  C   UNL     1       4.434   6.831  17.014  0.00  0.00    +0.000 A 
BRANCH  14  17
ATOM     17  C   UNL     1       6.163   4.370  14.661  0.00  0.00    +0.000 C 
ATOM     18  F   UNL     1       5.516   4.019  13.513  0.00  0.00    +0.000 F 
ATOM     19  F   UNL     1       7.131   5.253  14.288  0.00  0.00    +0.000 F 
ATOM     20  F   UNL     1       6.815   3.251  15.078  0.00  0.00    +0.000 F 
ENDBRANCH  14  17
ENDBRANCH   5  11
BRANCH   1  24
ATOM     21  C   UNL     1       0.372  14.195  19.534  0.00  0.00    +0.000 C 
ATOM     22  C   UNL     1       1.256  12.985  19.443  0.00  0.00    +0.000 C 
ATOM     23  O   UNL     1       2.461  13.080  19.654  0.00  0.00    +0.000 OA
ATOM     24  N   UNL     1       0.568  11.831  19.102  0.00  0.00    +0.000 N 
ATOM     25  H   UNL     1      -0.409  11.905  18.822  0.00  0.00    +0.000 HD
ENDBRANCH   1  24
BRANCH  10  26
ATOM     26  O   UNL     1       0.245  10.029  21.157  0.00  0.00    +0.000 OA
ATOM     27  H   UNL     1      -0.661  10.194  20.809  0.00  0.00    +0.000 HD
ENDBRANCH  10  26
TORSDOF 4
ENDMDL
