MODEL 1
REMARK VINA RESULT:      -7.7      0.000      0.000
REMARK  Name = 
REMARK  5 active torsions:
REMARK  status: ('A' for Active; 'I' for Inactive)
REMARK    1  A    between atoms: S_2  and  N_4
REMARK    2  A    between atoms: S_2  and  C_12
REMARK    3  A    between atoms: N_4  and  C_5
REMARK    4  A    between atoms: C_5  and  C_6
REMARK    5  A    between atoms: C_20  and  C_21
REMARK                            x       y       z     vdW  Elec       q    Type
REMARK                         _______ _______ _______ _____ _____    ______ ____
ROOT
ATOM      1  C   UNL     1       3.980   5.810  17.884  0.00  0.00    +0.000 A 
ATOM      2  C   UNL     1       4.065   7.042  17.227  0.00  0.00    +0.000 A 
ATOM      3  C   UNL     1       3.173   8.098  17.566  0.00  0.00    +0.000 A 
ATOM      4  C   UNL     1       2.279   7.954  18.644  0.00  0.00    +0.000 A 
ATOM      5  C   UNL     1       2.309   6.737  19.329  0.00  0.00    +0.000 A 
ATOM      6  C   UNL     1       3.033   5.638  18.879  0.00  0.00    +0.000 A 
ATOM      7  C   UNL     1       1.694   6.622  20.692  0.00  0.00    +0.000 C 
ATOM      8  N   UNL     1       1.872   7.894  21.399  0.00  0.00    +0.000 NA
ATOM      9  C   UNL     1       1.030   8.914  20.744  0.00  0.00    +0.000 C 
ATOM     10  C   UNL     1       1.346   9.039  19.195  0.00  0.00    +0.000 C 
ATOM     11  H   UNL     1       2.851   8.178  21.308  0.00  0.00    +0.000 HD
ENDROOT
BRANCH   1  13
ATOM     12  O   UNL     1       5.699   4.345  19.183  0.00  0.00    +0.000 OA
ATOM     13  S   UNL     1       5.238   4.543  17.824  0.00  0.00    +0.000 S 
ATOM     14  O   UNL     1       6.151   4.882  16.758  0.00  0.00    +0.000 OA
BRANCH  13  15
ATOM     15  N   UNL     1       4.380   3.150  17.414  0.00  0.00    +0.000 NA
ATOM     16  H   UNL     1       4.649   2.751  16.516  0.00  0.00    +0.000 HD
BRANCH  15  17
ATOM     17  C   UNL     1       4.302   2.162  18.492  0.00  0.00    +0.000 C 
BRANCH  17  18
ATOM     18  C   UNL     1       3.107   2.378  19.383  0.00  0.00    +0.000 A 
ATOM     19  C   UNL     1       3.286   2.534  20.765  0.00  0.00    +0.000 A 
ATOM     20  C   UNL     1       2.193   2.806  21.591  0.00  0.00    +0.000 A 
ATOM     21  C   UNL     1       0.917   2.912  21.042  0.00  0.00    +0.000 A 
ATOM     22  C   UNL     1       0.728   2.746  19.676  0.00  0.00    +0.000 A 
ATOM     23  C   UNL     1       1.815   2.474  18.845  0.00  0.00    +0.000 A 
ENDBRANCH  17  18
ENDBRANCH  15  17
ENDBRANCH  13  15
ENDBRANCH   1  13
BRANCH   9  24
ATOM     24  C   UNL     1      -0.409   8.615  21.237  0.00  0.00    +0.000 C 
ATOM     25  F   UNL     1      -0.541   8.850  22.564  0.00  0.00    +0.000 F 
ENDBRANCH   9  24
TORSDOF 5
ENDMDL
MODEL 2
REMARK VINA RESULT:      -7.7      1.413      1.652
REMARK  Name = 
REMARK  5 active torsions:
REMARK  status: ('A' for Active; 'I' for Inactive)
REMARK    1  A    between atoms: S_2  and  N_4
REMARK    2  A    between atoms: S_2  and  C_12
REMARK    3  A    between atoms: N_4  and  C_5
REMARK    4  A    between atoms: C_5  and  C_6
REMARK    5  A    between atoms: C_20  and  C_21
REMARK                            x       y       z     vdW  Elec       q    Type
REMARK                         _______ _______ _______ _____ _____    ______ ____
ROOT
ATOM      1  C   UNL     1       2.863   7.259  18.277  0.00  0.00    +0.000 A 
ATOM      2  C   UNL     1       2.535   8.445  17.613  0.00  0.00    +0.000 A 
ATOM      3  C   UNL     1       1.655   9.387  18.217  0.00  0.00    +0.000 A 
ATOM      4  C   UNL     1       1.204   9.191  19.537  0.00  0.00    +0.000 A 
ATOM      5  C   UNL     1       1.646   8.037  20.188  0.00  0.00    +0.000 A 
ATOM      6  C   UNL     1       2.339   7.023  19.537  0.00  0.00    +0.000 A 
ATOM      7  C   UNL     1       1.544   7.928  21.681  0.00  0.00    +0.000 C 
ATOM      8  N   UNL     1       1.750   9.257  22.267  0.00  0.00    +0.000 NA
ATOM      9  C   UNL     1       0.592  10.104  21.920  0.00  0.00    +0.000 C 
ATOM     10  C   UNL     1       0.352  10.170  20.354  0.00  0.00    +0.000 C 
ATOM     11  H   UNL     1       2.587   9.667  21.846  0.00  0.00    +0.000 HD
ENDROOT
BRANCH   1  13
ATOM     12  O   UNL     1       4.885   5.803  19.039  0.00  0.00    +0.000 OA
ATOM     13  S   UNL     1       4.208   6.178  17.815  0.00  0.00    +0.000 S 
ATOM     14  O   UNL     1       4.915   6.802  16.721  0.00  0.00    +0.000 OA
BRANCH  13  15
ATOM     15  N   UNL     1       3.429   4.787  17.266  0.00  0.00    +0.000 NA
ATOM     16  H   UNL     1       3.440   4.683  16.253  0.00  0.00    +0.000 HD
BRANCH  15  17
ATOM     17  C   UNL     1       3.815   3.569  17.982  0.00  0.00    +0.000 C 
BRANCH  17  18
ATOM     18  C   UNL     1       2.904   3.275  19.144  0.00  0.00    +0.000 A 
ATOM     19  C   UNL     1       3.444   2.832  20.361  0.00  0.00    +0.000 A 
ATOM     20  C   UNL     1       2.615   2.624  21.466  0.00  0.00    +0.000 A 
ATOM     21  C   UNL     1       1.244   2.846  21.358  0.00  0.00    +0.000 A 
ATOM     22  C   UNL     1       0.698   3.271  20.154  0.00  0.00    +0.000 A 
ATOM     23  C   UNL     1       1.519   3.481  19.045  0.00  0.00    +0.000 A 
ENDBRANCH  17  18
ENDBRANCH  15  17
ENDBRANCH  13  15
ENDBRANCH   1  13
BRANCH   9  24
ATOM     24  C   UNL     1      -0.538   9.641  22.875  0.00  0.00    +0.000 C 
ATOM     25  F   UNL     1      -1.337  10.671  23.239  0.00  0.00    +0.000 F 
ENDBRANCH   9  24
TORSDOF 5
ENDMDL
MODEL 3
REMARK VINA RESULT:      -7.6      4.272      6.012
REMARK  Name = 
REMARK  5 active torsions:
REMARK  status: ('A' for Active; 'I' for Inactive)
REMARK    1  A    between atoms: S_2  and  N_4
REMARK    2  A    between atoms: S_2  and  C_12
REMARK    3  A    between atoms: N_4  and  C_5
REMARK    4  A    between atoms: C_5  and  C_6
REMARK    5  A    between atoms: C_20  and  C_21
REMARK                            x       y       z     vdW  Elec       q    Type
REMARK                         _______ _______ _______ _____ _____    ______ ____
ROOT
ATOM      1  C   UNL     1       5.329   5.511  16.740  0.00  0.00    +0.000 A 
ATOM      2  C   UNL     1       4.618   6.620  17.208  0.00  0.00    +0.000 A 
ATOM      3  C   UNL     1       3.441   6.442  17.988  0.00  0.00    +0.000 A 
ATOM      4  C   UNL     1       3.049   5.152  18.398  0.00  0.00    +0.000 A 
ATOM      5  C   UNL     1       3.856   4.089  17.984  0.00  0.00    +0.000 A 
ATOM      6  C   UNL     1       4.886   4.239  17.062  0.00  0.00    +0.000 A 
ATOM      7  C   UNL     1       3.755   2.756  18.665  0.00  0.00    +0.000 C 
ATOM      8  N   UNL     1       3.452   2.972  20.084  0.00  0.00    +0.000 NA
ATOM      9  C   UNL     1       2.078   3.501  20.192  0.00  0.00    +0.000 C 
ATOM     10  C   UNL     1       1.879   4.817  19.330  0.00  0.00    +0.000 C 
ATOM     11  H   UNL     1       4.098   3.676  20.446  0.00  0.00    +0.000 HD
ENDROOT
BRANCH   1  13
ATOM     12  O   UNL     1       7.612   4.308  16.381  0.00  0.00    +0.000 OA
ATOM     13  S   UNL     1       6.985   5.578  16.075  0.00  0.00    +0.000 S 
ATOM     14  O   UNL     1       7.574   6.830  16.489  0.00  0.00    +0.000 OA
BRANCH  13  15
ATOM     15  N   UNL     1       6.744   5.590  14.406  0.00  0.00    +0.000 NA
ATOM     16  H   UNL     1       6.886   6.503  13.977  0.00  0.00    +0.000 HD
BRANCH  15  17
ATOM     17  C   UNL     1       7.422   4.501  13.700  0.00  0.00    +0.000 C 
BRANCH  17  18
ATOM     18  C   UNL     1       6.500   3.758  12.770  0.00  0.00    +0.000 A 
ATOM     19  C   UNL     1       7.004   2.728  11.963  0.00  0.00    +0.000 A 
ATOM     20  C   UNL     1       6.144   1.985  11.150  0.00  0.00    +0.000 A 
ATOM     21  C   UNL     1       4.782   2.276  11.131  0.00  0.00    +0.000 A 
ATOM     22  C   UNL     1       4.276   3.303  11.917  0.00  0.00    +0.000 A 
ATOM     23  C   UNL     1       5.128   4.049  12.732  0.00  0.00    +0.000 A 
ENDBRANCH  17  18
ENDBRANCH  15  17
ENDBRANCH  13  15
ENDBRANCH   1  13
BRANCH   9  24
ATOM     24  C   UNL     1       1.161   2.269  19.981  0.00  0.00    +0.000 C 
ATOM     25  F   UNL     1       0.442   2.373  18.839  0.00  0.00    +0.000 F 
ENDBRANCH   9  24
TORSDOF 5
ENDMDL
MODEL 4
REMARK VINA RESULT:      -7.6      2.782      4.514
REMARK  Name = 
REMARK  5 active torsions:
REMARK  status: ('A' for Active; 'I' for Inactive)
REMARK    1  A    between atoms: S_2  and  N_4
REMARK    2  A    between atoms: S_2  and  C_12
REMARK    3  A    between atoms: N_4  and  C_5
REMARK    4  A    between atoms: C_5  and  C_6
REMARK    5  A    between atoms: C_20  and  C_21
REMARK                            x       y       z     vdW  Elec       q    Type
REMARK                         _______ _______ _______ _____ _____    ______ ____
ROOT
ATOM      1  C   UNL     1       2.443   5.769  19.086  0.00  0.00    +0.000 A 
ATOM      2  C   UNL     1       1.810   5.850  20.330  0.00  0.00    +0.000 A 
ATOM      3  C   UNL     1       1.419   7.113  20.857  0.00  0.00    +0.000 A 
ATOM      4  C   UNL     1       1.556   8.279  20.078  0.00  0.00    +0.000 A 
ATOM      5  C   UNL     1       2.102   8.123  18.802  0.00  0.00    +0.000 A 
ATOM      6  C   UNL     1       2.665   6.930  18.364  0.00  0.00    +0.000 A 
ATOM      7  C   UNL     1       1.938   9.204  17.774  0.00  0.00    +0.000 C 
ATOM      8  N   UNL     1       0.635   9.847  17.968  0.00  0.00    +0.000 NA
ATOM      9  C   UNL     1       0.672  10.602  19.236  0.00  0.00    +0.000 C 
ATOM     10  C   UNL     1       1.076   9.684  20.463  0.00  0.00    +0.000 C 
ATOM     11  H   UNL     1      -0.075   9.115  18.050  0.00  0.00    +0.000 HD
ENDROOT
BRANCH   1  13
ATOM     12  O   UNL     1       1.419   4.029  17.438  0.00  0.00    +0.000 OA
ATOM     13  S   UNL     1       2.657   4.259  18.156  0.00  0.00    +0.000 S 
ATOM     14  O   UNL     1       3.207   3.267  19.050  0.00  0.00    +0.000 OA
BRANCH  13  15
ATOM     15  N   UNL     1       3.803   4.670  16.990  0.00  0.00    +0.000 NA
ATOM     16  H   UNL     1       3.783   5.652  16.721  0.00  0.00    +0.000 HD
BRANCH  15  17
ATOM     17  C   UNL     1       5.150   4.171  17.280  0.00  0.00    +0.000 C 
BRANCH  17  18
ATOM     18  C   UNL     1       6.100   5.275  17.661  0.00  0.00    +0.000 A 
ATOM     19  C   UNL     1       7.013   5.081  18.708  0.00  0.00    +0.000 A 
ATOM     20  C   UNL     1       7.946   6.071  19.022  0.00  0.00    +0.000 A 
ATOM     21  C   UNL     1       7.965   7.263  18.301  0.00  0.00    +0.000 A 
ATOM     22  C   UNL     1       7.056   7.470  17.271  0.00  0.00    +0.000 A 
ATOM     23  C   UNL     1       6.121   6.486  16.951  0.00  0.00    +0.000 A 
ENDBRANCH  17  18
ENDBRANCH  15  17
ENDBRANCH  13  15
ENDBRANCH   1  13
BRANCH   9  24
ATOM     24  C   UNL     1       1.477  11.886  18.908  0.00  0.00    +0.000 C 
ATOM     25  F   UNL     1       0.724  12.791  18.239  0.00  0.00    +0.000 F 
ENDBRANCH   9  24
TORSDOF 5
ENDMDL
MODEL 5
REMARK VINA RESULT:      -7.5      4.231      6.311
REMARK  Name = 
REMARK  5 active torsions:
REMARK  status: ('A' for Active; 'I' for Inactive)
REMARK    1  A    between atoms: S_2  and  N_4
REMARK    2  A    between atoms: S_2  and  C_12
REMARK    3  A    between atoms: N_4  and  C_5
REMARK    4  A    between atoms: C_5  and  C_6
REMARK    5  A    between atoms: C_20  and  C_21
REMARK                            x       y       z     vdW  Elec       q    Type
REMARK                         _______ _______ _______ _____ _____    ______ ____
ROOT
ATOM      1  C   UNL     1       5.691   5.273  17.424  0.00  0.00    +0.000 A 
ATOM      2  C   UNL     1       5.770   5.522  18.798  0.00  0.00    +0.000 A 
ATOM      3  C   UNL     1       4.749   5.054  19.673  0.00  0.00    +0.000 A 
ATOM      4  C   UNL     1       3.714   4.236  19.181  0.00  0.00    +0.000 A 
ATOM      5  C   UNL     1       3.742   3.937  17.817  0.00  0.00    +0.000 A 
ATOM      6  C   UNL     1       4.619   4.550  16.929  0.00  0.00    +0.000 A 
ATOM      7  C   UNL     1       2.935   2.793  17.278  0.00  0.00    +0.000 C 
ATOM      8  N   UNL     1       2.890   1.729  18.287  0.00  0.00    +0.000 NA
ATOM      9  C   UNL     1       2.076   2.200  19.425  0.00  0.00    +0.000 C 
ATOM     10  C   UNL     1       2.617   3.567  20.018  0.00  0.00    +0.000 C 
ATOM     11  H   UNL     1       3.843   1.563  18.620  0.00  0.00    +0.000 HD
ENDROOT
BRANCH   1  13
ATOM     12  O   UNL     1       7.879   4.296  16.401  0.00  0.00    +0.000 OA
ATOM     13  S   UNL     1       7.047   5.476  16.279  0.00  0.00    +0.000 S 
ATOM     14  O   UNL     1       7.586   6.802  16.468  0.00  0.00    +0.000 OA
BRANCH  13  15
ATOM     15  N   UNL     1       6.309   5.373  14.767  0.00  0.00    +0.000 NA
ATOM     16  H   UNL     1       5.775   6.203  14.513  0.00  0.00    +0.000 HD
BRANCH  15  17
ATOM     17  C   UNL     1       7.198   4.903  13.703  0.00  0.00    +0.000 C 
BRANCH  17  18
ATOM     18  C   UNL     1       6.512   3.948  12.762  0.00  0.00    +0.000 A 
ATOM     19  C   UNL     1       7.266   2.994  12.062  0.00  0.00    +0.000 A 
ATOM     20  C   UNL     1       6.632   2.058  11.242  0.00  0.00    +0.000 A 
ATOM     21  C   UNL     1       5.245   2.078  11.108  0.00  0.00    +0.000 A 
ATOM     22  C   UNL     1       4.492   3.028  11.786  0.00  0.00    +0.000 A 
ATOM     23  C   UNL     1       5.118   3.966  12.607  0.00  0.00    +0.000 A 
ENDBRANCH  17  18
ENDBRANCH  15  17
ENDBRANCH  13  15
ENDBRANCH   1  13
BRANCH   9  24
ATOM     24  C   UNL     1       0.609   2.072  18.941  0.00  0.00    +0.000 C 
ATOM     25  F   UNL     1      -0.206   2.943  19.582  0.00  0.00    +0.000 F 
ENDBRANCH   9  24
TORSDOF 5
ENDMDL
MODEL 6
REMARK VINA RESULT:      -7.5      0.244      1.036
REMARK  Name = 
REMARK  5 active torsions:
REMARK  status: ('A' for Active; 'I' for Inactive)
REMARK    1  A    between atoms: S_2  and  N_4
REMARK    2  A    between atoms: S_2  and  C_12
REMARK    3  A    between atoms: N_4  and  C_5
REMARK    4  A    between atoms: C_5  and  C_6
REMARK    5  A    between atoms: C_20  and  C_21
REMARK                            x       y       z     vdW  Elec       q    Type
REMARK                         _______ _______ _______ _____ _____    ______ ____
ROOT
ATOM      1  C   UNL     1       4.154   5.711  17.764  0.00  0.00    +0.000 A 
ATOM      2  C   UNL     1       4.330   6.947  17.134  0.00  0.00    +0.000 A 
ATOM      3  C   UNL     1       3.468   8.038  17.438  0.00  0.00    +0.000 A 
ATOM      4  C   UNL     1       2.508   7.920  18.462  0.00  0.00    +0.000 A 
ATOM      5  C   UNL     1       2.444   6.693  19.127  0.00  0.00    +0.000 A 
ATOM      6  C   UNL     1       3.144   5.568  18.701  0.00  0.00    +0.000 A 
ATOM      7  C   UNL     1       1.748   6.587  20.451  0.00  0.00    +0.000 C 
ATOM      8  N   UNL     1       1.941   7.840  21.188  0.00  0.00    +0.000 NA
ATOM      9  C   UNL     1       1.184   8.906  20.502  0.00  0.00    +0.000 C 
ATOM     10  C   UNL     1       1.594   9.038  18.976  0.00  0.00    +0.000 C 
ATOM     11  H   UNL     1       2.935   8.080  21.157  0.00  0.00    +0.000 HD
ENDROOT
BRANCH   1  13
ATOM     12  O   UNL     1       5.843   4.256  19.113  0.00  0.00    +0.000 OA
ATOM     13  S   UNL     1       5.355   4.389  17.755  0.00  0.00    +0.000 S 
ATOM     14  O   UNL     1       6.254   4.621  16.649  0.00  0.00    +0.000 OA
BRANCH  13  15
ATOM     15  N   UNL     1       4.429   3.012  17.455  0.00  0.00    +0.000 NA
ATOM     16  H   UNL     1       4.665   2.541  16.583  0.00  0.00    +0.000 HD
BRANCH  15  17
ATOM     17  C   UNL     1       4.325   2.105  18.600  0.00  0.00    +0.000 C 
BRANCH  17  18
ATOM     18  C   UNL     1       3.145   2.426  19.480  0.00  0.00    +0.000 A 
ATOM     19  C   UNL     1       1.867   2.548  18.917  0.00  0.00    +0.000 A 
ATOM     20  C   UNL     1       0.756   2.775  19.733  0.00  0.00    +0.000 A 
ATOM     21  C   UNL     1       0.919   2.892  21.112  0.00  0.00    +0.000 A 
ATOM     22  C   UNL     1       2.184   2.786  21.677  0.00  0.00    +0.000 A 
ATOM     23  C   UNL     1       3.298   2.560  20.868  0.00  0.00    +0.000 A 
ENDBRANCH  17  18
ENDBRANCH  15  17
ENDBRANCH  13  15
ENDBRANCH   1  13
BRANCH   9  24
ATOM     24  C   UNL     1      -0.293   8.666  20.907  0.00  0.00    +0.000 C 
ATOM     25  F   UNL     1      -0.423   8.503  22.245  0.00  0.00    +0.000 F 
ENDBRANCH   9  24
TORSDOF 5
ENDMDL
MODEL 7
REMARK VINA RESULT:      -7.5      1.058      1.541
REMARK  Name = 
REMARK  5 active torsions:
REMARK  status: ('A' for Active; 'I' for Inactive)
REMARK    1  A    between atoms: S_2  and  N_4
REMARK    2  A    between atoms: S_2  and  C_12
REMARK    3  A    between atoms: N_4  and  C_5
REMARK    4  A    between atoms: C_5  and  C_6
REMARK    5  A    between atoms: C_20  and  C_21
REMARK                            x       y       z     vdW  Elec       q    Type
REMARK                         _______ _______ _______ _____ _____    ______ ____
ROOT
ATOM      1  C   UNL     1       3.256   6.936  17.983  0.00  0.00    +0.000 A 
ATOM      2  C   UNL     1       2.984   8.149  17.343  0.00  0.00    +0.000 A 
ATOM      3  C   UNL     1       2.077   9.080  17.923  0.00  0.00    +0.000 A 
ATOM      4  C   UNL     1       1.538   8.843  19.203  0.00  0.00    +0.000 A 
ATOM      5  C   UNL     1       1.925   7.660  19.839  0.00  0.00    +0.000 A 
ATOM      6  C   UNL     1       2.648   6.661  19.197  0.00  0.00    +0.000 A 
ATOM      7  C   UNL     1       1.725   7.498  21.317  0.00  0.00    +0.000 C 
ATOM      8  N   UNL     1       1.905   8.802  21.964  0.00  0.00    +0.000 NA
ATOM      9  C   UNL     1       0.781   9.676  21.574  0.00  0.00    +0.000 C 
ATOM     10  C   UNL     1       0.645   9.802  19.999  0.00  0.00    +0.000 C 
ATOM     11  H   UNL     1       2.772   9.217  21.613  0.00  0.00    +0.000 HD
ENDROOT
BRANCH   1  13
ATOM     12  O   UNL     1       5.300   5.547  18.809  0.00  0.00    +0.000 OA
ATOM     13  S   UNL     1       4.617   5.856  17.569  0.00  0.00    +0.000 S 
ATOM     14  O   UNL     1       5.315   6.440  16.448  0.00  0.00    +0.000 OA
BRANCH  13  15
ATOM     15  N   UNL     1       3.859   4.429  17.085  0.00  0.00    +0.000 NA
ATOM     16  H   UNL     1       3.985   4.212  16.098  0.00  0.00    +0.000 HD
BRANCH  15  17
ATOM     17  C   UNL     1       4.114   3.291  17.971  0.00  0.00    +0.000 C 
BRANCH  17  18
ATOM     18  C   UNL     1       3.090   3.178  19.068  0.00  0.00    +0.000 A 
ATOM     19  C   UNL     1       1.724   3.268  18.762  0.00  0.00    +0.000 A 
ATOM     20  C   UNL     1       0.764   3.094  19.761  0.00  0.00    +0.000 A 
ATOM     21  C   UNL     1       1.164   2.841  21.072  0.00  0.00    +0.000 A 
ATOM     22  C   UNL     1       2.514   2.764  21.388  0.00  0.00    +0.000 A 
ATOM     23  C   UNL     1       3.479   2.936  20.395  0.00  0.00    +0.000 A 
ENDBRANCH  17  18
ENDBRANCH  15  17
ENDBRANCH  13  15
ENDBRANCH   1  13
BRANCH   9  24
ATOM     24  C   UNL     1      -0.413   9.193  22.436  0.00  0.00    +0.000 C 
ATOM     25  F   UNL     1      -1.057   8.152  21.858  0.00  0.00    +0.000 F 
ENDBRANCH   9  24
TORSDOF 5
ENDMDL
MODEL 8
REMARK VINA RESULT:      -7.5      4.181      5.848
REMARK  Name = 
REMARK  5 active torsions:
REMARK  status: ('A' for Active; 'I' for Inactive)
REMARK    1  A    between atoms: S_2  and  N_4
REMARK    2  A    between atoms: S_2  and  C_12
REMARK    3  A    between atoms: N_4  and  C_5
REMARK    4  A    between atoms: C_5  and  C_6
REMARK    5  A    between atoms: C_20  and  C_21
REMARK                            x       y       z     vdW  Elec       q    Type
REMARK                         _______ _______ _______ _____ _____    ______ ____
ROOT
ATOM      1  C   UNL     1       5.376   5.219  17.175  0.00  0.00    +0.000 A 
ATOM      2  C   UNL     1       4.827   6.439  17.584  0.00  0.00    +0.000 A 
ATOM      3  C   UNL     1       3.674   6.463  18.419  0.00  0.00    +0.000 A 
ATOM      4  C   UNL     1       3.148   5.264  18.938  0.00  0.00    +0.000 A 
ATOM      5  C   UNL     1       3.799   4.082  18.575  0.00  0.00    +0.000 A 
ATOM      6  C   UNL     1       4.796   4.038  17.607  0.00  0.00    +0.000 A 
ATOM      7  C   UNL     1       3.568   2.823  19.357  0.00  0.00    +0.000 C 
ATOM      8  N   UNL     1       3.359   3.173  20.766  0.00  0.00    +0.000 NA
ATOM      9  C   UNL     1       2.067   3.877  20.885  0.00  0.00    +0.000 C 
ATOM     10  C   UNL     1       1.989   5.143  19.935  0.00  0.00    +0.000 C 
ATOM     11  H   UNL     1       4.103   3.816  21.050  0.00  0.00    +0.000 HD
ENDROOT
BRANCH   1  13
ATOM     12  O   UNL     1       7.825   4.369  17.431  0.00  0.00    +0.000 OA
ATOM     13  S   UNL     1       6.996   5.032  16.445  0.00  0.00    +0.000 S 
ATOM     14  O   UNL     1       7.370   6.306  15.877  0.00  0.00    +0.000 OA
BRANCH  13  15
ATOM     15  N   UNL     1       6.749   3.911  15.211  0.00  0.00    +0.000 NA
ATOM     16  H   UNL     1       5.921   3.332  15.341  0.00  0.00    +0.000 HD
BRANCH  15  17
ATOM     17  C   UNL     1       6.860   4.476  13.864  0.00  0.00    +0.000 C 
BRANCH  17  18
ATOM     18  C   UNL     1       6.133   3.653  12.835  0.00  0.00    +0.000 A 
ATOM     19  C   UNL     1       4.784   3.916  12.555  0.00  0.00    +0.000 A 
ATOM     20  C   UNL     1       4.119   3.207  11.553  0.00  0.00    +0.000 A 
ATOM     21  C   UNL     1       4.795   2.223  10.833  0.00  0.00    +0.000 A 
ATOM     22  C   UNL     1       6.127   1.946  11.112  0.00  0.00    +0.000 A 
ATOM     23  C   UNL     1       6.798   2.650  12.112  0.00  0.00    +0.000 A 
ENDBRANCH  17  18
ENDBRANCH  15  17
ENDBRANCH  13  15
ENDBRANCH   1  13
BRANCH   9  24
ATOM     24  C   UNL     1       0.998   2.757  20.801  0.00  0.00    +0.000 C 
ATOM     25  F   UNL     1       0.311   2.809  19.635  0.00  0.00    +0.000 F 
ENDBRANCH   9  24
TORSDOF 5
ENDMDL
MODEL 9
REMARK VINA RESULT:      -7.4      3.948      5.752
REMARK  Name = 
REMARK  5 active torsions:
REMARK  status: ('A' for Active; 'I' for Inactive)
REMARK    1  A    between atoms: S_2  and  N_4
REMARK    2  A    between atoms: S_2  and  C_12
REMARK    3  A    between atoms: N_4  and  C_5
REMARK    4  A    between atoms: C_5  and  C_6
REMARK    5  A    between atoms: C_20  and  C_21
REMARK                            x       y       z     vdW  Elec       q    Type
REMARK                         _______ _______ _______ _____ _____    ______ ____
ROOT
ATOM      1  C   UNL     1       5.532   5.539  17.520  0.00  0.00    +0.000 A 
ATOM      2  C   UNL     1       4.634   6.609  17.574  0.00  0.00    +0.000 A 
ATOM      3  C   UNL     1       3.285   6.396  17.977  0.00  0.00    +0.000 A 
ATOM      4  C   UNL     1       2.875   5.130  18.440  0.00  0.00    +0.000 A 
ATOM      5  C   UNL     1       3.843   4.123  18.459  0.00  0.00    +0.000 A 
ATOM      6  C   UNL     1       5.099   4.274  17.882  0.00  0.00    +0.000 A 
ATOM      7  C   UNL     1       3.624   2.881  19.272  0.00  0.00    +0.000 C 
ATOM      8  N   UNL     1       2.872   3.235  20.481  0.00  0.00    +0.000 NA
ATOM      9  C   UNL     1       1.502   3.614  20.084  0.00  0.00    +0.000 C 
ATOM     10  C   UNL     1       1.496   4.781  19.011  0.00  0.00    +0.000 C 
ATOM     11  H   UNL     1       3.320   4.048  20.911  0.00  0.00    +0.000 HD
ENDROOT
BRANCH   1  13
ATOM     12  O   UNL     1       7.876   5.089  18.565  0.00  0.00    +0.000 OA
ATOM     13  S   UNL     1       7.305   5.711  17.388  0.00  0.00    +0.000 S 
ATOM     14  O   UNL     1       7.588   7.086  17.048  0.00  0.00    +0.000 OA
BRANCH  13  15
ATOM     15  N   UNL     1       7.706   4.712  16.090  0.00  0.00    +0.000 NA
ATOM     16  H   UNL     1       7.244   3.805  16.112  0.00  0.00    +0.000 HD
BRANCH  15  17
ATOM     17  C   UNL     1       7.632   5.374  14.786  0.00  0.00    +0.000 C 
BRANCH  17  18
ATOM     18  C   UNL     1       6.880   4.556  13.770  0.00  0.00    +0.000 A 
ATOM     19  C   UNL     1       5.570   4.135  14.042  0.00  0.00    +0.000 A 
ATOM     20  C   UNL     1       4.839   3.438  13.079  0.00  0.00    +0.000 A 
ATOM     21  C   UNL     1       5.416   3.147  11.844  0.00  0.00    +0.000 A 
ATOM     22  C   UNL     1       6.717   3.549  11.570  0.00  0.00    +0.000 A 
ATOM     23  C   UNL     1       7.454   4.246  12.527  0.00  0.00    +0.000 A 
ENDBRANCH  17  18
ENDBRANCH  15  17
ENDBRANCH  13  15
ENDBRANCH   1  13
BRANCH   9  24
ATOM     24  C   UNL     1       0.788   2.269  19.795  0.00  0.00    +0.000 C 
ATOM     25  F   UNL     1       0.313   2.218  18.528  0.00  0.00    +0.000 F 
ENDBRANCH   9  24
TORSDOF 5
ENDMDL
