MODEL 1
REMARK VINA RESULT:      -7.6      0.000      0.000
REMARK  Name = 
REMARK  3 active torsions:
REMARK  status: ('A' for Active; 'I' for Inactive)
REMARK    1  A    between atoms: C_1  and  C_2
REMARK    2  A    between atoms: C_6  and  C_7
REMARK    3  A    between atoms: C_11  and  C_12
REMARK                            x       y       z     vdW  Elec       q    Type
REMARK                         _______ _______ _______ _____ _____    ______ ____
ROOT
ATOM      1  C   UNL     1       5.704   4.532  15.918  0.00  0.00    +0.000 A 
ATOM      2  N   UNL     1       4.436   4.552  16.183  0.00  0.00    +0.000 NA
ATOM      3  C   UNL     1       4.145   4.693  17.490  0.00  0.00    +0.000 A 
ATOM      4  S   UNL     1       2.546   4.717  18.066  0.00  0.00    +0.000 S 
ATOM      5  C   UNL     1       3.065   4.896  19.689  0.00  0.00    +0.000 A 
ATOM      6  C   UNL     1       2.065   4.977  20.790  0.00  0.00    +0.000 C 
ATOM      7  C   UNL     1       4.443   4.945  19.779  0.00  0.00    +0.000 A 
ATOM      8  C   UNL     1       5.061   4.822  18.498  0.00  0.00    +0.000 A 
ATOM      9  C   UNL     1       6.454   4.809  18.134  0.00  0.00    +0.000 A 
ATOM     10  O   UNL     1       7.354   4.922  18.960  0.00  0.00    +0.000 OA
ATOM     11  O   UNL     1       6.733   4.654  16.800  0.00  0.00    +0.000 OA
ENDROOT
BRANCH   1  17
ATOM     12  C   UNL     1       5.442   2.403  11.353  0.00  0.00    +0.000 C 
ATOM     13  C   UNL     1       6.099   3.350  12.313  0.00  0.00    +0.000 A 
ATOM     14  C   UNL     1       7.171   4.155  11.907  0.00  0.00    +0.000 A 
ATOM     15  C   UNL     1       7.763   5.046  12.801  0.00  0.00    +0.000 A 
ATOM     16  C   UNL     1       7.285   5.146  14.105  0.00  0.00    +0.000 A 
ATOM     17  C   UNL     1       6.210   4.351  14.531  0.00  0.00    +0.000 A 
ATOM     18  C   UNL     1       5.628   3.448  13.632  0.00  0.00    +0.000 A 
ENDBRANCH   1  17
TORSDOF 1
ENDMDL
MODEL 2
REMARK VINA RESULT:      -7.6      0.956      1.000
REMARK  Name = 
REMARK  3 active torsions:
REMARK  status: ('A' for Active; 'I' for Inactive)
REMARK    1  A    between atoms: C_1  and  C_2
REMARK    2  A    between atoms: C_6  and  C_7
REMARK    3  A    between atoms: C_11  and  C_12
REMARK                            x       y       z     vdW  Elec       q    Type
REMARK                         _______ _______ _______ _____ _____    ______ ____
ROOT
ATOM      1  C   UNL     1       5.229   4.254  16.417  0.00  0.00    +0.000 A 
ATOM      2  N   UNL     1       3.993   3.893  16.561  0.00  0.00    +0.000 NA
ATOM      3  C   UNL     1       3.553   3.917  17.833  0.00  0.00    +0.000 A 
ATOM      4  S   UNL     1       1.973   3.454  18.255  0.00  0.00    +0.000 S 
ATOM      5  C   UNL     1       2.262   3.748  19.918  0.00  0.00    +0.000 A 
ATOM      6  C   UNL     1       1.185   3.508  20.919  0.00  0.00    +0.000 C 
ATOM      7  C   UNL     1       3.548   4.202  20.137  0.00  0.00    +0.000 A 
ATOM      8  C   UNL     1       4.291   4.292  18.922  0.00  0.00    +0.000 A 
ATOM      9  C   UNL     1       5.653   4.699  18.691  0.00  0.00    +0.000 A 
ATOM     10  O   UNL     1       6.398   5.058  19.597  0.00  0.00    +0.000 OA
ATOM     11  O   UNL     1       6.089   4.660  17.391  0.00  0.00    +0.000 OA
ENDROOT
BRANCH   1  17
ATOM     12  C   UNL     1       5.488   2.794  11.597  0.00  0.00    +0.000 C 
ATOM     13  C   UNL     1       6.035   3.581  12.750  0.00  0.00    +0.000 A 
ATOM     14  C   UNL     1       7.153   4.409  12.588  0.00  0.00    +0.000 A 
ATOM     15  C   UNL     1       7.643   5.152  13.662  0.00  0.00    +0.000 A 
ATOM     16  C   UNL     1       7.015   5.079  14.904  0.00  0.00    +0.000 A 
ATOM     17  C   UNL     1       5.893   4.258  15.086  0.00  0.00    +0.000 A 
ATOM     18  C   UNL     1       5.413   3.504  14.007  0.00  0.00    +0.000 A 
ENDBRANCH   1  17
TORSDOF 1
ENDMDL
MODEL 3
REMARK VINA RESULT:      -7.5      2.061      6.418
REMARK  Name = 
REMARK  3 active torsions:
REMARK  status: ('A' for Active; 'I' for Inactive)
REMARK    1  A    between atoms: C_1  and  C_2
REMARK    2  A    between atoms: C_6  and  C_7
REMARK    3  A    between atoms: C_11  and  C_12
REMARK                            x       y       z     vdW  Elec       q    Type
REMARK                         _______ _______ _______ _____ _____    ______ ____
ROOT
ATOM      1  C   UNL     1       4.337   3.827  17.651  0.00  0.00    +0.000 A 
ATOM      2  N   UNL     1       4.285   3.841  16.356  0.00  0.00    +0.000 NA
ATOM      3  C   UNL     1       5.423   4.241  15.759  0.00  0.00    +0.000 A 
ATOM      4  S   UNL     1       5.568   4.363  14.071  0.00  0.00    +0.000 S 
ATOM      5  C   UNL     1       7.188   4.910  14.184  0.00  0.00    +0.000 A 
ATOM      6  C   UNL     1       7.957   5.235  12.950  0.00  0.00    +0.000 C 
ATOM      7  C   UNL     1       7.607   4.986  15.498  0.00  0.00    +0.000 A 
ATOM      8  C   UNL     1       6.575   4.601  16.405  0.00  0.00    +0.000 A 
ATOM      9  C   UNL     1       6.572   4.546  17.845  0.00  0.00    +0.000 A 
ATOM     10  O   UNL     1       7.553   4.843  18.519  0.00  0.00    +0.000 OA
ATOM     11  O   UNL     1       5.401   4.146  18.437  0.00  0.00    +0.000 OA
ENDROOT
BRANCH   1  17
ATOM     12  C   UNL     1       2.137   3.028  22.118  0.00  0.00    +0.000 C 
ATOM     13  C   UNL     1       2.068   3.063  20.620  0.00  0.00    +0.000 A 
ATOM     14  C   UNL     1       0.865   2.805  19.950  0.00  0.00    +0.000 A 
ATOM     15  C   UNL     1       0.807   2.859  18.558  0.00  0.00    +0.000 A 
ATOM     16  C   UNL     1       1.948   3.178  17.825  0.00  0.00    +0.000 A 
ATOM     17  C   UNL     1       3.161   3.442  18.476  0.00  0.00    +0.000 A 
ATOM     18  C   UNL     1       3.217   3.373  19.875  0.00  0.00    +0.000 A 
ENDBRANCH   1  17
TORSDOF 1
ENDMDL
MODEL 4
REMARK VINA RESULT:      -7.4      1.705      1.939
REMARK  Name = 
REMARK  3 active torsions:
REMARK  status: ('A' for Active; 'I' for Inactive)
REMARK    1  A    between atoms: C_1  and  C_2
REMARK    2  A    between atoms: C_6  and  C_7
REMARK    3  A    between atoms: C_11  and  C_12
REMARK                            x       y       z     vdW  Elec       q    Type
REMARK                         _______ _______ _______ _____ _____    ______ ____
ROOT
ATOM      1  C   UNL     1       4.790   4.457  16.418  0.00  0.00    +0.000 A 
ATOM      2  N   UNL     1       4.486   3.396  17.097  0.00  0.00    +0.000 NA
ATOM      3  C   UNL     1       3.778   3.637  18.216  0.00  0.00    +0.000 A 
ATOM      4  S   UNL     1       3.297   2.395  19.271  0.00  0.00    +0.000 S 
ATOM      5  C   UNL     1       2.537   3.502  20.334  0.00  0.00    +0.000 A 
ATOM      6  C   UNL     1       1.871   3.014  21.573  0.00  0.00    +0.000 C 
ATOM      7  C   UNL     1       2.647   4.801  19.877  0.00  0.00    +0.000 A 
ATOM      8  C   UNL     1       3.373   4.870  18.650  0.00  0.00    +0.000 A 
ATOM      9  C   UNL     1       3.729   6.007  17.840  0.00  0.00    +0.000 A 
ATOM     10  O   UNL     1       3.411   7.155  18.137  0.00  0.00    +0.000 OA
ATOM     11  O   UNL     1       4.458   5.745  16.709  0.00  0.00    +0.000 OA
ENDROOT
BRANCH   1  17
ATOM     12  C   UNL     1       5.491   2.844  11.692  0.00  0.00    +0.000 C 
ATOM     13  C   UNL     1       5.954   3.631  12.882  0.00  0.00    +0.000 A 
ATOM     14  C   UNL     1       7.132   4.387  12.827  0.00  0.00    +0.000 A 
ATOM     15  C   UNL     1       7.545   5.131  13.932  0.00  0.00    +0.000 A 
ATOM     16  C   UNL     1       6.780   5.132  15.097  0.00  0.00    +0.000 A 
ATOM     17  C   UNL     1       5.596   4.384  15.170  0.00  0.00    +0.000 A 
ATOM     18  C   UNL     1       5.193   3.627  14.062  0.00  0.00    +0.000 A 
ENDBRANCH   1  17
TORSDOF 1
ENDMDL
MODEL 5
REMARK VINA RESULT:      -7.3      0.840      1.830
REMARK  Name = 
REMARK  3 active torsions:
REMARK  status: ('A' for Active; 'I' for Inactive)
REMARK    1  A    between atoms: C_1  and  C_2
REMARK    2  A    between atoms: C_6  and  C_7
REMARK    3  A    between atoms: C_11  and  C_12
REMARK                            x       y       z     vdW  Elec       q    Type
REMARK                         _______ _______ _______ _____ _____    ______ ____
ROOT
ATOM      1  C   UNL     1       5.245   4.284  16.012  0.00  0.00    +0.000 A 
ATOM      2  N   UNL     1       3.977   4.063  16.164  0.00  0.00    +0.000 NA
ATOM      3  C   UNL     1       3.567   4.046  17.446  0.00  0.00    +0.000 A 
ATOM      4  S   UNL     1       1.951   3.745  17.877  0.00  0.00    +0.000 S 
ATOM      5  C   UNL     1       2.303   3.879  19.548  0.00  0.00    +0.000 A 
ATOM      6  C   UNL     1       1.224   3.697  20.558  0.00  0.00    +0.000 C 
ATOM      7  C   UNL     1       3.639   4.159  19.764  0.00  0.00    +0.000 A 
ATOM      8  C   UNL     1       4.365   4.249  18.538  0.00  0.00    +0.000 A 
ATOM      9  C   UNL     1       5.762   4.506  18.300  0.00  0.00    +0.000 A 
ATOM     10  O   UNL     1       6.562   4.706  19.209  0.00  0.00    +0.000 OA
ATOM     11  O   UNL     1       6.166   4.511  16.989  0.00  0.00    +0.000 OA
ENDROOT
BRANCH   1  17
ATOM     12  C   UNL     1       8.812   5.888  12.827  0.00  0.00    +0.000 C 
ATOM     13  C   UNL     1       7.598   5.053  13.111  0.00  0.00    +0.000 A 
ATOM     14  C   UNL     1       7.065   4.206  12.131  0.00  0.00    +0.000 A 
ATOM     15  C   UNL     1       5.948   3.419  12.409  0.00  0.00    +0.000 A 
ATOM     16  C   UNL     1       5.359   3.467  13.671  0.00  0.00    +0.000 A 
ATOM     17  C   UNL     1       5.880   4.307  14.667  0.00  0.00    +0.000 A 
ATOM     18  C   UNL     1       6.994   5.105  14.377  0.00  0.00    +0.000 A 
ENDBRANCH   1  17
TORSDOF 1
ENDMDL
MODEL 6
REMARK VINA RESULT:      -7.0      1.570      1.733
REMARK  Name = 
REMARK  3 active torsions:
REMARK  status: ('A' for Active; 'I' for Inactive)
REMARK    1  A    between atoms: C_1  and  C_2
REMARK    2  A    between atoms: C_6  and  C_7
REMARK    3  A    between atoms: C_11  and  C_12
REMARK                            x       y       z     vdW  Elec       q    Type
REMARK                         _______ _______ _______ _____ _____    ______ ____
ROOT
ATOM      1  C   UNL     1       5.031   4.753  16.016  0.00  0.00    +0.000 A 
ATOM      2  N   UNL     1       4.591   5.934  16.316  0.00  0.00    +0.000 NA
ATOM      3  C   UNL     1       3.921   5.997  17.482  0.00  0.00    +0.000 A 
ATOM      4  S   UNL     1       3.233   7.441  18.056  0.00  0.00    +0.000 S 
ATOM      5  C   UNL     1       2.621   6.668  19.457  0.00  0.00    +0.000 A 
ATOM      6  C   UNL     1       1.840   7.445  20.460  0.00  0.00    +0.000 C 
ATOM      7  C   UNL     1       2.950   5.326  19.481  0.00  0.00    +0.000 A 
ATOM      8  C   UNL     1       3.701   4.946  18.329  0.00  0.00    +0.000 A 
ATOM      9  C   UNL     1       4.231   3.662  17.945  0.00  0.00    +0.000 A 
ATOM     10  O   UNL     1       4.094   2.657  18.635  0.00  0.00    +0.000 OA
ATOM     11  O   UNL     1       4.902   3.614  16.750  0.00  0.00    +0.000 OA
ENDROOT
BRANCH   1  17
ATOM     12  C   UNL     1       5.402   2.569  11.485  0.00  0.00    +0.000 C 
ATOM     13  C   UNL     1       5.966   3.461  12.552  0.00  0.00    +0.000 A 
ATOM     14  C   UNL     1       7.177   4.137  12.355  0.00  0.00    +0.000 A 
ATOM     15  C   UNL     1       7.683   4.979  13.344  0.00  0.00    +0.000 A 
ATOM     16  C   UNL     1       6.982   5.156  14.535  0.00  0.00    +0.000 A 
ATOM     17  C   UNL     1       5.766   4.490  14.750  0.00  0.00    +0.000 A 
ATOM     18  C   UNL     1       5.269   3.635  13.757  0.00  0.00    +0.000 A 
ENDBRANCH   1  17
TORSDOF 1
ENDMDL
MODEL 7
REMARK VINA RESULT:      -7.0      1.603      2.366
REMARK  Name = 
REMARK  3 active torsions:
REMARK  status: ('A' for Active; 'I' for Inactive)
REMARK    1  A    between atoms: C_1  and  C_2
REMARK    2  A    between atoms: C_6  and  C_7
REMARK    3  A    between atoms: C_11  and  C_12
REMARK                            x       y       z     vdW  Elec       q    Type
REMARK                         _______ _______ _______ _____ _____    ______ ____
ROOT
ATOM      1  C   UNL     1       5.031   4.536  15.928  0.00  0.00    +0.000 A 
ATOM      2  N   UNL     1       4.744   3.476  16.616  0.00  0.00    +0.000 NA
ATOM      3  C   UNL     1       4.127   3.725  17.787  0.00  0.00    +0.000 A 
ATOM      4  S   UNL     1       3.686   2.484  18.861  0.00  0.00    +0.000 S 
ATOM      5  C   UNL     1       3.039   3.601  19.988  0.00  0.00    +0.000 A 
ATOM      6  C   UNL     1       2.449   3.118  21.267  0.00  0.00    +0.000 C 
ATOM      7  C   UNL     1       3.155   4.902  19.536  0.00  0.00    +0.000 A 
ATOM      8  C   UNL     1       3.792   4.964  18.260  0.00  0.00    +0.000 A 
ATOM      9  C   UNL     1       4.123   6.099  17.439  0.00  0.00    +0.000 A 
ATOM     10  O   UNL     1       3.863   7.252  17.768  0.00  0.00    +0.000 OA
ATOM     11  O   UNL     1       4.760   5.829  16.254  0.00  0.00    +0.000 OA
ENDROOT
BRANCH   1  17
ATOM     12  C   UNL     1       8.815   5.840  12.859  0.00  0.00    +0.000 C 
ATOM     13  C   UNL     1       7.565   5.053  13.126  0.00  0.00    +0.000 A 
ATOM     14  C   UNL     1       7.068   4.153  12.175  0.00  0.00    +0.000 A 
ATOM     15  C   UNL     1       5.916   3.412  12.439  0.00  0.00    +0.000 A 
ATOM     16  C   UNL     1       5.257   3.559  13.658  0.00  0.00    +0.000 A 
ATOM     17  C   UNL     1       5.742   4.453  14.624  0.00  0.00    +0.000 A 
ATOM     18  C   UNL     1       6.891   5.205  14.348  0.00  0.00    +0.000 A 
ENDBRANCH   1  17
TORSDOF 1
ENDMDL
MODEL 8
REMARK VINA RESULT:      -7.0      1.771      6.412
REMARK  Name = 
REMARK  3 active torsions:
REMARK  status: ('A' for Active; 'I' for Inactive)
REMARK    1  A    between atoms: C_1  and  C_2
REMARK    2  A    between atoms: C_6  and  C_7
REMARK    3  A    between atoms: C_11  and  C_12
REMARK                            x       y       z     vdW  Elec       q    Type
REMARK                         _______ _______ _______ _____ _____    ______ ____
ROOT
ATOM      1  C   UNL     1       4.640   5.023  17.406  0.00  0.00    +0.000 A 
ATOM      2  N   UNL     1       4.414   4.300  16.355  0.00  0.00    +0.000 NA
ATOM      3  C   UNL     1       5.345   4.418  15.390  0.00  0.00    +0.000 A 
ATOM      4  S   UNL     1       5.234   3.583  13.915  0.00  0.00    +0.000 S 
ATOM      5  C   UNL     1       6.691   4.275  13.338  0.00  0.00    +0.000 A 
ATOM      6  C   UNL     1       7.197   3.931  11.980  0.00  0.00    +0.000 C 
ATOM      7  C   UNL     1       7.253   5.125  14.271  0.00  0.00    +0.000 A 
ATOM      8  C   UNL     1       6.463   5.205  15.457  0.00  0.00    +0.000 A 
ATOM      9  C   UNL     1       6.663   5.971  16.660  0.00  0.00    +0.000 A 
ATOM     10  O   UNL     1       7.634   6.703  16.823  0.00  0.00    +0.000 OA
ATOM     11  O   UNL     1       5.700   5.847  17.629  0.00  0.00    +0.000 OA
ENDROOT
BRANCH   1  17
ATOM     12  C   UNL     1       2.441   2.799  21.363  0.00  0.00    +0.000 C 
ATOM     13  C   UNL     1       2.633   3.999  20.484  0.00  0.00    +0.000 A 
ATOM     14  C   UNL     1       1.983   5.207  20.767  0.00  0.00    +0.000 A 
ATOM     15  C   UNL     1       2.182   6.323  19.955  0.00  0.00    +0.000 A 
ATOM     16  C   UNL     1       3.037   6.243  18.858  0.00  0.00    +0.000 A 
ATOM     17  C   UNL     1       3.699   5.043  18.559  0.00  0.00    +0.000 A 
ATOM     18  C   UNL     1       3.485   3.921  19.370  0.00  0.00    +0.000 A 
ENDBRANCH   1  17
TORSDOF 1
ENDMDL
MODEL 9
REMARK VINA RESULT:      -6.9      2.484      3.301
REMARK  Name = 
REMARK  3 active torsions:
REMARK  status: ('A' for Active; 'I' for Inactive)
REMARK    1  A    between atoms: C_1  and  C_2
REMARK    2  A    between atoms: C_6  and  C_7
REMARK    3  A    between atoms: C_11  and  C_12
REMARK                            x       y       z     vdW  Elec       q    Type
REMARK                         _______ _______ _______ _____ _____    ______ ____
ROOT
ATOM      1  C   UNL     1       4.194   3.858  17.306  0.00  0.00    +0.000 A 
ATOM      2  N   UNL     1       4.449   3.378  18.483  0.00  0.00    +0.000 NA
ATOM      3  C   UNL     1       3.363   3.204  19.258  0.00  0.00    +0.000 A 
ATOM      4  S   UNL     1       3.469   2.614  20.849  0.00  0.00    +0.000 S 
ATOM      5  C   UNL     1       1.774   2.722  21.071  0.00  0.00    +0.000 A 
ATOM      6  C   UNL     1       1.162   2.328  22.371  0.00  0.00    +0.000 C 
ATOM      7  C   UNL     1       1.143   3.196  19.937  0.00  0.00    +0.000 A 
ATOM      8  C   UNL     1       2.073   3.476  18.892  0.00  0.00    +0.000 A 
ATOM      9  C   UNL     1       1.856   3.991  17.565  0.00  0.00    +0.000 A 
ATOM     10  O   UNL     1       0.739   4.264  17.136  0.00  0.00    +0.000 OA
ATOM     11  O   UNL     1       2.974   4.173  16.791  0.00  0.00    +0.000 OA
ENDROOT
BRANCH   1  17
ATOM     12  C   UNL     1       6.152   3.584  12.667  0.00  0.00    +0.000 C 
ATOM     13  C   UNL     1       6.240   4.042  14.093  0.00  0.00    +0.000 A 
ATOM     14  C   UNL     1       7.316   4.823  14.531  0.00  0.00    +0.000 A 
ATOM     15  C   UNL     1       7.380   5.259  15.853  0.00  0.00    +0.000 A 
ATOM     16  C   UNL     1       6.364   4.924  16.747  0.00  0.00    +0.000 A 
ATOM     17  C   UNL     1       5.276   4.145  16.327  0.00  0.00    +0.000 A 
ATOM     18  C   UNL     1       5.225   3.698  15.000  0.00  0.00    +0.000 A 
ENDBRANCH   1  17
TORSDOF 1
ENDMDL
