MODEL 1
REMARK VINA RESULT:      -8.8      0.000      0.000
REMARK  Name = 
REMARK  10 active torsions:
REMARK  status: ('A' for Active; 'I' for Inactive)
REMARK    1  A    between atoms: C_1  and  N_2
REMARK    2  A    between atoms: N_2  and  C_27
REMARK    3  A    between atoms: C_3  and  C_5
REMARK    4  A    between atoms: C_5  and  C_6
REMARK    5  A    between atoms: C_6  and  C_7
REMARK    6  A    between atoms: N_16  and  C_17
REMARK    7  A    between atoms: C_17  and  C_18
REMARK    8  A    between atoms: C_18  and  C_19
REMARK    9  A    between atoms: C_27  and  C_28
REMARK   10  A    between atoms: C_27  and  C_31
REMARK                            x       y       z     vdW  Elec       q    Type
REMARK                         _______ _______ _______ _____ _____    ______ ____
ROOT
ATOM      1  C   UNL     1       3.482   5.419  18.622  0.00  0.00    +0.000 C 
ATOM      2  C   UNL     1       4.536   5.822  19.676  0.00  0.00    +0.000 C 
ATOM      3  C   UNL     1       5.835   5.307  19.125  0.00  0.00    +0.000 C 
ATOM      4  O   UNL     1       6.903   5.394  19.719  0.00  0.00    +0.000 OA
ATOM      5  N   UNL     1       5.628   4.761  17.892  0.00  0.00    +0.000 N 
ATOM      6  C   UNL     1       4.333   4.894  17.467  0.00  0.00    +0.000 C 
ATOM      7  O   UNL     1       3.899   4.608  16.360  0.00  0.00    +0.000 OA
ENDROOT
BRANCH   1   8
ATOM      8  C   UNL     1       2.591   4.279  19.193  0.00  0.00    +0.000 A 
ATOM      9  C   UNL     1       1.520   3.720  18.471  0.00  0.00    +0.000 A 
ATOM     10  C   UNL     1       0.648   2.798  19.059  0.00  0.00    +0.000 A 
ATOM     11  C   UNL     1       0.837   2.392  20.375  0.00  0.00    +0.000 A 
ATOM     12  C   UNL     1       1.925   2.880  21.091  0.00  0.00    +0.000 A 
ATOM     13  C   UNL     1       2.797   3.802  20.505  0.00  0.00    +0.000 A 
ENDBRANCH   1   8
BRANCH   1  14
ATOM     14  C   UNL     1       2.648   6.647  18.161  0.00  0.00    +0.000 C 
BRANCH  14  17
ATOM     15  C   UNL     1       2.301   9.486  17.896  0.00  0.00    +0.000 C 
ATOM     16  N   UNL     1       1.724   8.789  19.044  0.00  0.00    +0.000 N 
ATOM     17  C   UNL     1       1.930   7.421  19.266  0.00  0.00    +0.000 C 
ATOM     18  O   UNL     1       1.515   6.836  20.268  0.00  0.00    +0.000 OA
BRANCH  16  19
ATOM     19  C   UNL     1       0.592   9.427  19.747  0.00  0.00    +0.000 C 
BRANCH  19  20
ATOM     20  C   UNL     1       1.001  10.071  21.059  0.00  0.00    +0.000 C 
ATOM     21  C   UNL     1       0.080  10.033  22.267  0.00  0.00    +0.000 C 
ATOM     22  C   UNL     1       1.319   9.193  22.253  0.00  0.00    +0.000 C 
ENDBRANCH  19  20
BRANCH  19  23
ATOM     23  C   UNL     1      -0.071  10.426  18.819  0.00  0.00    +0.000 C 
ATOM     24  C   UNL     1      -1.167   9.991  17.876  0.00  0.00    +0.000 C 
ATOM     25  C   UNL     1      -1.501  10.853  19.057  0.00  0.00    +0.000 C 
ENDBRANCH  19  23
ENDBRANCH  16  19
ENDBRANCH  14  17
ENDBRANCH   1  14
BRANCH   5  26
ATOM     26  C   UNL     1       6.715   4.269  17.050  0.00  0.00    +0.000 C 
BRANCH  26  27
ATOM     27  C   UNL     1       7.251   5.333  16.086  0.00  0.00    +0.000 C 
BRANCH  27  28
ATOM     28  C   UNL     1       7.120   4.902  14.649  0.00  0.00    +0.000 A 
ATOM     29  C   UNL     1       6.249   3.878  14.282  0.00  0.00    +0.000 A 
ATOM     30  C   UNL     1       6.165   3.513  12.939  0.00  0.00    +0.000 A 
ATOM     31  C   UNL     1       6.953   4.170  12.004  0.00  0.00    +0.000 A 
ATOM     32  C   UNL     1       7.800   5.170  12.452  0.00  0.00    +0.000 A 
ATOM     33  N   UNL     1       7.903   5.543  13.749  0.00  0.00    +0.000 NA
ENDBRANCH  27  28
ENDBRANCH  26  27
ENDBRANCH   5  26
TORSDOF 9
ENDMDL
MODEL 2
REMARK VINA RESULT:      -7.8      0.435      1.706
REMARK  Name = 
REMARK  10 active torsions:
REMARK  status: ('A' for Active; 'I' for Inactive)
REMARK    1  A    between atoms: C_1  and  N_2
REMARK    2  A    between atoms: N_2  and  C_27
REMARK    3  A    between atoms: C_3  and  C_5
REMARK    4  A    between atoms: C_5  and  C_6
REMARK    5  A    between atoms: C_6  and  C_7
REMARK    6  A    between atoms: N_16  and  C_17
REMARK    7  A    between atoms: C_17  and  C_18
REMARK    8  A    between atoms: C_18  and  C_19
REMARK    9  A    between atoms: C_27  and  C_28
REMARK   10  A    between atoms: C_27  and  C_31
REMARK                            x       y       z     vdW  Elec       q    Type
REMARK                         _______ _______ _______ _____ _____    ______ ____
ROOT
ATOM      1  C   UNL     1       3.456   5.371  18.751  0.00  0.00    +0.000 C 
ATOM      2  C   UNL     1       4.613   5.831  19.665  0.00  0.00    +0.000 C 
ATOM      3  C   UNL     1       5.851   5.298  19.001  0.00  0.00    +0.000 C 
ATOM      4  O   UNL     1       6.975   5.420  19.471  0.00  0.00    +0.000 OA
ATOM      5  N   UNL     1       5.518   4.691  17.825  0.00  0.00    +0.000 N 
ATOM      6  C   UNL     1       4.183   4.796  17.538  0.00  0.00    +0.000 C 
ATOM      7  O   UNL     1       3.635   4.454  16.499  0.00  0.00    +0.000 OA
ENDROOT
BRANCH   1   8
ATOM      8  C   UNL     1       2.645   4.255  19.469  0.00  0.00    +0.000 A 
ATOM      9  C   UNL     1       1.453   3.724  18.942  0.00  0.00    +0.000 A 
ATOM     10  C   UNL     1       0.669   2.825  19.672  0.00  0.00    +0.000 A 
ATOM     11  C   UNL     1       1.068   2.414  20.938  0.00  0.00    +0.000 A 
ATOM     12  C   UNL     1       2.273   2.872  21.458  0.00  0.00    +0.000 A 
ATOM     13  C   UNL     1       3.058   3.771  20.729  0.00  0.00    +0.000 A 
ENDBRANCH   1   8
BRANCH   1  14
ATOM     14  C   UNL     1       2.562   6.570  18.326  0.00  0.00    +0.000 C 
BRANCH  14  17
ATOM     15  C   UNL     1       2.234   9.399  17.953  0.00  0.00    +0.000 C 
ATOM     16  N   UNL     1       1.782   8.774  19.195  0.00  0.00    +0.000 N 
ATOM     17  C   UNL     1       1.990   7.414  19.464  0.00  0.00    +0.000 C 
ATOM     18  O   UNL     1       1.684   6.890  20.536  0.00  0.00    +0.000 OA
BRANCH  16  19
ATOM     19  C   UNL     1       0.749   9.472  19.989  0.00  0.00    +0.000 C 
BRANCH  19  20
ATOM     20  C   UNL     1      -0.589   9.546  19.276  0.00  0.00    +0.000 C 
ATOM     21  C   UNL     1      -1.359  10.854  19.197  0.00  0.00    +0.000 C 
ATOM     22  C   UNL     1      -0.698  10.307  17.970  0.00  0.00    +0.000 C 
ENDBRANCH  19  20
BRANCH  19  23
ATOM     23  C   UNL     1       0.624   8.801  21.343  0.00  0.00    +0.000 C 
ATOM     24  C   UNL     1       1.140   9.480  22.589  0.00  0.00    +0.000 C 
ATOM     25  C   UNL     1      -0.338   9.343  22.374  0.00  0.00    +0.000 C 
ENDBRANCH  19  23
ENDBRANCH  16  19
ENDBRANCH  14  17
ENDBRANCH   1  14
BRANCH   5  26
ATOM     26  C   UNL     1       6.513   4.166  16.894  0.00  0.00    +0.000 C 
BRANCH  26  27
ATOM     27  C   UNL     1       7.117   5.249  15.994  0.00  0.00    +0.000 C 
BRANCH  27  28
ATOM     28  C   UNL     1       7.053   4.866  14.539  0.00  0.00    +0.000 A 
ATOM     29  C   UNL     1       6.207   3.849  14.100  0.00  0.00    +0.000 A 
ATOM     30  C   UNL     1       6.185   3.530  12.743  0.00  0.00    +0.000 A 
ATOM     31  C   UNL     1       7.008   4.224  11.866  0.00  0.00    +0.000 A 
ATOM     32  C   UNL     1       7.826   5.213  12.384  0.00  0.00    +0.000 A 
ATOM     33  N   UNL     1       7.869   5.543  13.696  0.00  0.00    +0.000 NA
ENDBRANCH  27  28
ENDBRANCH  26  27
ENDBRANCH   5  26
TORSDOF 9
ENDMDL
MODEL 3
REMARK VINA RESULT:      -7.7      3.729      6.976
REMARK  Name = 
REMARK  10 active torsions:
REMARK  status: ('A' for Active; 'I' for Inactive)
REMARK    1  A    between atoms: C_1  and  N_2
REMARK    2  A    between atoms: N_2  and  C_27
REMARK    3  A    between atoms: C_3  and  C_5
REMARK    4  A    between atoms: C_5  and  C_6
REMARK    5  A    between atoms: C_6  and  C_7
REMARK    6  A    between atoms: N_16  and  C_17
REMARK    7  A    between atoms: C_17  and  C_18
REMARK    8  A    between atoms: C_18  and  C_19
REMARK    9  A    between atoms: C_27  and  C_28
REMARK   10  A    between atoms: C_27  and  C_31
REMARK                            x       y       z     vdW  Elec       q    Type
REMARK                         _______ _______ _______ _____ _____    ______ ____
ROOT
ATOM      1  C   UNL     1       5.774   5.183  16.383  0.00  0.00    +0.000 C 
ATOM      2  C   UNL     1       6.537   4.226  17.325  0.00  0.00    +0.000 C 
ATOM      3  C   UNL     1       7.546   5.101  18.013  0.00  0.00    +0.000 C 
ATOM      4  O   UNL     1       8.378   4.678  18.805  0.00  0.00    +0.000 OA
ATOM      5  N   UNL     1       7.371   6.398  17.626  0.00  0.00    +0.000 N 
ATOM      6  C   UNL     1       6.297   6.559  16.791  0.00  0.00    +0.000 C 
ATOM      7  O   UNL     1       5.839   7.621  16.394  0.00  0.00    +0.000 OA
ENDROOT
BRANCH   1   8
ATOM      8  C   UNL     1       6.167   4.877  14.909  0.00  0.00    +0.000 A 
ATOM      9  C   UNL     1       5.436   3.989  14.098  0.00  0.00    +0.000 A 
ATOM     10  C   UNL     1       5.889   3.621  12.827  0.00  0.00    +0.000 A 
ATOM     11  C   UNL     1       7.071   4.151  12.323  0.00  0.00    +0.000 A 
ATOM     12  C   UNL     1       7.780   5.080  13.076  0.00  0.00    +0.000 A 
ATOM     13  C   UNL     1       7.329   5.448  14.347  0.00  0.00    +0.000 A 
ENDBRANCH   1   8
BRANCH   1  14
ATOM     14  C   UNL     1       4.240   5.099  16.615  0.00  0.00    +0.000 C 
BRANCH  14  17
ATOM     15  C   UNL     1       2.789   2.757  17.427  0.00  0.00    +0.000 C 
ATOM     16  N   UNL     1       3.153   3.765  18.421  0.00  0.00    +0.000 N 
ATOM     17  C   UNL     1       3.789   4.963  18.069  0.00  0.00    +0.000 C 
ATOM     18  O   UNL     1       4.034   5.855  18.883  0.00  0.00    +0.000 OA
BRANCH  16  19
ATOM     19  C   UNL     1       3.225   3.350  19.837  0.00  0.00    +0.000 C 
BRANCH  19  20
ATOM     20  C   UNL     1       2.042   2.499  20.262  0.00  0.00    +0.000 C 
ATOM     21  C   UNL     1       1.303   2.783  21.559  0.00  0.00    +0.000 C 
ATOM     22  C   UNL     1       0.650   3.097  20.249  0.00  0.00    +0.000 C 
ENDBRANCH  19  20
BRANCH  19  23
ATOM     23  C   UNL     1       4.541   2.637  20.081  0.00  0.00    +0.000 C 
ATOM     24  C   UNL     1       4.639   1.529  21.103  0.00  0.00    +0.000 C 
ATOM     25  C   UNL     1       4.723   1.203  19.641  0.00  0.00    +0.000 C 
ENDBRANCH  19  23
ENDBRANCH  16  19
ENDBRANCH  14  17
ENDBRANCH   1  14
BRANCH   5  26
ATOM     26  C   UNL     1       8.129   7.506  18.201  0.00  0.00    +0.000 C 
BRANCH  26  27
ATOM     27  C   UNL     1       7.811   8.852  17.540  0.00  0.00    +0.000 C 
BRANCH  27  28
ATOM     28  C   UNL     1       8.536   9.989  18.211  0.00  0.00    +0.000 A 
ATOM     29  C   UNL     1       9.192   9.805  19.427  0.00  0.00    +0.000 A 
ATOM     30  C   UNL     1       9.848  10.888  20.009  0.00  0.00    +0.000 A 
ATOM     31  C   UNL     1       9.826  12.122  19.371  0.00  0.00    +0.000 A 
ATOM     32  C   UNL     1       9.143  12.223  18.171  0.00  0.00    +0.000 A 
ATOM     33  N   UNL     1       8.497  11.189  17.583  0.00  0.00    +0.000 NA
ENDBRANCH  27  28
ENDBRANCH  26  27
ENDBRANCH   5  26
TORSDOF 9
ENDMDL
MODEL 4
REMARK VINA RESULT:      -7.7      3.582      6.844
REMARK  Name = 
REMARK  10 active torsions:
REMARK  status: ('A' for Active; 'I' for Inactive)
REMARK    1  A    between atoms: C_1  and  N_2
REMARK    2  A    between atoms: N_2  and  C_27
REMARK    3  A    between atoms: C_3  and  C_5
REMARK    4  A    between atoms: C_5  and  C_6
REMARK    5  A    between atoms: C_6  and  C_7
REMARK    6  A    between atoms: N_16  and  C_17
REMARK    7  A    between atoms: C_17  and  C_18
REMARK    8  A    between atoms: C_18  and  C_19
REMARK    9  A    between atoms: C_27  and  C_28
REMARK   10  A    between atoms: C_27  and  C_31
REMARK                            x       y       z     vdW  Elec       q    Type
REMARK                         _______ _______ _______ _____ _____    ______ ____
ROOT
ATOM      1  C   UNL     1       5.867   5.638  16.934  0.00  0.00    +0.000 C 
ATOM      2  C   UNL     1       6.428   4.709  18.032  0.00  0.00    +0.000 C 
ATOM      3  C   UNL     1       7.544   5.496  18.658  0.00  0.00    +0.000 C 
ATOM      4  O   UNL     1       8.267   5.056  19.543  0.00  0.00    +0.000 OA
ATOM      5  N   UNL     1       7.600   6.739  18.099  0.00  0.00    +0.000 N 
ATOM      6  C   UNL     1       6.597   6.955  17.192  0.00  0.00    +0.000 C 
ATOM      7  O   UNL     1       6.335   8.013  16.636  0.00  0.00    +0.000 OA
ENDROOT
BRANCH   1   8
ATOM      8  C   UNL     1       6.254   5.076  15.537  0.00  0.00    +0.000 A 
ATOM      9  C   UNL     1       7.449   5.427  14.882  0.00  0.00    +0.000 A 
ATOM     10  C   UNL     1       7.708   5.021  13.568  0.00  0.00    +0.000 A 
ATOM     11  C   UNL     1       6.790   4.234  12.883  0.00  0.00    +0.000 A 
ATOM     12  C   UNL     1       5.629   3.819  13.527  0.00  0.00    +0.000 A 
ATOM     13  C   UNL     1       5.370   4.224  14.840  0.00  0.00    +0.000 A 
ENDBRANCH   1   8
BRANCH   1  14
ATOM     14  C   UNL     1       4.333   5.833  17.089  0.00  0.00    +0.000 C 
BRANCH  14  17
ATOM     15  C   UNL     1       2.739   3.479  17.502  0.00  0.00    +0.000 C 
ATOM     16  N   UNL     1       3.055   4.349  18.633  0.00  0.00    +0.000 N 
ATOM     17  C   UNL     1       3.759   5.551  18.477  0.00  0.00    +0.000 C 
ATOM     18  O   UNL     1       3.966   6.331  19.407  0.00  0.00    +0.000 OA
BRANCH  16  19
ATOM     19  C   UNL     1       2.995   3.771  19.992  0.00  0.00    +0.000 C 
BRANCH  19  20
ATOM     20  C   UNL     1       1.633   3.937  20.642  0.00  0.00    +0.000 C 
ATOM     21  C   UNL     1       0.456   3.075  20.218  0.00  0.00    +0.000 C 
ATOM     22  C   UNL     1       1.101   2.846  21.549  0.00  0.00    +0.000 C 
ENDBRANCH  19  20
BRANCH  19  23
ATOM     23  C   UNL     1       3.410   2.314  19.932  0.00  0.00    +0.000 C 
ATOM     24  C   UNL     1       4.712   1.911  19.282  0.00  0.00    +0.000 C 
ATOM     25  C   UNL     1       4.562   1.816  20.772  0.00  0.00    +0.000 C 
ENDBRANCH  19  23
ENDBRANCH  16  19
ENDBRANCH  14  17
ENDBRANCH   1  14
BRANCH   5  26
ATOM     26  C   UNL     1       8.511   7.779  18.569  0.00  0.00    +0.000 C 
BRANCH  26  27
ATOM     27  C   UNL     1       8.195   9.159  17.980  0.00  0.00    +0.000 C 
BRANCH  27  28
ATOM     28  C   UNL     1       9.088  10.228  18.552  0.00  0.00    +0.000 A 
ATOM     29  C   UNL     1       9.216  10.397  19.930  0.00  0.00    +0.000 A 
ATOM     30  C   UNL     1      10.053  11.402  20.411  0.00  0.00    +0.000 A 
ATOM     31  C   UNL     1      10.732  12.212  19.511  0.00  0.00    +0.000 A 
ATOM     32  C   UNL     1      10.543  11.985  18.158  0.00  0.00    +0.000 A 
ATOM     33  N   UNL     1       9.736  11.019  17.663  0.00  0.00    +0.000 NA
ENDBRANCH  27  28
ENDBRANCH  26  27
ENDBRANCH   5  26
TORSDOF 9
ENDMDL
MODEL 5
REMARK VINA RESULT:      -7.6      0.687      1.355
REMARK  Name = 
REMARK  10 active torsions:
REMARK  status: ('A' for Active; 'I' for Inactive)
REMARK    1  A    between atoms: C_1  and  N_2
REMARK    2  A    between atoms: N_2  and  C_27
REMARK    3  A    between atoms: C_3  and  C_5
REMARK    4  A    between atoms: C_5  and  C_6
REMARK    5  A    between atoms: C_6  and  C_7
REMARK    6  A    between atoms: N_16  and  C_17
REMARK    7  A    between atoms: C_17  and  C_18
REMARK    8  A    between atoms: C_18  and  C_19
REMARK    9  A    between atoms: C_27  and  C_28
REMARK   10  A    between atoms: C_27  and  C_31
REMARK                            x       y       z     vdW  Elec       q    Type
REMARK                         _______ _______ _______ _____ _____    ______ ____
ROOT
ATOM      1  C   UNL     1       3.490   5.611  18.550  0.00  0.00    +0.000 C 
ATOM      2  C   UNL     1       4.546   5.924  19.633  0.00  0.00    +0.000 C 
ATOM      3  C   UNL     1       5.821   5.341  19.094  0.00  0.00    +0.000 C 
ATOM      4  O   UNL     1       6.880   5.348  19.709  0.00  0.00    +0.000 OA
ATOM      5  N   UNL     1       5.605   4.834  17.846  0.00  0.00    +0.000 N 
ATOM      6  C   UNL     1       4.329   5.058  17.400  0.00  0.00    +0.000 C 
ATOM      7  O   UNL     1       3.900   4.823  16.279  0.00  0.00    +0.000 OA
ENDROOT
BRANCH   1   8
ATOM      8  C   UNL     1       2.519   4.517  19.079  0.00  0.00    +0.000 A 
ATOM      9  C   UNL     1       2.621   3.973  20.373  0.00  0.00    +0.000 A 
ATOM     10  C   UNL     1       1.828   2.893  20.775  0.00  0.00    +0.000 A 
ATOM     11  C   UNL     1       0.896   2.344  19.903  0.00  0.00    +0.000 A 
ATOM     12  C   UNL     1       0.729   2.902  18.641  0.00  0.00    +0.000 A 
ATOM     13  C   UNL     1       1.521   3.981  18.238  0.00  0.00    +0.000 A 
ENDBRANCH   1   8
BRANCH   1  14
ATOM     14  C   UNL     1       2.743   6.897  18.102  0.00  0.00    +0.000 C 
BRANCH  14  17
ATOM     15  C   UNL     1       2.183   9.690  17.727  0.00  0.00    +0.000 C 
ATOM     16  N   UNL     1       1.711   9.011  18.932  0.00  0.00    +0.000 N 
ATOM     17  C   UNL     1       2.023   7.673  19.205  0.00  0.00    +0.000 C 
ATOM     18  O   UNL     1       1.698   7.109  20.251  0.00  0.00    +0.000 OA
BRANCH  16  19
ATOM     19  C   UNL     1       0.570   9.603  19.661  0.00  0.00    +0.000 C 
BRANCH  19  20
ATOM     20  C   UNL     1       0.999  10.404  20.877  0.00  0.00    +0.000 C 
ATOM     21  C   UNL     1       0.965  11.922  20.862  0.00  0.00    +0.000 C 
ATOM     22  C   UNL     1      -0.040  11.166  21.674  0.00  0.00    +0.000 C 
ENDBRANCH  19  20
BRANCH  19  23
ATOM     23  C   UNL     1      -0.252  10.443  18.702  0.00  0.00    +0.000 C 
ATOM     24  C   UNL     1      -1.042   9.791  17.592  0.00  0.00    +0.000 C 
ATOM     25  C   UNL     1      -1.761  10.404  18.758  0.00  0.00    +0.000 C 
ENDBRANCH  19  23
ENDBRANCH  16  19
ENDBRANCH  14  17
ENDBRANCH   1  14
BRANCH   5  26
ATOM     26  C   UNL     1       6.675   4.294  17.013  0.00  0.00    +0.000 C 
BRANCH  26  27
ATOM     27  C   UNL     1       7.215   5.310  16.001  0.00  0.00    +0.000 C 
BRANCH  27  28
ATOM     28  C   UNL     1       7.068   4.821  14.584  0.00  0.00    +0.000 A 
ATOM     29  C   UNL     1       7.784   5.407  13.543  0.00  0.00    +0.000 A 
ATOM     30  C   UNL     1       7.612   4.919  12.249  0.00  0.00    +0.000 A 
ATOM     31  C   UNL     1       6.728   3.871  12.027  0.00  0.00    +0.000 A 
ATOM     32  C   UNL     1       6.048   3.351  13.115  0.00  0.00    +0.000 A 
ATOM     33  N   UNL     1       6.194   3.805  14.381  0.00  0.00    +0.000 NA
ENDBRANCH  27  28
ENDBRANCH  26  27
ENDBRANCH   5  26
TORSDOF 9
ENDMDL
MODEL 6
REMARK VINA RESULT:      -7.6      4.040      7.042
REMARK  Name = 
REMARK  10 active torsions:
REMARK  status: ('A' for Active; 'I' for Inactive)
REMARK    1  A    between atoms: C_1  and  N_2
REMARK    2  A    between atoms: N_2  and  C_27
REMARK    3  A    between atoms: C_3  and  C_5
REMARK    4  A    between atoms: C_5  and  C_6
REMARK    5  A    between atoms: C_6  and  C_7
REMARK    6  A    between atoms: N_16  and  C_17
REMARK    7  A    between atoms: C_17  and  C_18
REMARK    8  A    between atoms: C_18  and  C_19
REMARK    9  A    between atoms: C_27  and  C_28
REMARK   10  A    between atoms: C_27  and  C_31
REMARK                            x       y       z     vdW  Elec       q    Type
REMARK                         _______ _______ _______ _____ _____    ______ ____
ROOT
ATOM      1  C   UNL     1       0.518  10.751  19.224  0.00  0.00    +0.000 C 
ATOM      2  C   UNL     1       0.424  10.472  20.740  0.00  0.00    +0.000 C 
ATOM      3  C   UNL     1       1.047   9.116  20.911  0.00  0.00    +0.000 C 
ATOM      4  O   UNL     1       1.105   8.530  21.985  0.00  0.00    +0.000 OA
ATOM      5  N   UNL     1       1.527   8.674  19.713  0.00  0.00    +0.000 N 
ATOM      6  C   UNL     1       1.382   9.600  18.714  0.00  0.00    +0.000 C 
ATOM      7  O   UNL     1       1.831   9.520  17.579  0.00  0.00    +0.000 OA
ENDROOT
BRANCH   1   8
ATOM      8  C   UNL     1      -0.903  10.673  18.597  0.00  0.00    +0.000 A 
ATOM      9  C   UNL     1      -1.199   9.857  17.489  0.00  0.00    +0.000 A 
ATOM     10  C   UNL     1      -2.446   9.911  16.856  0.00  0.00    +0.000 A 
ATOM     11  C   UNL     1      -3.437  10.763  17.329  0.00  0.00    +0.000 A 
ATOM     12  C   UNL     1      -3.194  11.533  18.461  0.00  0.00    +0.000 A 
ATOM     13  C   UNL     1      -1.948  11.480  19.094  0.00  0.00    +0.000 A 
ENDBRANCH   1   8
BRANCH   1  14
ATOM     14  C   UNL     1       1.213  12.113  18.943  0.00  0.00    +0.000 C 
BRANCH  14  17
ATOM     15  C   UNL     1      -0.364  14.486  19.307  0.00  0.00    +0.000 C 
ATOM     16  N   UNL     1       0.613  14.101  20.324  0.00  0.00    +0.000 N 
ATOM     17  C   UNL     1       1.464  13.000  20.161  0.00  0.00    +0.000 C 
ATOM     18  O   UNL     1       2.344  12.709  20.973  0.00  0.00    +0.000 OA
BRANCH  16  19
ATOM     19  C   UNL     1       0.427  14.617  21.696  0.00  0.00    +0.000 C 
BRANCH  19  20
ATOM     20  C   UNL     1       0.753  16.095  21.818  0.00  0.00    +0.000 C 
ATOM     21  C   UNL     1       1.871  16.574  22.728  0.00  0.00    +0.000 C 
ATOM     22  C   UNL     1       2.051  16.622  21.242  0.00  0.00    +0.000 C 
ENDBRANCH  19  20
BRANCH  19  23
ATOM     23  C   UNL     1      -0.987  14.318  22.154  0.00  0.00    +0.000 C 
ATOM     24  C   UNL     1      -1.361  12.941  22.649  0.00  0.00    +0.000 C 
ATOM     25  C   UNL     1      -1.280  14.085  23.617  0.00  0.00    +0.000 C 
ENDBRANCH  19  23
ENDBRANCH  16  19
ENDBRANCH  14  17
ENDBRANCH   1  14
BRANCH   5  26
ATOM     26  C   UNL     1       2.284   7.434  19.570  0.00  0.00    +0.000 C 
BRANCH  26  27
ATOM     27  C   UNL     1       1.764   6.311  20.475  0.00  0.00    +0.000 C 
BRANCH  27  28
ATOM     28  C   UNL     1       1.648   5.005  19.732  0.00  0.00    +0.000 A 
ATOM     29  C   UNL     1       2.085   4.886  18.415  0.00  0.00    +0.000 A 
ATOM     30  C   UNL     1       1.954   3.657  17.770  0.00  0.00    +0.000 A 
ATOM     31  C   UNL     1       1.387   2.587  18.450  0.00  0.00    +0.000 A 
ATOM     32  C   UNL     1       0.968   2.792  19.754  0.00  0.00    +0.000 A 
ATOM     33  N   UNL     1       1.082   3.973  20.404  0.00  0.00    +0.000 NA
ENDBRANCH  27  28
ENDBRANCH  26  27
ENDBRANCH   5  26
TORSDOF 9
ENDMDL
MODEL 7
REMARK VINA RESULT:      -7.6      3.570      6.658
REMARK  Name = 
REMARK  10 active torsions:
REMARK  status: ('A' for Active; 'I' for Inactive)
REMARK    1  A    between atoms: C_1  and  N_2
REMARK    2  A    between atoms: N_2  and  C_27
REMARK    3  A    between atoms: C_3  and  C_5
REMARK    4  A    between atoms: C_5  and  C_6
REMARK    5  A    between atoms: C_6  and  C_7
REMARK    6  A    between atoms: N_16  and  C_17
REMARK    7  A    between atoms: C_17  and  C_18
REMARK    8  A    between atoms: C_18  and  C_19
REMARK    9  A    between atoms: C_27  and  C_28
REMARK   10  A    between atoms: C_27  and  C_31
REMARK                            x       y       z     vdW  Elec       q    Type
REMARK                         _______ _______ _______ _____ _____    ______ ____
ROOT
ATOM      1  C   UNL     1       5.894   5.026  16.405  0.00  0.00    +0.000 C 
ATOM      2  C   UNL     1       6.743   4.106  17.309  0.00  0.00    +0.000 C 
ATOM      3  C   UNL     1       7.663   5.042  18.039  0.00  0.00    +0.000 C 
ATOM      4  O   UNL     1       8.531   4.666  18.817  0.00  0.00    +0.000 OA
ATOM      5  N   UNL     1       7.367   6.332  17.708  0.00  0.00    +0.000 N 
ATOM      6  C   UNL     1       6.283   6.426  16.875  0.00  0.00    +0.000 C 
ATOM      7  O   UNL     1       5.727   7.457  16.521  0.00  0.00    +0.000 OA
ENDROOT
BRANCH   1   8
ATOM      8  C   UNL     1       6.316   4.823  14.922  0.00  0.00    +0.000 A 
ATOM      9  C   UNL     1       5.615   3.976  14.043  0.00  0.00    +0.000 A 
ATOM     10  C   UNL     1       6.096   3.700  12.758  0.00  0.00    +0.000 A 
ATOM     11  C   UNL     1       7.275   4.281  12.310  0.00  0.00    +0.000 A 
ATOM     12  C   UNL     1       7.955   5.172  13.133  0.00  0.00    +0.000 A 
ATOM     13  C   UNL     1       7.476   5.449  14.417  0.00  0.00    +0.000 A 
ENDBRANCH   1   8
BRANCH   1  14
ATOM     14  C   UNL     1       4.374   4.787  16.624  0.00  0.00    +0.000 C 
BRANCH  14  17
ATOM     15  C   UNL     1       3.761   5.309  19.382  0.00  0.00    +0.000 C 
ATOM     16  N   UNL     1       3.643   3.950  18.858  0.00  0.00    +0.000 N 
ATOM     17  C   UNL     1       4.006   3.623  17.544  0.00  0.00    +0.000 C 
ATOM     18  O   UNL     1       3.984   2.470  17.111  0.00  0.00    +0.000 OA
BRANCH  16  19
ATOM     19  C   UNL     1       2.762   3.004  19.573  0.00  0.00    +0.000 C 
BRANCH  19  20
ATOM     20  C   UNL     1       3.043   2.950  21.063  0.00  0.00    +0.000 C 
ATOM     21  C   UNL     1       2.231   3.783  22.040  0.00  0.00    +0.000 C 
ATOM     22  C   UNL     1       2.035   2.300  21.990  0.00  0.00    +0.000 C 
ENDBRANCH  19  20
BRANCH  19  23
ATOM     23  C   UNL     1       1.315   3.360  19.291  0.00  0.00    +0.000 C 
ATOM     24  C   UNL     1       0.845   3.605  17.877  0.00  0.00    +0.000 C 
ATOM     25  C   UNL     1       0.408   2.368  18.603  0.00  0.00    +0.000 C 
ENDBRANCH  19  23
ENDBRANCH  16  19
ENDBRANCH  14  17
ENDBRANCH   1  14
BRANCH   5  26
ATOM     26  C   UNL     1       8.015   7.481  18.334  0.00  0.00    +0.000 C 
BRANCH  26  27
ATOM     27  C   UNL     1       7.985   8.735  17.454  0.00  0.00    +0.000 C 
BRANCH  27  28
ATOM     28  C   UNL     1       8.549   9.934  18.171  0.00  0.00    +0.000 A 
ATOM     29  C   UNL     1       9.190   9.800  19.400  0.00  0.00    +0.000 A 
ATOM     30  C   UNL     1       9.694  10.940  20.025  0.00  0.00    +0.000 A 
ATOM     31  C   UNL     1       9.539  12.177  19.414  0.00  0.00    +0.000 A 
ATOM     32  C   UNL     1       8.881  12.225  18.197  0.00  0.00    +0.000 A 
ATOM     33  N   UNL     1       8.381  11.136  17.569  0.00  0.00    +0.000 NA
ENDBRANCH  27  28
ENDBRANCH  26  27
ENDBRANCH   5  26
TORSDOF 9
ENDMDL
MODEL 8
REMARK VINA RESULT:      -7.6      3.607      6.908
REMARK  Name = 
REMARK  10 active torsions:
REMARK  status: ('A' for Active; 'I' for Inactive)
REMARK    1  A    between atoms: C_1  and  N_2
REMARK    2  A    between atoms: N_2  and  C_27
REMARK    3  A    between atoms: C_3  and  C_5
REMARK    4  A    between atoms: C_5  and  C_6
REMARK    5  A    between atoms: C_6  and  C_7
REMARK    6  A    between atoms: N_16  and  C_17
REMARK    7  A    between atoms: C_17  and  C_18
REMARK    8  A    between atoms: C_18  and  C_19
REMARK    9  A    between atoms: C_27  and  C_28
REMARK   10  A    between atoms: C_27  and  C_31
REMARK                            x       y       z     vdW  Elec       q    Type
REMARK                         _______ _______ _______ _____ _____    ______ ____
ROOT
ATOM      1  C   UNL     1       5.756   5.563  16.879  0.00  0.00    +0.000 C 
ATOM      2  C   UNL     1       6.432   4.598  17.877  0.00  0.00    +0.000 C 
ATOM      3  C   UNL     1       7.550   5.402  18.479  0.00  0.00    +0.000 C 
ATOM      4  O   UNL     1       8.351   4.946  19.286  0.00  0.00    +0.000 OA
ATOM      5  N   UNL     1       7.510   6.678  17.998  0.00  0.00    +0.000 N 
ATOM      6  C   UNL     1       6.439   6.897  17.173  0.00  0.00    +0.000 C 
ATOM      7  O   UNL     1       6.092   7.973  16.704  0.00  0.00    +0.000 OA
ENDROOT
BRANCH   1   8
ATOM      8  C   UNL     1       6.073   5.107  15.426  0.00  0.00    +0.000 A 
ATOM      9  C   UNL     1       5.233   4.241  14.703  0.00  0.00    +0.000 A 
ATOM     10  C   UNL     1       5.610   3.733  13.455  0.00  0.00    +0.000 A 
ATOM     11  C   UNL     1       6.824   4.098  12.887  0.00  0.00    +0.000 A 
ATOM     12  C   UNL     1       7.646   5.002  13.550  0.00  0.00    +0.000 A 
ATOM     13  C   UNL     1       7.271   5.510  14.797  0.00  0.00    +0.000 A 
ENDBRANCH   1   8
BRANCH   1  14
ATOM     14  C   UNL     1       4.228   5.671  17.144  0.00  0.00    +0.000 C 
BRANCH  14  17
ATOM     15  C   UNL     1       2.214   3.628  16.992  0.00  0.00    +0.000 C 
ATOM     16  N   UNL     1       2.799   3.975  18.286  0.00  0.00    +0.000 N 
ATOM     17  C   UNL     1       3.725   5.017  18.431  0.00  0.00    +0.000 C 
ATOM     18  O   UNL     1       4.168   5.370  19.524  0.00  0.00    +0.000 OA
BRANCH  16  19
ATOM     19  C   UNL     1       2.731   2.972  19.370  0.00  0.00    +0.000 C 
BRANCH  19  20
ATOM     20  C   UNL     1       1.372   2.926  20.044  0.00  0.00    +0.000 C 
ATOM     21  C   UNL     1       1.249   3.011  21.556  0.00  0.00    +0.000 C 
ATOM     22  C   UNL     1       0.828   4.173  20.712  0.00  0.00    +0.000 C 
ENDBRANCH  19  20
BRANCH  19  23
ATOM     23  C   UNL     1       3.127   1.616  18.819  0.00  0.00    +0.000 C 
ATOM     24  C   UNL     1       4.226   1.494  17.790  0.00  0.00    +0.000 C 
ATOM     25  C   UNL     1       4.457   1.004  19.189  0.00  0.00    +0.000 C 
ENDBRANCH  19  23
ENDBRANCH  16  19
ENDBRANCH  14  17
ENDBRANCH   1  14
BRANCH   5  26
ATOM     26  C   UNL     1       8.401   7.732  18.473  0.00  0.00    +0.000 C 
BRANCH  26  27
ATOM     27  C   UNL     1       8.118   9.091  17.823  0.00  0.00    +0.000 C 
BRANCH  27  28
ATOM     28  C   UNL     1       8.839  10.209  18.529  0.00  0.00    +0.000 A 
ATOM     29  C   UNL     1       9.243  11.351  17.841  0.00  0.00    +0.000 A 
ATOM     30  C   UNL     1       9.908  12.358  18.538  0.00  0.00    +0.000 A 
ATOM     31  C   UNL     1      10.158  12.197  19.895  0.00  0.00    +0.000 A 
ATOM     32  C   UNL     1       9.732  11.028  20.502  0.00  0.00    +0.000 A 
ATOM     33  N   UNL     1       9.086  10.034  19.850  0.00  0.00    +0.000 NA
ENDBRANCH  27  28
ENDBRANCH  26  27
ENDBRANCH   5  26
TORSDOF 9
ENDMDL
MODEL 9
REMARK VINA RESULT:      -7.5      3.577      6.852
REMARK  Name = 
REMARK  10 active torsions:
REMARK  status: ('A' for Active; 'I' for Inactive)
REMARK    1  A    between atoms: C_1  and  N_2
REMARK    2  A    between atoms: N_2  and  C_27
REMARK    3  A    between atoms: C_3  and  C_5
REMARK    4  A    between atoms: C_5  and  C_6
REMARK    5  A    between atoms: C_6  and  C_7
REMARK    6  A    between atoms: N_16  and  C_17
REMARK    7  A    between atoms: C_17  and  C_18
REMARK    8  A    between atoms: C_18  and  C_19
REMARK    9  A    between atoms: C_27  and  C_28
REMARK   10  A    between atoms: C_27  and  C_31
REMARK                            x       y       z     vdW  Elec       q    Type
REMARK                         _______ _______ _______ _____ _____    ______ ____
ROOT
ATOM      1  C   UNL     1       5.750   5.089  16.460  0.00  0.00    +0.000 C 
ATOM      2  C   UNL     1       6.546   4.133  17.376  0.00  0.00    +0.000 C 
ATOM      3  C   UNL     1       7.538   5.019  18.073  0.00  0.00    +0.000 C 
ATOM      4  O   UNL     1       8.388   4.602  18.850  0.00  0.00    +0.000 OA
ATOM      5  N   UNL     1       7.326   6.318  17.716  0.00  0.00    +0.000 N 
ATOM      6  C   UNL     1       6.241   6.468  16.893  0.00  0.00    +0.000 C 
ATOM      7  O   UNL     1       5.752   7.527  16.521  0.00  0.00    +0.000 OA
ENDROOT
BRANCH   1   8
ATOM      8  C   UNL     1       6.138   4.823  14.978  0.00  0.00    +0.000 A 
ATOM      9  C   UNL     1       5.401   3.962  14.143  0.00  0.00    +0.000 A 
ATOM     10  C   UNL     1       5.849   3.629  12.861  0.00  0.00    +0.000 A 
ATOM     11  C   UNL     1       7.032   4.167  12.369  0.00  0.00    +0.000 A 
ATOM     12  C   UNL     1       7.748   5.070  13.146  0.00  0.00    +0.000 A 
ATOM     13  C   UNL     1       7.301   5.403  14.429  0.00  0.00    +0.000 A 
ENDBRANCH   1   8
BRANCH   1  14
ATOM     14  C   UNL     1       4.220   4.960  16.703  0.00  0.00    +0.000 C 
BRANCH  14  17
ATOM     15  C   UNL     1       2.487   2.714  17.150  0.00  0.00    +0.000 C 
ATOM     16  N   UNL     1       3.013   3.462  18.290  0.00  0.00    +0.000 N 
ATOM     17  C   UNL     1       3.796   4.613  18.130  0.00  0.00    +0.000 C 
ATOM     18  O   UNL     1       4.183   5.297  19.078  0.00  0.00    +0.000 OA
BRANCH  16  19
ATOM     19  C   UNL     1       3.067   2.783  19.602  0.00  0.00    +0.000 C 
BRANCH  19  20
ATOM     20  C   UNL     1       4.480   2.410  20.014  0.00  0.00    +0.000 C 
ATOM     21  C   UNL     1       4.728   1.452  21.166  0.00  0.00    +0.000 C 
ATOM     22  C   UNL     1       4.983   1.004  19.761  0.00  0.00    +0.000 C 
ENDBRANCH  19  20
BRANCH  19  23
ATOM     23  C   UNL     1       2.395   3.657  20.643  0.00  0.00    +0.000 C 
ATOM     24  C   UNL     1       0.966   4.109  20.461  0.00  0.00    +0.000 C 
ATOM     25  C   UNL     1       1.297   3.094  21.514  0.00  0.00    +0.000 C 
ENDBRANCH  19  23
ENDBRANCH  16  19
ENDBRANCH  14  17
ENDBRANCH   1  14
BRANCH   5  26
ATOM     26  C   UNL     1       8.060   7.434  18.307  0.00  0.00    +0.000 C 
BRANCH  26  27
ATOM     27  C   UNL     1       7.908   8.736  17.513  0.00  0.00    +0.000 C 
BRANCH  27  28
ATOM     28  C   UNL     1       8.558   9.898  18.216  0.00  0.00    +0.000 A 
ATOM     29  C   UNL     1       9.203   9.729  19.440  0.00  0.00    +0.000 A 
ATOM     30  C   UNL     1       9.788  10.836  20.052  0.00  0.00    +0.000 A 
ATOM     31  C   UNL     1       9.710  12.077  19.434  0.00  0.00    +0.000 A 
ATOM     32  C   UNL     1       9.043  12.162  18.224  0.00  0.00    +0.000 A 
ATOM     33  N   UNL     1       8.464  11.105  17.608  0.00  0.00    +0.000 NA
ENDBRANCH  27  28
ENDBRANCH  26  27
ENDBRANCH   5  26
TORSDOF 9
ENDMDL
