MODEL 1
REMARK VINA RESULT:      -7.7      0.000      0.000
REMARK  Name = 
REMARK  6 active torsions:
REMARK  status: ('A' for Active; 'I' for Inactive)
REMARK    1  A    between atoms: C_1  and  C_2
REMARK    2  A    between atoms: C_2  and  C_3
REMARK    3  A    between atoms: C_3  and  C_4
REMARK    4  A    between atoms: C_4  and  N_5
REMARK    5  A    between atoms: C_9  and  C_10
REMARK    6  A    between atoms: C_14  and  C_15
REMARK                            x       y       z     vdW  Elec       q    Type
REMARK                         _______ _______ _______ _____ _____    ______ ____
ROOT
ATOM      1  N   UNL     1       3.177   4.437  20.273  0.00  0.00    +0.000 N 
ATOM      2  C   UNL     1       4.134   3.448  19.778  0.00  0.00    +0.000 C 
ATOM      3  C   UNL     1       4.531   3.984  18.375  0.00  0.00    +0.000 C 
ATOM      4  C   UNL     1       3.951   5.357  18.377  0.00  0.00    +0.000 A 
ATOM      5  C   UNL     1       4.029   6.457  17.391  0.00  0.00    +0.000 A 
ATOM      6  C   UNL     1       4.868   6.252  16.155  0.00  0.00    +0.000 C 
ATOM      7  N   UNL     1       3.415   7.602  17.524  0.00  0.00    +0.000 NA
ATOM      8  C   UNL     1       2.663   7.782  18.658  0.00  0.00    +0.000 A 
ATOM      9  N   UNL     1       1.936   8.817  19.017  0.00  0.00    +0.000 NA
ATOM     10  C   UNL     1       1.428   8.462  20.243  0.00  0.00    +0.000 A 
ATOM     11  N   UNL     1       1.806   7.252  20.673  0.00  0.00    +0.000 NA
ATOM     12  N   UNL     1       2.556   6.793  19.645  0.00  0.00    +0.000 N 
ATOM     13  C   UNL     1       3.197   5.570  19.462  0.00  0.00    +0.000 A 
ENDROOT
BRANCH  10  14
ATOM     14  C   UNL     1       0.541   9.334  21.009  0.00  0.00    +0.000 A 
ATOM     15  C   UNL     1       0.279   9.076  22.362  0.00  0.00    +0.000 A 
ATOM     16  C   UNL     1      -0.556   9.925  23.096  0.00  0.00    +0.000 A 
ATOM     17  C   UNL     1      -1.139  11.033  22.485  0.00  0.00    +0.000 A 
ATOM     18  C   UNL     1      -0.890  11.299  21.140  0.00  0.00    +0.000 A 
ATOM     19  C   UNL     1      -0.052  10.456  20.408  0.00  0.00    +0.000 A 
ENDBRANCH  10  14
BRANCH   1  20
ATOM     20  C   UNL     1       2.275   4.123  21.372  0.00  0.00    +0.000 C 
BRANCH  20  21
ATOM     21  C   UNL     1       1.364   2.937  21.029  0.00  0.00    +0.000 C 
BRANCH  21  23
ATOM     22  C   UNL     1       0.900   2.250  18.651  0.00  0.00    +0.000 C 
ATOM     23  C   UNL     1       0.527   3.203  19.778  0.00  0.00    +0.000 C 
ENDBRANCH  21  23
ENDBRANCH  20  21
ENDBRANCH   1  20
TORSDOF 4
ENDMDL
MODEL 2
REMARK VINA RESULT:      -7.7      0.053      1.007
REMARK  Name = 
REMARK  6 active torsions:
REMARK  status: ('A' for Active; 'I' for Inactive)
REMARK    1  A    between atoms: C_1  and  C_2
REMARK    2  A    between atoms: C_2  and  C_3
REMARK    3  A    between atoms: C_3  and  C_4
REMARK    4  A    between atoms: C_4  and  N_5
REMARK    5  A    between atoms: C_9  and  C_10
REMARK    6  A    between atoms: C_14  and  C_15
REMARK                            x       y       z     vdW  Elec       q    Type
REMARK                         _______ _______ _______ _____ _____    ______ ____
ROOT
ATOM      1  N   UNL     1       3.198   4.454  20.254  0.00  0.00    +0.000 N 
ATOM      2  C   UNL     1       4.153   3.461  19.763  0.00  0.00    +0.000 C 
ATOM      3  C   UNL     1       4.550   3.989  18.357  0.00  0.00    +0.000 C 
ATOM      4  C   UNL     1       3.971   5.363  18.352  0.00  0.00    +0.000 A 
ATOM      5  C   UNL     1       4.050   6.458  17.361  0.00  0.00    +0.000 A 
ATOM      6  C   UNL     1       4.888   6.245  16.126  0.00  0.00    +0.000 C 
ATOM      7  N   UNL     1       3.438   7.604  17.488  0.00  0.00    +0.000 NA
ATOM      8  C   UNL     1       2.687   7.790  18.622  0.00  0.00    +0.000 A 
ATOM      9  N   UNL     1       1.961   8.828  18.976  0.00  0.00    +0.000 NA
ATOM     10  C   UNL     1       1.454   8.480  20.205  0.00  0.00    +0.000 A 
ATOM     11  N   UNL     1       1.831   7.271  20.640  0.00  0.00    +0.000 NA
ATOM     12  N   UNL     1       2.579   6.807  19.614  0.00  0.00    +0.000 N 
ATOM     13  C   UNL     1       3.219   5.582  19.437  0.00  0.00    +0.000 A 
ENDROOT
BRANCH  10  14
ATOM     14  C   UNL     1       0.568   9.357  20.966  0.00  0.00    +0.000 A 
ATOM     15  C   UNL     1      -0.088  10.427  20.340  0.00  0.00    +0.000 A 
ATOM     16  C   UNL     1      -0.950  11.253  21.069  0.00  0.00    +0.000 A 
ATOM     17  C   UNL     1      -1.161  11.021  22.427  0.00  0.00    +0.000 A 
ATOM     18  C   UNL     1      -0.512   9.963  23.062  0.00  0.00    +0.000 A 
ATOM     19  C   UNL     1       0.345   9.135  22.334  0.00  0.00    +0.000 A 
ENDBRANCH  10  14
BRANCH   1  20
ATOM     20  C   UNL     1       2.296   4.146  21.354  0.00  0.00    +0.000 C 
BRANCH  20  21
ATOM     21  C   UNL     1       1.407   2.938  21.031  0.00  0.00    +0.000 C 
BRANCH  21  23
ATOM     22  C   UNL     1       0.849   2.251  18.674  0.00  0.00    +0.000 C 
ATOM     23  C   UNL     1       0.512   3.196  19.819  0.00  0.00    +0.000 C 
ENDBRANCH  21  23
ENDBRANCH  20  21
ENDBRANCH   1  20
TORSDOF 4
ENDMDL
MODEL 3
REMARK VINA RESULT:      -7.5      2.513      7.737
REMARK  Name = 
REMARK  6 active torsions:
REMARK  status: ('A' for Active; 'I' for Inactive)
REMARK    1  A    between atoms: C_1  and  C_2
REMARK    2  A    between atoms: C_2  and  C_3
REMARK    3  A    between atoms: C_3  and  C_4
REMARK    4  A    between atoms: C_4  and  N_5
REMARK    5  A    between atoms: C_9  and  C_10
REMARK    6  A    between atoms: C_14  and  C_15
REMARK                            x       y       z     vdW  Elec       q    Type
REMARK                         _______ _______ _______ _____ _____    ______ ____
ROOT
ATOM      1  N   UNL     1       2.696   7.033  18.862  0.00  0.00    +0.000 N 
ATOM      2  C   UNL     1       2.037   7.316  20.137  0.00  0.00    +0.000 C 
ATOM      3  C   UNL     1       1.714   5.908  20.710  0.00  0.00    +0.000 C 
ATOM      4  C   UNL     1       2.486   5.007  19.806  0.00  0.00    +0.000 A 
ATOM      5  C   UNL     1       2.703   3.544  19.832  0.00  0.00    +0.000 A 
ATOM      6  C   UNL     1       2.113   2.753  20.971  0.00  0.00    +0.000 C 
ATOM      7  N   UNL     1       3.378   2.890  18.925  0.00  0.00    +0.000 NA
ATOM      8  C   UNL     1       3.920   3.622  17.898  0.00  0.00    +0.000 A 
ATOM      9  N   UNL     1       4.613   3.209  16.859  0.00  0.00    +0.000 NA
ATOM     10  C   UNL     1       4.917   4.364  16.179  0.00  0.00    +0.000 A 
ATOM     11  N   UNL     1       4.450   5.483  16.745  0.00  0.00    +0.000 NA
ATOM     12  N   UNL     1       3.773   5.013  17.817  0.00  0.00    +0.000 N 
ATOM     13  C   UNL     1       3.021   5.680  18.781  0.00  0.00    +0.000 A 
ENDROOT
BRANCH  10  14
ATOM     14  C   UNL     1       5.682   4.363  14.934  0.00  0.00    +0.000 A 
ATOM     15  C   UNL     1       6.884   5.077  14.834  0.00  0.00    +0.000 A 
ATOM     16  C   UNL     1       7.623   5.059  13.646  0.00  0.00    +0.000 A 
ATOM     17  C   UNL     1       7.165   4.333  12.549  0.00  0.00    +0.000 A 
ATOM     18  C   UNL     1       5.970   3.621  12.634  0.00  0.00    +0.000 A 
ATOM     19  C   UNL     1       5.234   3.634  13.820  0.00  0.00    +0.000 A 
ENDBRANCH  10  14
BRANCH   1  20
ATOM     20  C   UNL     1       2.811   8.057  17.834  0.00  0.00    +0.000 C 
BRANCH  20  21
ATOM     21  C   UNL     1       1.551   8.930  17.768  0.00  0.00    +0.000 C 
BRANCH  21  23
ATOM     22  C   UNL     1       0.768  11.021  18.933  0.00  0.00    +0.000 C 
ATOM     23  C   UNL     1       1.856  10.397  18.070  0.00  0.00    +0.000 C 
ENDBRANCH  21  23
ENDBRANCH  20  21
ENDBRANCH   1  20
TORSDOF 4
ENDMDL
MODEL 4
REMARK VINA RESULT:      -7.4      2.459      7.715
REMARK  Name = 
REMARK  6 active torsions:
REMARK  status: ('A' for Active; 'I' for Inactive)
REMARK    1  A    between atoms: C_1  and  C_2
REMARK    2  A    between atoms: C_2  and  C_3
REMARK    3  A    between atoms: C_3  and  C_4
REMARK    4  A    between atoms: C_4  and  N_5
REMARK    5  A    between atoms: C_9  and  C_10
REMARK    6  A    between atoms: C_14  and  C_15
REMARK                            x       y       z     vdW  Elec       q    Type
REMARK                         _______ _______ _______ _____ _____    ______ ____
ROOT
ATOM      1  N   UNL     1       2.649   7.124  18.890  0.00  0.00    +0.000 N 
ATOM      2  C   UNL     1       1.988   7.439  20.156  0.00  0.00    +0.000 C 
ATOM      3  C   UNL     1       1.706   6.047  20.785  0.00  0.00    +0.000 C 
ATOM      4  C   UNL     1       2.496   5.131  19.914  0.00  0.00    +0.000 A 
ATOM      5  C   UNL     1       2.752   3.677  19.995  0.00  0.00    +0.000 A 
ATOM      6  C   UNL     1       2.189   2.916  21.168  0.00  0.00    +0.000 C 
ATOM      7  N   UNL     1       3.440   3.006  19.110  0.00  0.00    +0.000 NA
ATOM      8  C   UNL     1       3.957   3.711  18.053  0.00  0.00    +0.000 A 
ATOM      9  N   UNL     1       4.656   3.276  17.027  0.00  0.00    +0.000 NA
ATOM     10  C   UNL     1       4.926   4.411  16.300  0.00  0.00    +0.000 A 
ATOM     11  N   UNL     1       4.432   5.539  16.824  0.00  0.00    +0.000 NA
ATOM     12  N   UNL     1       3.773   5.094  17.917  0.00  0.00    +0.000 N 
ATOM     13  C   UNL     1       3.009   5.778  18.860  0.00  0.00    +0.000 A 
ENDROOT
BRANCH  10  14
ATOM     14  C   UNL     1       5.684   4.382  15.051  0.00  0.00    +0.000 A 
ATOM     15  C   UNL     1       5.220   3.646  13.951  0.00  0.00    +0.000 A 
ATOM     16  C   UNL     1       5.940   3.636  12.751  0.00  0.00    +0.000 A 
ATOM     17  C   UNL     1       7.128   4.355  12.642  0.00  0.00    +0.000 A 
ATOM     18  C   UNL     1       7.602   5.088  13.728  0.00  0.00    +0.000 A 
ATOM     19  C   UNL     1       6.882   5.103  14.925  0.00  0.00    +0.000 A 
ENDBRANCH  10  14
BRANCH   1  20
ATOM     20  C   UNL     1       2.732   8.110  17.822  0.00  0.00    +0.000 C 
BRANCH  20  21
ATOM     21  C   UNL     1       1.515   9.044  17.824  0.00  0.00    +0.000 C 
BRANCH  21  23
ATOM     22  C   UNL     1       0.824  11.169  18.986  0.00  0.00    +0.000 C 
ATOM     23  C   UNL     1       1.901  10.485  18.155  0.00  0.00    +0.000 C 
ENDBRANCH  21  23
ENDBRANCH  20  21
ENDBRANCH   1  20
TORSDOF 4
ENDMDL
MODEL 5
REMARK VINA RESULT:      -7.4      0.980      1.522
REMARK  Name = 
REMARK  6 active torsions:
REMARK  status: ('A' for Active; 'I' for Inactive)
REMARK    1  A    between atoms: C_1  and  C_2
REMARK    2  A    between atoms: C_2  and  C_3
REMARK    3  A    between atoms: C_3  and  C_4
REMARK    4  A    between atoms: C_4  and  N_5
REMARK    5  A    between atoms: C_9  and  C_10
REMARK    6  A    between atoms: C_14  and  C_15
REMARK                            x       y       z     vdW  Elec       q    Type
REMARK                         _______ _______ _______ _____ _____    ______ ____
ROOT
ATOM      1  N   UNL     1       3.290   4.513  20.078  0.00  0.00    +0.000 N 
ATOM      2  C   UNL     1       4.251   3.421  19.923  0.00  0.00    +0.000 C 
ATOM      3  C   UNL     1       4.874   3.670  18.522  0.00  0.00    +0.000 C 
ATOM      4  C   UNL     1       4.378   5.035  18.184  0.00  0.00    +0.000 A 
ATOM      5  C   UNL     1       4.658   5.925  17.037  0.00  0.00    +0.000 A 
ATOM      6  C   UNL     1       5.652   5.466  16.001  0.00  0.00    +0.000 C 
ATOM      7  N   UNL     1       4.097   7.091  16.864  0.00  0.00    +0.000 NA
ATOM      8  C   UNL     1       3.201   7.504  17.819  0.00  0.00    +0.000 A 
ATOM      9  N   UNL     1       2.490   8.609  17.868  0.00  0.00    +0.000 NA
ATOM     10  C   UNL     1       1.793   8.507  19.048  0.00  0.00    +0.000 A 
ATOM     11  N   UNL     1       2.037   7.390  19.744  0.00  0.00    +0.000 NA
ATOM     12  N   UNL     1       2.899   6.724  18.943  0.00  0.00    +0.000 N 
ATOM     13  C   UNL     1       3.490   5.471  19.086  0.00  0.00    +0.000 A 
ENDROOT
BRANCH  10  14
ATOM     14  C   UNL     1       0.856   9.534  19.497  0.00  0.00    +0.000 A 
ATOM     15  C   UNL     1       0.001  10.169  18.586  0.00  0.00    +0.000 A 
ATOM     16  C   UNL     1      -0.908  11.138  19.023  0.00  0.00    +0.000 A 
ATOM     17  C   UNL     1      -0.968  11.483  20.372  0.00  0.00    +0.000 A 
ATOM     18  C   UNL     1      -0.122  10.861  21.289  0.00  0.00    +0.000 A 
ATOM     19  C   UNL     1       0.782   9.891  20.853  0.00  0.00    +0.000 A 
ENDBRANCH  10  14
BRANCH   1  20
ATOM     20  C   UNL     1       2.225   4.439  21.067  0.00  0.00    +0.000 C 
BRANCH  20  21
ATOM     21  C   UNL     1       1.334   3.210  20.841  0.00  0.00    +0.000 C 
BRANCH  21  23
ATOM     22  C   UNL     1       1.084   2.142  18.574  0.00  0.00    +0.000 C 
ATOM     23  C   UNL     1       0.618   3.264  19.491  0.00  0.00    +0.000 C 
ENDBRANCH  21  23
ENDBRANCH  20  21
ENDBRANCH   1  20
TORSDOF 4
ENDMDL
MODEL 6
REMARK VINA RESULT:      -7.4      1.075      1.320
REMARK  Name = 
REMARK  6 active torsions:
REMARK  status: ('A' for Active; 'I' for Inactive)
REMARK    1  A    between atoms: C_1  and  C_2
REMARK    2  A    between atoms: C_2  and  C_3
REMARK    3  A    between atoms: C_3  and  C_4
REMARK    4  A    between atoms: C_4  and  N_5
REMARK    5  A    between atoms: C_9  and  C_10
REMARK    6  A    between atoms: C_14  and  C_15
REMARK                            x       y       z     vdW  Elec       q    Type
REMARK                         _______ _______ _______ _____ _____    ______ ____
ROOT
ATOM      1  N   UNL     1       3.340   4.754  19.976  0.00  0.00    +0.000 N 
ATOM      2  C   UNL     1       4.334   3.690  19.835  0.00  0.00    +0.000 C 
ATOM      3  C   UNL     1       4.950   3.939  18.431  0.00  0.00    +0.000 C 
ATOM      4  C   UNL     1       4.412   5.283  18.076  0.00  0.00    +0.000 A 
ATOM      5  C   UNL     1       4.665   6.167  16.916  0.00  0.00    +0.000 A 
ATOM      6  C   UNL     1       5.673   5.725  15.887  0.00  0.00    +0.000 C 
ATOM      7  N   UNL     1       4.068   7.313  16.728  0.00  0.00    +0.000 NA
ATOM      8  C   UNL     1       3.160   7.710  17.678  0.00  0.00    +0.000 A 
ATOM      9  N   UNL     1       2.415   8.794  17.712  0.00  0.00    +0.000 NA
ATOM     10  C   UNL     1       1.721   8.686  18.894  0.00  0.00    +0.000 A 
ATOM     11  N   UNL     1       1.999   7.586  19.605  0.00  0.00    +0.000 NA
ATOM     12  N   UNL     1       2.881   6.936  18.812  0.00  0.00    +0.000 N 
ATOM     13  C   UNL     1       3.511   5.704  18.972  0.00  0.00    +0.000 A 
ENDROOT
BRANCH  10  14
ATOM     14  C   UNL     1       0.753   9.689  19.330  0.00  0.00    +0.000 A 
ATOM     15  C   UNL     1       0.739  10.138  20.658  0.00  0.00    +0.000 A 
ATOM     16  C   UNL     1      -0.178  11.112  21.068  0.00  0.00    +0.000 A 
ATOM     17  C   UNL     1      -1.089  11.642  20.157  0.00  0.00    +0.000 A 
ATOM     18  C   UNL     1      -1.088  11.202  18.834  0.00  0.00    +0.000 A 
ATOM     19  C   UNL     1      -0.171  10.233  18.423  0.00  0.00    +0.000 A 
ENDBRANCH  10  14
BRANCH   1  20
ATOM     20  C   UNL     1       2.277   4.659  20.966  0.00  0.00    +0.000 C 
BRANCH  20  21
ATOM     21  C   UNL     1       1.693   3.242  21.029  0.00  0.00    +0.000 C 
BRANCH  21  23
ATOM     22  C   UNL     1       1.145   2.275  18.769  0.00  0.00    +0.000 C 
ATOM     23  C   UNL     1       0.604   3.026  19.978  0.00  0.00    +0.000 C 
ENDBRANCH  21  23
ENDBRANCH  20  21
ENDBRANCH   1  20
TORSDOF 4
ENDMDL
MODEL 7
REMARK VINA RESULT:      -7.1      1.520      2.482
REMARK  Name = 
REMARK  6 active torsions:
REMARK  status: ('A' for Active; 'I' for Inactive)
REMARK    1  A    between atoms: C_1  and  C_2
REMARK    2  A    between atoms: C_2  and  C_3
REMARK    3  A    between atoms: C_3  and  C_4
REMARK    4  A    between atoms: C_4  and  N_5
REMARK    5  A    between atoms: C_9  and  C_10
REMARK    6  A    between atoms: C_14  and  C_15
REMARK                            x       y       z     vdW  Elec       q    Type
REMARK                         _______ _______ _______ _____ _____    ______ ____
ROOT
ATOM      1  N   UNL     1       2.438   3.460  18.087  0.00  0.00    +0.000 N 
ATOM      2  C   UNL     1       3.174   2.224  17.823  0.00  0.00    +0.000 C 
ATOM      3  C   UNL     1       4.424   2.697  17.031  0.00  0.00    +0.000 C 
ATOM      4  C   UNL     1       4.368   4.179  17.192  0.00  0.00    +0.000 A 
ATOM      5  C   UNL     1       5.298   5.248  16.771  0.00  0.00    +0.000 A 
ATOM      6  C   UNL     1       6.584   4.851  16.092  0.00  0.00    +0.000 C 
ATOM      7  N   UNL     1       5.076   6.522  16.951  0.00  0.00    +0.000 NA
ATOM      8  C   UNL     1       3.907   6.872  17.580  0.00  0.00    +0.000 A 
ATOM      9  N   UNL     1       3.439   8.069  17.856  0.00  0.00    +0.000 NA
ATOM     10  C   UNL     1       2.254   7.824  18.508  0.00  0.00    +0.000 A 
ATOM     11  N   UNL     1       1.958   6.526  18.656  0.00  0.00    +0.000 NA
ATOM     12  N   UNL     1       2.985   5.914  18.024  0.00  0.00    +0.000 N 
ATOM     13  C   UNL     1       3.234   4.564  17.791  0.00  0.00    +0.000 A 
ENDROOT
BRANCH  10  14
ATOM     14  C   UNL     1       1.386   8.895  18.990  0.00  0.00    +0.000 A 
ATOM     15  C   UNL     1       0.807   9.803  18.092  0.00  0.00    +0.000 A 
ATOM     16  C   UNL     1      -0.039  10.817  18.556  0.00  0.00    +0.000 A 
ATOM     17  C   UNL     1      -0.309  10.934  19.918  0.00  0.00    +0.000 A 
ATOM     18  C   UNL     1       0.262  10.040  20.821  0.00  0.00    +0.000 A 
ATOM     19  C   UNL     1       1.103   9.025  20.359  0.00  0.00    +0.000 A 
ENDBRANCH  10  14
BRANCH   1  20
ATOM     20  C   UNL     1       1.031   3.428  18.459  0.00  0.00    +0.000 C 
BRANCH  20  21
ATOM     21  C   UNL     1       0.828   2.785  19.836  0.00  0.00    +0.000 C 
BRANCH  21  23
ATOM     22  C   UNL     1       2.518   2.755  21.704  0.00  0.00    +0.000 C 
ATOM     23  C   UNL     1       1.496   3.594  20.949  0.00  0.00    +0.000 C 
ENDBRANCH  21  23
ENDBRANCH  20  21
ENDBRANCH   1  20
TORSDOF 4
ENDMDL
MODEL 8
REMARK VINA RESULT:      -7.1      1.386      2.097
REMARK  Name = 
REMARK  6 active torsions:
REMARK  status: ('A' for Active; 'I' for Inactive)
REMARK    1  A    between atoms: C_1  and  C_2
REMARK    2  A    between atoms: C_2  and  C_3
REMARK    3  A    between atoms: C_3  and  C_4
REMARK    4  A    between atoms: C_4  and  N_5
REMARK    5  A    between atoms: C_9  and  C_10
REMARK    6  A    between atoms: C_14  and  C_15
REMARK                            x       y       z     vdW  Elec       q    Type
REMARK                         _______ _______ _______ _____ _____    ______ ____
ROOT
ATOM      1  N   UNL     1       2.744   3.623  18.260  0.00  0.00    +0.000 N 
ATOM      2  C   UNL     1       3.523   2.441  17.891  0.00  0.00    +0.000 C 
ATOM      3  C   UNL     1       4.553   2.980  16.861  0.00  0.00    +0.000 C 
ATOM      4  C   UNL     1       4.397   4.457  16.990  0.00  0.00    +0.000 A 
ATOM      5  C   UNL     1       5.132   5.580  16.368  0.00  0.00    +0.000 A 
ATOM      6  C   UNL     1       6.296   5.260  15.465  0.00  0.00    +0.000 C 
ATOM      7  N   UNL     1       4.837   6.838  16.554  0.00  0.00    +0.000 NA
ATOM      8  C   UNL     1       3.783   7.118  17.387  0.00  0.00    +0.000 A 
ATOM      9  N   UNL     1       3.272   8.284  17.717  0.00  0.00    +0.000 NA
ATOM     10  C   UNL     1       2.259   7.972  18.591  0.00  0.00    +0.000 A 
ATOM     11  N   UNL     1       2.112   6.662  18.828  0.00  0.00    +0.000 NA
ATOM     12  N   UNL     1       3.050   6.109  18.027  0.00  0.00    +0.000 N 
ATOM     13  C   UNL     1       3.369   4.775  17.786  0.00  0.00    +0.000 A 
ENDROOT
BRANCH  10  14
ATOM     14  C   UNL     1       1.407   8.989  19.203  0.00  0.00    +0.000 A 
ATOM     15  C   UNL     1       1.023   8.883  20.547  0.00  0.00    +0.000 A 
ATOM     16  C   UNL     1       0.222   9.869  21.135  0.00  0.00    +0.000 A 
ATOM     17  C   UNL     1      -0.203  10.964  20.385  0.00  0.00    +0.000 A 
ATOM     18  C   UNL     1       0.170  11.079  19.047  0.00  0.00    +0.000 A 
ATOM     19  C   UNL     1       0.972  10.098  18.461  0.00  0.00    +0.000 A 
ENDBRANCH  10  14
BRANCH   1  20
ATOM     20  C   UNL     1       1.442   3.493  18.897  0.00  0.00    +0.000 C 
BRANCH  20  21
ATOM     21  C   UNL     1       1.404   2.299  19.858  0.00  0.00    +0.000 C 
BRANCH  21  23
ATOM     22  C   UNL     1       2.164   4.097  21.450  0.00  0.00    +0.000 C 
ATOM     23  C   UNL     1       1.488   2.739  21.320  0.00  0.00    +0.000 C 
ENDBRANCH  21  23
ENDBRANCH  20  21
ENDBRANCH   1  20
TORSDOF 4
ENDMDL
MODEL 9
REMARK VINA RESULT:      -7.1      1.623      4.097
REMARK  Name = 
REMARK  6 active torsions:
REMARK  status: ('A' for Active; 'I' for Inactive)
REMARK    1  A    between atoms: C_1  and  C_2
REMARK    2  A    between atoms: C_2  and  C_3
REMARK    3  A    between atoms: C_3  and  C_4
REMARK    4  A    between atoms: C_4  and  N_5
REMARK    5  A    between atoms: C_9  and  C_10
REMARK    6  A    between atoms: C_14  and  C_15
REMARK                            x       y       z     vdW  Elec       q    Type
REMARK                         _______ _______ _______ _____ _____    ______ ____
ROOT
ATOM      1  N   UNL     1       4.319   5.422  17.820  0.00  0.00    +0.000 N 
ATOM      2  C   UNL     1       4.817   4.082  17.512  0.00  0.00    +0.000 C 
ATOM      3  C   UNL     1       4.379   3.231  18.735  0.00  0.00    +0.000 C 
ATOM      4  C   UNL     1       3.446   4.148  19.450  0.00  0.00    +0.000 A 
ATOM      5  C   UNL     1       2.599   3.949  20.646  0.00  0.00    +0.000 A 
ATOM      6  C   UNL     1       2.579   2.586  21.290  0.00  0.00    +0.000 C 
ATOM      7  N   UNL     1       1.861   4.884  21.182  0.00  0.00    +0.000 NA
ATOM      8  C   UNL     1       1.878   6.118  20.581  0.00  0.00    +0.000 A 
ATOM      9  N   UNL     1       1.254   7.221  20.931  0.00  0.00    +0.000 NA
ATOM     10  C   UNL     1       1.612   8.130  19.964  0.00  0.00    +0.000 A 
ATOM     11  N   UNL     1       2.431   7.647  19.021  0.00  0.00    +0.000 NA
ATOM     12  N   UNL     1       2.642   6.377  19.434  0.00  0.00    +0.000 N 
ATOM     13  C   UNL     1       3.443   5.369  18.903  0.00  0.00    +0.000 A 
ENDROOT
BRANCH  10  14
ATOM     14  C   UNL     1       1.143   9.513  19.975  0.00  0.00    +0.000 A 
ATOM     15  C   UNL     1       1.185  10.290  18.808  0.00  0.00    +0.000 A 
ATOM     16  C   UNL     1       0.717  11.609  18.818  0.00  0.00    +0.000 A 
ATOM     17  C   UNL     1       0.209  12.162  19.991  0.00  0.00    +0.000 A 
ATOM     18  C   UNL     1       0.164  11.402  21.158  0.00  0.00    +0.000 A 
ATOM     19  C   UNL     1       0.627  10.085  21.149  0.00  0.00    +0.000 A 
ENDBRANCH  10  14
BRANCH   1  20
ATOM     20  C   UNL     1       4.843   6.593  17.133  0.00  0.00    +0.000 C 
BRANCH  20  21
ATOM     21  C   UNL     1       6.302   6.387  16.705  0.00  0.00    +0.000 C 
BRANCH  21  23
ATOM     22  C   UNL     1       7.741   6.117  18.754  0.00  0.00    +0.000 C 
ATOM     23  C   UNL     1       7.279   7.071  17.662  0.00  0.00    +0.000 C 
ENDBRANCH  21  23
ENDBRANCH  20  21
ENDBRANCH   1  20
TORSDOF 4
ENDMDL
