MODEL 1
REMARK VINA RESULT:      -8.9      0.000      0.000
REMARK  Name = 
REMARK  8 active torsions:
REMARK  status: ('A' for Active; 'I' for Inactive)
REMARK    1  A    between atoms: C_1  and  C_2
REMARK    2  A    between atoms: C_2  and  N_3
REMARK    3  A    between atoms: N_3  and  C_4
REMARK    4  A    between atoms: C_4  and  C_5
REMARK    5  A    between atoms: C_6  and  C_8
REMARK    6  A    between atoms: C_11  and  C_12
REMARK    7  A    between atoms: C_12  and  C_25
REMARK    8  A    between atoms: N_16  and  C_17
REMARK                            x       y       z     vdW  Elec       q    Type
REMARK                         _______ _______ _______ _____ _____    ______ ____
ROOT
ATOM      1  C   UNL     1       2.655   5.770  18.604  0.00  0.00    +0.000 C 
ATOM      2  C   UNL     1       3.394   5.464  17.503  0.00  0.00    +0.000 C 
ATOM      3  C   UNL     1       3.889   6.477  16.477  0.00  0.00    +0.000 C 
ATOM      4  C   UNL     1       5.418   6.410  16.371  0.00  0.00    +0.000 C 
ATOM      5  N   UNL     1       5.853   5.058  16.000  0.00  0.00    +0.000 N 
ATOM      6  C   UNL     1       5.395   3.979  16.888  0.00  0.00    +0.000 C 
ATOM      7  C   UNL     1       3.869   4.059  17.110  0.00  0.00    +0.000 C 
ENDROOT
BRANCH   1  11
ATOM      8  C   UNL     1       1.321   9.810  19.370  0.00  0.00    +0.000 A 
ATOM      9  C   UNL     1       1.331   8.842  20.384  0.00  0.00    +0.000 A 
ATOM     10  C   UNL     1       1.817   7.552  20.141  0.00  0.00    +0.000 A 
ATOM     11  C   UNL     1       2.215   7.170  18.856  0.00  0.00    +0.000 A 
ATOM     12  C   UNL     1       2.163   8.117  17.826  0.00  0.00    +0.000 A 
ATOM     13  C   UNL     1       1.725   9.428  18.084  0.00  0.00    +0.000 A 
BRANCH   8  15
ATOM     14  N   UNL     1      -0.539  11.537  19.272  0.00  0.00    +0.000 N 
ATOM     15  C   UNL     1       0.798  11.198  19.575  0.00  0.00    +0.000 C 
ATOM     16  O   UNL     1       1.598  12.024  20.021  0.00  0.00    +0.000 OA
BRANCH  14  18
ATOM     17  C   UNL     1      -1.872  13.266  20.473  0.00  0.00    +0.000 C 
ATOM     18  C   UNL     1      -0.891  12.959  19.348  0.00  0.00    +0.000 C 
ENDBRANCH  14  18
BRANCH  14  19
ATOM     19  C   UNL     1      -1.532  10.561  18.799  0.00  0.00    +0.000 C 
ATOM     20  C   UNL     1      -1.829  10.471  17.310  0.00  0.00    +0.000 C 
ENDBRANCH  14  19
ENDBRANCH   8  15
ENDBRANCH   1  11
BRANCH   5  21
ATOM     21  C   UNL     1       6.397   4.791  14.755  0.00  0.00    +0.000 A 
ATOM     22  C   UNL     1       7.512   5.498  14.277  0.00  0.00    +0.000 A 
ATOM     23  C   UNL     1       8.022   5.287  12.988  0.00  0.00    +0.000 A 
ATOM     24  C   UNL     1       7.436   4.346  12.149  0.00  0.00    +0.000 A 
ATOM     25  C   UNL     1       6.345   3.615  12.603  0.00  0.00    +0.000 A 
ATOM     26  C   UNL     1       5.837   3.840  13.888  0.00  0.00    +0.000 A 
ENDBRANCH   5  21
BRANCH   1  27
ATOM     27  C   UNL     1       2.275   4.685  19.537  0.00  0.00    +0.000 A 
ATOM     28  C   UNL     1       1.110   3.943  19.315  0.00  0.00    +0.000 A 
ATOM     29  C   UNL     1       0.725   2.949  20.216  0.00  0.00    +0.000 A 
ATOM     30  C   UNL     1       1.507   2.690  21.345  0.00  0.00    +0.000 A 
ATOM     31  C   UNL     1       2.673   3.418  21.565  0.00  0.00    +0.000 A 
ATOM     32  C   UNL     1       3.060   4.412  20.666  0.00  0.00    +0.000 A 
ENDBRANCH   1  27
TORSDOF 6
ENDMDL
MODEL 2
REMARK VINA RESULT:      -8.7      0.162      1.213
REMARK  Name = 
REMARK  8 active torsions:
REMARK  status: ('A' for Active; 'I' for Inactive)
REMARK    1  A    between atoms: C_1  and  C_2
REMARK    2  A    between atoms: C_2  and  N_3
REMARK    3  A    between atoms: N_3  and  C_4
REMARK    4  A    between atoms: C_4  and  C_5
REMARK    5  A    between atoms: C_6  and  C_8
REMARK    6  A    between atoms: C_11  and  C_12
REMARK    7  A    between atoms: C_12  and  C_25
REMARK    8  A    between atoms: N_16  and  C_17
REMARK                            x       y       z     vdW  Elec       q    Type
REMARK                         _______ _______ _______ _____ _____    ______ ____
ROOT
ATOM      1  C   UNL     1       2.557   5.837  18.668  0.00  0.00    +0.000 C 
ATOM      2  C   UNL     1       3.273   5.532  17.552  0.00  0.00    +0.000 C 
ATOM      3  C   UNL     1       3.770   6.548  16.529  0.00  0.00    +0.000 C 
ATOM      4  C   UNL     1       5.295   6.457  16.399  0.00  0.00    +0.000 C 
ATOM      5  N   UNL     1       5.703   5.101  16.007  0.00  0.00    +0.000 N 
ATOM      6  C   UNL     1       5.240   4.020  16.890  0.00  0.00    +0.000 C 
ATOM      7  C   UNL     1       3.719   4.123  17.137  0.00  0.00    +0.000 C 
ENDROOT
BRANCH   1  11
ATOM      8  C   UNL     1       1.301   9.890  19.497  0.00  0.00    +0.000 A 
ATOM      9  C   UNL     1       1.292   8.907  20.495  0.00  0.00    +0.000 A 
ATOM     10  C   UNL     1       1.753   7.611  20.232  0.00  0.00    +0.000 A 
ATOM     11  C   UNL     1       2.144   7.241  18.941  0.00  0.00    +0.000 A 
ATOM     12  C   UNL     1       2.111   8.206  17.926  0.00  0.00    +0.000 A 
ATOM     13  C   UNL     1       1.698   9.520  18.205  0.00  0.00    +0.000 A 
BRANCH   8  15
ATOM     14  N   UNL     1      -0.532  11.647  19.450  0.00  0.00    +0.000 N 
ATOM     15  C   UNL     1       0.805  11.284  19.724  0.00  0.00    +0.000 C 
ATOM     16  O   UNL     1       1.627  12.093  20.160  0.00  0.00    +0.000 OA
BRANCH  14  18
ATOM     17  C   UNL     1      -2.107  13.341  20.378  0.00  0.00    +0.000 C 
ATOM     18  C   UNL     1      -0.860  13.074  19.544  0.00  0.00    +0.000 C 
ENDBRANCH  14  18
BRANCH  14  19
ATOM     19  C   UNL     1      -1.550  10.692  18.990  0.00  0.00    +0.000 C 
ATOM     20  C   UNL     1      -1.831  10.571  17.500  0.00  0.00    +0.000 C 
ENDBRANCH  14  19
ENDBRANCH   8  15
ENDBRANCH   1  11
BRANCH   5  21
ATOM     21  C   UNL     1       6.222   4.839  14.751  0.00  0.00    +0.000 A 
ATOM     22  C   UNL     1       5.634   3.889  13.899  0.00  0.00    +0.000 A 
ATOM     23  C   UNL     1       6.196   3.563  12.658  0.00  0.00    +0.000 A 
ATOM     24  C   UNL     1       7.359   4.195  12.228  0.00  0.00    +0.000 A 
ATOM     25  C   UNL     1       7.950   5.156  13.039  0.00  0.00    +0.000 A 
ATOM     26  C   UNL     1       7.387   5.467  14.282  0.00  0.00    +0.000 A 
ENDBRANCH   5  21
BRANCH   1  27
ATOM     27  C   UNL     1       2.173   4.749  19.594  0.00  0.00    +0.000 A 
ATOM     28  C   UNL     1       2.936   4.500  20.741  0.00  0.00    +0.000 A 
ATOM     29  C   UNL     1       2.603   3.446  21.593  0.00  0.00    +0.000 A 
ATOM     30  C   UNL     1       1.501   2.636  21.304  0.00  0.00    +0.000 A 
ATOM     31  C   UNL     1       0.733   2.885  20.171  0.00  0.00    +0.000 A 
ATOM     32  C   UNL     1       1.063   3.938  19.316  0.00  0.00    +0.000 A 
ENDBRANCH   1  27
TORSDOF 6
ENDMDL
MODEL 3
REMARK VINA RESULT:      -8.6      0.375      1.321
REMARK  Name = 
REMARK  8 active torsions:
REMARK  status: ('A' for Active; 'I' for Inactive)
REMARK    1  A    between atoms: C_1  and  C_2
REMARK    2  A    between atoms: C_2  and  N_3
REMARK    3  A    between atoms: N_3  and  C_4
REMARK    4  A    between atoms: C_4  and  C_5
REMARK    5  A    between atoms: C_6  and  C_8
REMARK    6  A    between atoms: C_11  and  C_12
REMARK    7  A    between atoms: C_12  and  C_25
REMARK    8  A    between atoms: N_16  and  C_17
REMARK                            x       y       z     vdW  Elec       q    Type
REMARK                         _______ _______ _______ _____ _____    ______ ____
ROOT
ATOM      1  C   UNL     1       2.532   5.826  18.718  0.00  0.00    +0.000 C 
ATOM      2  C   UNL     1       3.277   5.516  17.623  0.00  0.00    +0.000 C 
ATOM      3  C   UNL     1       3.790   6.525  16.602  0.00  0.00    +0.000 C 
ATOM      4  C   UNL     1       5.319   6.445  16.509  0.00  0.00    +0.000 C 
ATOM      5  N   UNL     1       5.746   5.089  16.140  0.00  0.00    +0.000 N 
ATOM      6  C   UNL     1       5.271   4.013  17.023  0.00  0.00    +0.000 C 
ATOM      7  C   UNL     1       3.744   4.107  17.232  0.00  0.00    +0.000 C 
ENDROOT
BRANCH   1  11
ATOM      8  C   UNL     1       1.340   9.925  19.407  0.00  0.00    +0.000 A 
ATOM      9  C   UNL     1       1.753   9.490  18.140  0.00  0.00    +0.000 A 
ATOM     10  C   UNL     1       2.083   8.148  17.913  0.00  0.00    +0.000 A 
ATOM     11  C   UNL     1       2.102   7.229  18.968  0.00  0.00    +0.000 A 
ATOM     12  C   UNL     1       1.737   7.667  20.247  0.00  0.00    +0.000 A 
ATOM     13  C   UNL     1       1.354   9.003  20.462  0.00  0.00    +0.000 A 
BRANCH   8  15
ATOM     14  N   UNL     1      -0.332  11.828  19.581  0.00  0.00    +0.000 N 
ATOM     15  C   UNL     1       0.991  11.349  19.704  0.00  0.00    +0.000 C 
ATOM     16  O   UNL     1       1.920  12.078  20.059  0.00  0.00    +0.000 OA
BRANCH  14  18
ATOM     17  C   UNL     1      -0.263  14.041  18.438  0.00  0.00    +0.000 C 
ATOM     18  C   UNL     1      -0.526  13.275  19.728  0.00  0.00    +0.000 C 
ENDBRANCH  14  18
BRANCH  14  19
ATOM     19  C   UNL     1      -1.470  10.970  19.221  0.00  0.00    +0.000 C 
ATOM     20  C   UNL     1      -1.743  10.681  17.752  0.00  0.00    +0.000 C 
ENDBRANCH  14  19
ENDBRANCH   8  15
ENDBRANCH   1  11
BRANCH   5  21
ATOM     21  C   UNL     1       6.297   4.819  14.900  0.00  0.00    +0.000 A 
ATOM     22  C   UNL     1       7.446   5.489  14.448  0.00  0.00    +0.000 A 
ATOM     23  C   UNL     1       7.967   5.277  13.164  0.00  0.00    +0.000 A 
ATOM     24  C   UNL     1       7.358   4.371  12.302  0.00  0.00    +0.000 A 
ATOM     25  C   UNL     1       6.233   3.677  12.730  0.00  0.00    +0.000 A 
ATOM     26  C   UNL     1       5.714   3.904  14.010  0.00  0.00    +0.000 A 
ENDBRANCH   5  21
BRANCH   1  27
ATOM     27  C   UNL     1       2.135   4.744  19.646  0.00  0.00    +0.000 A 
ATOM     28  C   UNL     1       2.861   4.525  20.823  0.00  0.00    +0.000 A 
ATOM     29  C   UNL     1       2.517   3.477  21.678  0.00  0.00    +0.000 A 
ATOM     30  C   UNL     1       1.440   2.643  21.362  0.00  0.00    +0.000 A 
ATOM     31  C   UNL     1       0.708   2.863  20.199  0.00  0.00    +0.000 A 
ATOM     32  C   UNL     1       1.050   3.910  19.342  0.00  0.00    +0.000 A 
ENDBRANCH   1  27
TORSDOF 6
ENDMDL
MODEL 4
REMARK VINA RESULT:      -8.6      2.389      8.432
REMARK  Name = 
REMARK  8 active torsions:
REMARK  status: ('A' for Active; 'I' for Inactive)
REMARK    1  A    between atoms: C_1  and  C_2
REMARK    2  A    between atoms: C_2  and  N_3
REMARK    3  A    between atoms: N_3  and  C_4
REMARK    4  A    between atoms: C_4  and  C_5
REMARK    5  A    between atoms: C_6  and  C_8
REMARK    6  A    between atoms: C_11  and  C_12
REMARK    7  A    between atoms: C_12  and  C_25
REMARK    8  A    between atoms: N_16  and  C_17
REMARK                            x       y       z     vdW  Elec       q    Type
REMARK                         _______ _______ _______ _____ _____    ______ ____
ROOT
ATOM      1  C   UNL     1       3.024   5.823  18.568  0.00  0.00    +0.000 C 
ATOM      2  C   UNL     1       2.740   7.108  18.915  0.00  0.00    +0.000 C 
ATOM      3  C   UNL     1       3.209   8.342  18.151  0.00  0.00    +0.000 C 
ATOM      4  C   UNL     1       1.999   9.178  17.714  0.00  0.00    +0.000 C 
ATOM      5  N   UNL     1       1.197   9.576  18.878  0.00  0.00    +0.000 N 
ATOM      6  C   UNL     1       0.725   8.474  19.729  0.00  0.00    +0.000 C 
ATOM      7  C   UNL     1       1.891   7.539  20.118  0.00  0.00    +0.000 C 
ENDROOT
BRANCH   1  11
ATOM      8  C   UNL     1       5.603   4.930  15.215  0.00  0.00    +0.000 A 
ATOM      9  C   UNL     1       5.112   3.914  16.046  0.00  0.00    +0.000 A 
ATOM     10  C   UNL     1       4.232   4.207  17.095  0.00  0.00    +0.000 A 
ATOM     11  C   UNL     1       3.899   5.531  17.399  0.00  0.00    +0.000 A 
ATOM     12  C   UNL     1       4.424   6.556  16.602  0.00  0.00    +0.000 A 
ATOM     13  C   UNL     1       5.264   6.256  15.516  0.00  0.00    +0.000 A 
BRANCH   8  15
ATOM     14  N   UNL     1       6.180   3.909  12.962  0.00  0.00    +0.000 N 
ATOM     15  C   UNL     1       6.556   4.671  14.091  0.00  0.00    +0.000 C 
ATOM     16  O   UNL     1       7.684   5.157  14.205  0.00  0.00    +0.000 OA
BRANCH  14  18
ATOM     17  C   UNL     1       7.119   2.160  11.455  0.00  0.00    +0.000 C 
ATOM     18  C   UNL     1       7.244   3.575  12.009  0.00  0.00    +0.000 C 
ENDBRANCH  14  18
BRANCH  14  19
ATOM     19  C   UNL     1       4.827   3.370  12.767  0.00  0.00    +0.000 C 
ATOM     20  C   UNL     1       4.162   3.513  11.407  0.00  0.00    +0.000 C 
ENDBRANCH  14  19
ENDBRANCH   8  15
ENDBRANCH   1  11
BRANCH   5  21
ATOM     21  C   UNL     1       1.144  10.893  19.302  0.00  0.00    +0.000 A 
ATOM     22  C   UNL     1       1.825  11.911  18.613  0.00  0.00    +0.000 A 
ATOM     23  C   UNL     1       1.840  13.233  19.077  0.00  0.00    +0.000 A 
ATOM     24  C   UNL     1       1.155  13.575  20.239  0.00  0.00    +0.000 A 
ATOM     25  C   UNL     1       0.453  12.594  20.928  0.00  0.00    +0.000 A 
ATOM     26  C   UNL     1       0.454  11.274  20.463  0.00  0.00    +0.000 A 
ENDBRANCH   5  21
BRANCH   1  27
ATOM     27  C   UNL     1       2.468   4.720  19.383  0.00  0.00    +0.000 A 
ATOM     28  C   UNL     1       1.349   4.009  18.936  0.00  0.00    +0.000 A 
ATOM     29  C   UNL     1       0.796   2.999  19.723  0.00  0.00    +0.000 A 
ATOM     30  C   UNL     1       1.362   2.690  20.963  0.00  0.00    +0.000 A 
ATOM     31  C   UNL     1       2.482   3.387  21.408  0.00  0.00    +0.000 A 
ATOM     32  C   UNL     1       3.037   4.399  20.624  0.00  0.00    +0.000 A 
ENDBRANCH   1  27
TORSDOF 6
ENDMDL
MODEL 5
REMARK VINA RESULT:      -8.4      0.923      1.474
REMARK  Name = 
REMARK  8 active torsions:
REMARK  status: ('A' for Active; 'I' for Inactive)
REMARK    1  A    between atoms: C_1  and  C_2
REMARK    2  A    between atoms: C_2  and  N_3
REMARK    3  A    between atoms: N_3  and  C_4
REMARK    4  A    between atoms: C_4  and  C_5
REMARK    5  A    between atoms: C_6  and  C_8
REMARK    6  A    between atoms: C_11  and  C_12
REMARK    7  A    between atoms: C_12  and  C_25
REMARK    8  A    between atoms: N_16  and  C_17
REMARK                            x       y       z     vdW  Elec       q    Type
REMARK                         _______ _______ _______ _____ _____    ______ ____
ROOT
ATOM      1  C   UNL     1       2.614   5.772  18.657  0.00  0.00    +0.000 C 
ATOM      2  C   UNL     1       3.345   5.464  17.551  0.00  0.00    +0.000 C 
ATOM      3  C   UNL     1       3.883   6.481  16.550  0.00  0.00    +0.000 C 
ATOM      4  C   UNL     1       5.408   6.359  16.448  0.00  0.00    +0.000 C 
ATOM      5  N   UNL     1       5.793   4.999  16.046  0.00  0.00    +0.000 N 
ATOM      6  C   UNL     1       5.291   3.918  16.906  0.00  0.00    +0.000 C 
ATOM      7  C   UNL     1       3.768   4.052  17.126  0.00  0.00    +0.000 C 
ENDROOT
BRANCH   1  11
ATOM      8  C   UNL     1       1.436   9.841  19.520  0.00  0.00    +0.000 A 
ATOM      9  C   UNL     1       1.489   8.869  20.528  0.00  0.00    +0.000 A 
ATOM     10  C   UNL     1       1.926   7.568  20.251  0.00  0.00    +0.000 A 
ATOM     11  C   UNL     1       2.227   7.181  18.941  0.00  0.00    +0.000 A 
ATOM     12  C   UNL     1       2.131   8.134  17.919  0.00  0.00    +0.000 A 
ATOM     13  C   UNL     1       1.744   9.454  18.209  0.00  0.00    +0.000 A 
BRANCH   8  15
ATOM     14  N   UNL     1      -0.093  11.519  20.658  0.00  0.00    +0.000 N 
ATOM     15  C   UNL     1       0.963  11.240  19.762  0.00  0.00    +0.000 C 
ATOM     16  O   UNL     1       1.544  12.130  19.138  0.00  0.00    +0.000 OA
BRANCH  14  18
ATOM     17  C   UNL     1      -1.980  13.043  20.085  0.00  0.00    +0.000 C 
ATOM     18  C   UNL     1      -0.586  12.900  20.686  0.00  0.00    +0.000 C 
ENDBRANCH  14  18
BRANCH  14  19
ATOM     19  C   UNL     1      -0.763  10.487  21.463  0.00  0.00    +0.000 C 
ATOM     20  C   UNL     1      -0.828  10.653  22.973  0.00  0.00    +0.000 C 
ENDBRANCH  14  19
ENDBRANCH   8  15
ENDBRANCH   1  11
BRANCH   5  21
ATOM     21  C   UNL     1       6.330   4.741  14.797  0.00  0.00    +0.000 A 
ATOM     22  C   UNL     1       7.452   5.442  14.324  0.00  0.00    +0.000 A 
ATOM     23  C   UNL     1       7.957   5.241  13.032  0.00  0.00    +0.000 A 
ATOM     24  C   UNL     1       7.358   4.316  12.182  0.00  0.00    +0.000 A 
ATOM     25  C   UNL     1       6.261   3.592  12.631  0.00  0.00    +0.000 A 
ATOM     26  C   UNL     1       5.758   3.808  13.919  0.00  0.00    +0.000 A 
ENDBRANCH   5  21
BRANCH   1  27
ATOM     27  C   UNL     1       2.190   4.680  19.562  0.00  0.00    +0.000 A 
ATOM     28  C   UNL     1       2.908   4.420  20.735  0.00  0.00    +0.000 A 
ATOM     29  C   UNL     1       2.538   3.364  21.568  0.00  0.00    +0.000 A 
ATOM     30  C   UNL     1       1.442   2.562  21.235  0.00  0.00    +0.000 A 
ATOM     31  C   UNL     1       0.718   2.824  20.075  0.00  0.00    +0.000 A 
ATOM     32  C   UNL     1       1.086   3.879  19.239  0.00  0.00    +0.000 A 
ENDBRANCH   1  27
TORSDOF 6
ENDMDL
MODEL 6
REMARK VINA RESULT:      -8.4      0.583      1.408
REMARK  Name = 
REMARK  8 active torsions:
REMARK  status: ('A' for Active; 'I' for Inactive)
REMARK    1  A    between atoms: C_1  and  C_2
REMARK    2  A    between atoms: C_2  and  N_3
REMARK    3  A    between atoms: N_3  and  C_4
REMARK    4  A    between atoms: C_4  and  C_5
REMARK    5  A    between atoms: C_6  and  C_8
REMARK    6  A    between atoms: C_11  and  C_12
REMARK    7  A    between atoms: C_12  and  C_25
REMARK    8  A    between atoms: N_16  and  C_17
REMARK                            x       y       z     vdW  Elec       q    Type
REMARK                         _______ _______ _______ _____ _____    ______ ____
ROOT
ATOM      1  C   UNL     1       2.476   5.780  18.852  0.00  0.00    +0.000 C 
ATOM      2  C   UNL     1       3.200   5.510  17.733  0.00  0.00    +0.000 C 
ATOM      3  C   UNL     1       3.681   6.554  16.731  0.00  0.00    +0.000 C 
ATOM      4  C   UNL     1       5.208   6.492  16.603  0.00  0.00    +0.000 C 
ATOM      5  N   UNL     1       5.640   5.152  16.185  0.00  0.00    +0.000 N 
ATOM      6  C   UNL     1       5.194   4.046  17.045  0.00  0.00    +0.000 C 
ATOM      7  C   UNL     1       3.671   4.118  17.290  0.00  0.00    +0.000 C 
ENDROOT
BRANCH   1  11
ATOM      8  C   UNL     1       1.264   9.844  19.693  0.00  0.00    +0.000 A 
ATOM      9  C   UNL     1       1.719   9.468  18.421  0.00  0.00    +0.000 A 
ATOM     10  C   UNL     1       2.056   8.138  18.143  0.00  0.00    +0.000 A 
ATOM     11  C   UNL     1       2.039   7.171  19.153  0.00  0.00    +0.000 A 
ATOM     12  C   UNL     1       1.631   7.548  20.439  0.00  0.00    +0.000 A 
ATOM     13  C   UNL     1       1.241   8.873  20.703  0.00  0.00    +0.000 A 
BRANCH   8  15
ATOM     14  N   UNL     1      -0.156  11.929  19.403  0.00  0.00    +0.000 N 
ATOM     15  C   UNL     1       0.905  11.254  20.044  0.00  0.00    +0.000 C 
ATOM     16  O   UNL     1       1.587  11.790  20.921  0.00  0.00    +0.000 OA
BRANCH  14  18
ATOM     17  C   UNL     1       0.339  14.253  18.650  0.00  0.00    +0.000 C 
ATOM     18  C   UNL     1      -0.305  13.358  19.702  0.00  0.00    +0.000 C 
ENDBRANCH  14  18
BRANCH  14  19
ATOM     19  C   UNL     1      -1.026  11.298  18.400  0.00  0.00    +0.000 C 
ATOM     20  C   UNL     1      -2.535  11.417  18.549  0.00  0.00    +0.000 C 
ENDBRANCH  14  19
ENDBRANCH   8  15
ENDBRANCH   1  11
BRANCH   5  21
ATOM     21  C   UNL     1       6.166   4.925  14.925  0.00  0.00    +0.000 A 
ATOM     22  C   UNL     1       5.561   4.026  14.030  0.00  0.00    +0.000 A 
ATOM     23  C   UNL     1       6.128   3.732  12.783  0.00  0.00    +0.000 A 
ATOM     24  C   UNL     1       7.313   4.347  12.390  0.00  0.00    +0.000 A 
ATOM     25  C   UNL     1       7.922   5.258  13.245  0.00  0.00    +0.000 A 
ATOM     26  C   UNL     1       7.354   5.536  14.493  0.00  0.00    +0.000 A 
ENDBRANCH   5  21
BRANCH   1  27
ATOM     27  C   UNL     1       2.110   4.667  19.756  0.00  0.00    +0.000 A 
ATOM     28  C   UNL     1       1.011   3.852  19.459  0.00  0.00    +0.000 A 
ATOM     29  C   UNL     1       0.635   2.830  20.331  0.00  0.00    +0.000 A 
ATOM     30  C   UNL     1       1.361   2.613  21.506  0.00  0.00    +0.000 A 
ATOM     31  C   UNL     1       2.461   3.413  21.801  0.00  0.00    +0.000 A 
ATOM     32  C   UNL     1       2.839   4.436  20.931  0.00  0.00    +0.000 A 
ENDBRANCH   1  27
TORSDOF 6
ENDMDL
MODEL 7
REMARK VINA RESULT:      -8.3      0.911      1.459
REMARK  Name = 
REMARK  8 active torsions:
REMARK  status: ('A' for Active; 'I' for Inactive)
REMARK    1  A    between atoms: C_1  and  C_2
REMARK    2  A    between atoms: C_2  and  N_3
REMARK    3  A    between atoms: N_3  and  C_4
REMARK    4  A    between atoms: C_4  and  C_5
REMARK    5  A    between atoms: C_6  and  C_8
REMARK    6  A    between atoms: C_11  and  C_12
REMARK    7  A    between atoms: C_12  and  C_25
REMARK    8  A    between atoms: N_16  and  C_17
REMARK                            x       y       z     vdW  Elec       q    Type
REMARK                         _______ _______ _______ _____ _____    ______ ____
ROOT
ATOM      1  C   UNL     1       2.596   5.767  18.637  0.00  0.00    +0.000 C 
ATOM      2  C   UNL     1       3.333   5.467  17.534  0.00  0.00    +0.000 C 
ATOM      3  C   UNL     1       3.849   6.487  16.525  0.00  0.00    +0.000 C 
ATOM      4  C   UNL     1       5.377   6.395  16.423  0.00  0.00    +0.000 C 
ATOM      5  N   UNL     1       5.790   5.042  16.032  0.00  0.00    +0.000 N 
ATOM      6  C   UNL     1       5.310   3.957  16.901  0.00  0.00    +0.000 C 
ATOM      7  C   UNL     1       3.785   4.060  17.120  0.00  0.00    +0.000 C 
ENDROOT
BRANCH   1  11
ATOM      8  C   UNL     1       1.439   9.865  19.387  0.00  0.00    +0.000 A 
ATOM      9  C   UNL     1       1.733   9.417  18.092  0.00  0.00    +0.000 A 
ATOM     10  C   UNL     1       2.051   8.075  17.850  0.00  0.00    +0.000 A 
ATOM     11  C   UNL     1       2.179   7.170  18.910  0.00  0.00    +0.000 A 
ATOM     12  C   UNL     1       1.934   7.621  20.212  0.00  0.00    +0.000 A 
ATOM     13  C   UNL     1       1.561   8.956  20.447  0.00  0.00    +0.000 A 
BRANCH   8  15
ATOM     14  N   UNL     1       0.077  11.630  20.604  0.00  0.00    +0.000 N 
ATOM     15  C   UNL     1       1.107  11.291  19.698  0.00  0.00    +0.000 C 
ATOM     16  O   UNL     1       1.779  12.148  19.122  0.00  0.00    +0.000 OA
BRANCH  14  18
ATOM     17  C   UNL     1      -1.622  13.371  20.065  0.00  0.00    +0.000 C 
ATOM     18  C   UNL     1      -0.274  13.050  20.700  0.00  0.00    +0.000 C 
ENDBRANCH  14  18
BRANCH  14  19
ATOM     19  C   UNL     1      -0.699  10.632  21.354  0.00  0.00    +0.000 C 
ATOM     20  C   UNL     1      -0.827  10.775  22.863  0.00  0.00    +0.000 C 
ENDBRANCH  14  19
ENDBRANCH   8  15
ENDBRANCH   1  11
BRANCH   5  21
ATOM     21  C   UNL     1       6.333   4.785  14.785  0.00  0.00    +0.000 A 
ATOM     22  C   UNL     1       7.458   5.485  14.318  0.00  0.00    +0.000 A 
ATOM     23  C   UNL     1       7.969   5.286  13.029  0.00  0.00    +0.000 A 
ATOM     24  C   UNL     1       7.373   4.363  12.175  0.00  0.00    +0.000 A 
ATOM     25  C   UNL     1       6.273   3.640  12.616  0.00  0.00    +0.000 A 
ATOM     26  C   UNL     1       5.764   3.854  13.903  0.00  0.00    +0.000 A 
ENDBRANCH   5  21
BRANCH   1  27
ATOM     27  C   UNL     1       2.194   4.675  19.551  0.00  0.00    +0.000 A 
ATOM     28  C   UNL     1       1.070   3.892  19.260  0.00  0.00    +0.000 A 
ATOM     29  C   UNL     1       0.663   2.891  20.142  0.00  0.00    +0.000 A 
ATOM     30  C   UNL     1       1.380   2.662  21.320  0.00  0.00    +0.000 A 
ATOM     31  C   UNL     1       2.504   3.430  21.608  0.00  0.00    +0.000 A 
ATOM     32  C   UNL     1       2.915   4.433  20.729  0.00  0.00    +0.000 A 
ENDBRANCH   1  27
TORSDOF 6
ENDMDL
MODEL 8
REMARK VINA RESULT:      -8.2      1.064      1.528
REMARK  Name = 
REMARK  8 active torsions:
REMARK  status: ('A' for Active; 'I' for Inactive)
REMARK    1  A    between atoms: C_1  and  C_2
REMARK    2  A    between atoms: C_2  and  N_3
REMARK    3  A    between atoms: N_3  and  C_4
REMARK    4  A    between atoms: C_4  and  C_5
REMARK    5  A    between atoms: C_6  and  C_8
REMARK    6  A    between atoms: C_11  and  C_12
REMARK    7  A    between atoms: C_12  and  C_25
REMARK    8  A    between atoms: N_16  and  C_17
REMARK                            x       y       z     vdW  Elec       q    Type
REMARK                         _______ _______ _______ _____ _____    ______ ____
ROOT
ATOM      1  C   UNL     1       2.606   5.747  18.634  0.00  0.00    +0.000 C 
ATOM      2  C   UNL     1       3.354   5.458  17.535  0.00  0.00    +0.000 C 
ATOM      3  C   UNL     1       3.848   6.484  16.521  0.00  0.00    +0.000 C 
ATOM      4  C   UNL     1       5.378   6.429  16.425  0.00  0.00    +0.000 C 
ATOM      5  N   UNL     1       5.826   5.084  16.043  0.00  0.00    +0.000 N 
ATOM      6  C   UNL     1       5.370   3.993  16.918  0.00  0.00    +0.000 C 
ATOM      7  C   UNL     1       3.842   4.060  17.131  0.00  0.00    +0.000 C 
ENDROOT
BRANCH   1  11
ATOM      8  C   UNL     1       1.244   9.771  19.440  0.00  0.00    +0.000 A 
ATOM      9  C   UNL     1       1.429   8.844  20.475  0.00  0.00    +0.000 A 
ATOM     10  C   UNL     1       1.924   7.561  20.211  0.00  0.00    +0.000 A 
ATOM     11  C   UNL     1       2.155   7.141  18.896  0.00  0.00    +0.000 A 
ATOM     12  C   UNL     1       1.927   8.046  17.852  0.00  0.00    +0.000 A 
ATOM     13  C   UNL     1       1.481   9.351  18.124  0.00  0.00    +0.000 A 
BRANCH   8  15
ATOM     14  N   UNL     1       1.336  12.289  19.126  0.00  0.00    +0.000 N 
ATOM     15  C   UNL     1       0.705  11.148  19.668  0.00  0.00    +0.000 C 
ATOM     16  O   UNL     1      -0.317  11.229  20.354  0.00  0.00    +0.000 OA
BRANCH  14  18
ATOM     17  C   UNL     1      -0.278  14.126  18.645  0.00  0.00    +0.000 C 
ATOM     18  C   UNL     1       0.821  13.594  19.556  0.00  0.00    +0.000 C 
ENDBRANCH  14  18
BRANCH  14  19
ATOM     19  C   UNL     1       2.517  12.220  18.253  0.00  0.00    +0.000 C 
ATOM     20  C   UNL     1       3.360  13.470  18.049  0.00  0.00    +0.000 C 
ENDBRANCH  14  19
ENDBRANCH   8  15
ENDBRANCH   1  11
BRANCH   5  21
ATOM     21  C   UNL     1       6.379   4.833  14.800  0.00  0.00    +0.000 A 
ATOM     22  C   UNL     1       7.504   5.539  14.343  0.00  0.00    +0.000 A 
ATOM     23  C   UNL     1       8.025   5.346  13.056  0.00  0.00    +0.000 A 
ATOM     24  C   UNL     1       7.439   4.422  12.196  0.00  0.00    +0.000 A 
ATOM     25  C   UNL     1       6.339   3.692  12.628  0.00  0.00    +0.000 A 
ATOM     26  C   UNL     1       5.820   3.901  13.911  0.00  0.00    +0.000 A 
ENDBRANCH   5  21
BRANCH   1  27
ATOM     27  C   UNL     1       2.229   4.651  19.554  0.00  0.00    +0.000 A 
ATOM     28  C   UNL     1       1.102   3.865  19.286  0.00  0.00    +0.000 A 
ATOM     29  C   UNL     1       0.717   2.860  20.174  0.00  0.00    +0.000 A 
ATOM     30  C   UNL     1       1.461   2.631  21.335  0.00  0.00    +0.000 A 
ATOM     31  C   UNL     1       2.589   3.402  21.601  0.00  0.00    +0.000 A 
ATOM     32  C   UNL     1       2.976   4.409  20.715  0.00  0.00    +0.000 A 
ENDBRANCH   1  27
TORSDOF 6
ENDMDL
MODEL 9
REMARK VINA RESULT:      -8.2      2.441      8.478
REMARK  Name = 
REMARK  8 active torsions:
REMARK  status: ('A' for Active; 'I' for Inactive)
REMARK    1  A    between atoms: C_1  and  C_2
REMARK    2  A    between atoms: C_2  and  N_3
REMARK    3  A    between atoms: N_3  and  C_4
REMARK    4  A    between atoms: C_4  and  C_5
REMARK    5  A    between atoms: C_6  and  C_8
REMARK    6  A    between atoms: C_11  and  C_12
REMARK    7  A    between atoms: C_12  and  C_25
REMARK    8  A    between atoms: N_16  and  C_17
REMARK                            x       y       z     vdW  Elec       q    Type
REMARK                         _______ _______ _______ _____ _____    ______ ____
ROOT
ATOM      1  C   UNL     1       3.105   5.755  18.478  0.00  0.00    +0.000 C 
ATOM      2  C   UNL     1       2.807   7.030  18.846  0.00  0.00    +0.000 C 
ATOM      3  C   UNL     1       3.325   8.283  18.147  0.00  0.00    +0.000 C 
ATOM      4  C   UNL     1       2.146   9.139  17.668  0.00  0.00    +0.000 C 
ATOM      5  N   UNL     1       1.280   9.508  18.795  0.00  0.00    +0.000 N 
ATOM      6  C   UNL     1       0.755   8.384  19.585  0.00  0.00    +0.000 C 
ATOM      7  C   UNL     1       1.893   7.432  20.012  0.00  0.00    +0.000 C 
ENDROOT
BRANCH   1  11
ATOM      8  C   UNL     1       5.791   5.029  15.169  0.00  0.00    +0.000 A 
ATOM      9  C   UNL     1       5.301   6.314  15.440  0.00  0.00    +0.000 A 
ATOM     10  C   UNL     1       4.477   6.550  16.547  0.00  0.00    +0.000 A 
ATOM     11  C   UNL     1       4.044   5.491  17.353  0.00  0.00    +0.000 A 
ATOM     12  C   UNL     1       4.491   4.197  17.060  0.00  0.00    +0.000 A 
ATOM     13  C   UNL     1       5.362   3.970  15.980  0.00  0.00    +0.000 A 
BRANCH   8  15
ATOM     14  N   UNL     1       6.196   3.946  12.908  0.00  0.00    +0.000 N 
ATOM     15  C   UNL     1       6.663   4.723  13.991  0.00  0.00    +0.000 C 
ATOM     16  O   UNL     1       7.806   5.185  14.021  0.00  0.00    +0.000 OA
BRANCH  14  18
ATOM     17  C   UNL     1       7.084   2.101  11.487  0.00  0.00    +0.000 C 
ATOM     18  C   UNL     1       7.187   3.566  11.895  0.00  0.00    +0.000 C 
ENDBRANCH  14  18
BRANCH  14  19
ATOM     19  C   UNL     1       4.821   3.436  12.814  0.00  0.00    +0.000 C 
ATOM     20  C   UNL     1       4.113   3.461  11.468  0.00  0.00    +0.000 C 
ENDBRANCH  14  19
ENDBRANCH   8  15
ENDBRANCH   1  11
BRANCH   5  21
ATOM     21  C   UNL     1       1.209  10.812  19.254  0.00  0.00    +0.000 A 
ATOM     22  C   UNL     1       1.828  11.866  18.561  0.00  0.00    +0.000 A 
ATOM     23  C   UNL     1       1.826  13.177  19.057  0.00  0.00    +0.000 A 
ATOM     24  C   UNL     1       1.186  13.470  20.257  0.00  0.00    +0.000 A 
ATOM     25  C   UNL     1       0.546  12.452  20.953  0.00  0.00    +0.000 A 
ATOM     26  C   UNL     1       0.563  11.144  20.455  0.00  0.00    +0.000 A 
ENDBRANCH   5  21
BRANCH   1  27
ATOM     27  C   UNL     1       2.499   4.632  19.228  0.00  0.00    +0.000 A 
ATOM     28  C   UNL     1       3.049   4.222  20.447  0.00  0.00    +0.000 A 
ATOM     29  C   UNL     1       2.508   3.135  21.135  0.00  0.00    +0.000 A 
ATOM     30  C   UNL     1       1.408   2.453  20.607  0.00  0.00    +0.000 A 
ATOM     31  C   UNL     1       0.850   2.863  19.401  0.00  0.00    +0.000 A 
ATOM     32  C   UNL     1       1.389   3.949  18.710  0.00  0.00    +0.000 A 
ENDBRANCH   1  27
TORSDOF 6
ENDMDL
