MODEL 1
REMARK VINA RESULT:      -9.3      0.000      0.000
REMARK  Name = 
REMARK  8 active torsions:
REMARK  status: ('A' for Active; 'I' for Inactive)
REMARK    1  A    between atoms: C_1  and  N_2
REMARK    2  A    between atoms: C_3  and  C_4
REMARK    3  A    between atoms: N_11  and  C_12
REMARK    4  A    between atoms: C_12  and  C_13
REMARK    5  A    between atoms: C_13  and  C_15
REMARK    6  A    between atoms: C_15  and  C_16
REMARK    7  A    between atoms: C_16  and  C_17
REMARK    8  A    between atoms: C_23  and  C_24
REMARK                            x       y       z     vdW  Elec       q    Type
REMARK                         _______ _______ _______ _____ _____    ______ ____
ROOT
ATOM      1  C   UNL     1       3.412   3.546  16.547  0.00  0.00    +0.000 C 
ATOM      2  N   UNL     1       4.575   4.053  17.264  0.00  0.00    +0.000 N 
ATOM      3  C   UNL     1       4.609   4.374  18.628  0.00  0.00    +0.000 A 
ATOM      4  N   UNL     1       5.631   5.119  18.885  0.00  0.00    +0.000 NA
ATOM      5  N   UNL     1       6.343   5.172  17.727  0.00  0.00    +0.000 N 
ATOM      6  C   UNL     1       5.714   4.544  16.706  0.00  0.00    +0.000 A 
ENDROOT
BRANCH   3   7
ATOM      7  C   UNL     1       3.580   4.040  19.680  0.00  0.00    +0.000 A 
ATOM      8  C   UNL     1       3.589   2.795  20.310  0.00  0.00    +0.000 A 
ATOM      9  C   UNL     1       2.570   2.453  21.196  0.00  0.00    +0.000 A 
ATOM     10  C   UNL     1       1.557   3.370  21.478  0.00  0.00    +0.000 A 
ATOM     11  C   UNL     1       1.579   4.636  20.898  0.00  0.00    +0.000 A 
ATOM     12  C   UNL     1       2.595   4.982  20.006  0.00  0.00    +0.000 A 
ENDBRANCH   3   7
BRANCH   6  13
ATOM     13  C   UNL     1       6.145   4.464  15.240  0.00  0.00    +0.000 A 
ATOM     14  C   UNL     1       5.457   3.640  14.341  0.00  0.00    +0.000 A 
ATOM     15  C   UNL     1       5.858   3.540  13.005  0.00  0.00    +0.000 A 
ATOM     16  C   UNL     1       6.972   4.238  12.557  0.00  0.00    +0.000 A 
ATOM     17  C   UNL     1       7.661   5.068  13.432  0.00  0.00    +0.000 A 
ATOM     18  C   UNL     1       7.235   5.200  14.757  0.00  0.00    +0.000 A 
ENDBRANCH   6  13
BRANCH   5  19
ATOM     19  C   UNL     1       7.623   5.861  17.808  0.00  0.00    +0.000 C 
BRANCH  19  20
ATOM     20  C   UNL     1       7.494   7.369  17.637  0.00  0.00    +0.000 C 
ATOM     21  O   UNL     1       6.634   7.852  16.902  0.00  0.00    +0.000 OA
BRANCH  20  22
ATOM     22  C   UNL     1       8.404   8.268  18.465  0.00  0.00    +0.000 C 
BRANCH  22  23
ATOM     23  C   UNL     1       8.429   9.717  17.982  0.00  0.00    +0.000 C 
BRANCH  23  24
ATOM     24  C   UNL     1       9.448  10.566  18.687  0.00  0.00    +0.000 A 
ATOM     25  C   UNL     1      10.477  11.175  17.956  0.00  0.00    +0.000 A 
ATOM     26  C   UNL     1      11.398  12.004  18.599  0.00  0.00    +0.000 A 
ATOM     27  C   UNL     1      11.299  12.220  19.968  0.00  0.00    +0.000 A 
ATOM     28  C   UNL     1      10.282  11.611  20.704  0.00  0.00    +0.000 A 
ATOM     29  C   UNL     1       9.360  10.783  20.063  0.00  0.00    +0.000 A 
ENDBRANCH  23  24
ENDBRANCH  22  23
ENDBRANCH  20  22
ENDBRANCH  19  20
ENDBRANCH   5  19
TORSDOF 7
ENDMDL
MODEL 2
REMARK VINA RESULT:      -9.3      0.144      1.273
REMARK  Name = 
REMARK  8 active torsions:
REMARK  status: ('A' for Active; 'I' for Inactive)
REMARK    1  A    between atoms: C_1  and  N_2
REMARK    2  A    between atoms: C_3  and  C_4
REMARK    3  A    between atoms: N_11  and  C_12
REMARK    4  A    between atoms: C_12  and  C_13
REMARK    5  A    between atoms: C_13  and  C_15
REMARK    6  A    between atoms: C_15  and  C_16
REMARK    7  A    between atoms: C_16  and  C_17
REMARK    8  A    between atoms: C_23  and  C_24
REMARK                            x       y       z     vdW  Elec       q    Type
REMARK                         _______ _______ _______ _____ _____    ______ ____
ROOT
ATOM      1  C   UNL     1       3.402   3.490  16.428  0.00  0.00    +0.000 C 
ATOM      2  N   UNL     1       4.551   3.984  17.176  0.00  0.00    +0.000 N 
ATOM      3  C   UNL     1       4.560   4.277  18.547  0.00  0.00    +0.000 A 
ATOM      4  N   UNL     1       5.576   5.017  18.837  0.00  0.00    +0.000 NA
ATOM      5  N   UNL     1       6.309   5.095  17.693  0.00  0.00    +0.000 N 
ATOM      6  C   UNL     1       5.699   4.486  16.648  0.00  0.00    +0.000 A 
ENDROOT
BRANCH   3   7
ATOM      7  C   UNL     1       3.513   3.921  19.573  0.00  0.00    +0.000 A 
ATOM      8  C   UNL     1       2.418   4.758  19.789  0.00  0.00    +0.000 A 
ATOM      9  C   UNL     1       1.518   4.480  20.815  0.00  0.00    +0.000 A 
ATOM     10  C   UNL     1       1.695   3.346  21.607  0.00  0.00    +0.000 A 
ATOM     11  C   UNL     1       2.753   2.475  21.356  0.00  0.00    +0.000 A 
ATOM     12  C   UNL     1       3.660   2.751  20.332  0.00  0.00    +0.000 A 
ENDBRANCH   3   7
BRANCH   6  13
ATOM     13  C   UNL     1       6.157   4.437  15.189  0.00  0.00    +0.000 A 
ATOM     14  C   UNL     1       5.488   3.628  14.263  0.00  0.00    +0.000 A 
ATOM     15  C   UNL     1       5.913   3.556  12.933  0.00  0.00    +0.000 A 
ATOM     16  C   UNL     1       7.032   4.267  12.518  0.00  0.00    +0.000 A 
ATOM     17  C   UNL     1       7.701   5.083  13.420  0.00  0.00    +0.000 A 
ATOM     18  C   UNL     1       7.252   5.188  14.740  0.00  0.00    +0.000 A 
ENDBRANCH   6  13
BRANCH   5  19
ATOM     19  C   UNL     1       7.586   5.783  17.812  0.00  0.00    +0.000 C 
BRANCH  19  20
ATOM     20  C   UNL     1       7.465   7.289  17.622  0.00  0.00    +0.000 C 
ATOM     21  O   UNL     1       6.566   7.771  16.936  0.00  0.00    +0.000 OA
BRANCH  20  22
ATOM     22  C   UNL     1       8.439   8.190  18.373  0.00  0.00    +0.000 C 
BRANCH  22  23
ATOM     23  C   UNL     1       8.284   9.670  18.030  0.00  0.00    +0.000 C 
BRANCH  23  24
ATOM     24  C   UNL     1       9.333  10.543  18.658  0.00  0.00    +0.000 A 
ATOM     25  C   UNL     1       9.333  10.745  20.046  0.00  0.00    +0.000 A 
ATOM     26  C   UNL     1      10.333  11.516  20.641  0.00  0.00    +0.000 A 
ATOM     27  C   UNL     1      11.326  12.091  19.856  0.00  0.00    +0.000 A 
ATOM     28  C   UNL     1      11.327  11.900  18.474  0.00  0.00    +0.000 A 
ATOM     29  C   UNL     1      10.330  11.129  17.878  0.00  0.00    +0.000 A 
ENDBRANCH  23  24
ENDBRANCH  22  23
ENDBRANCH  20  22
ENDBRANCH  19  20
ENDBRANCH   5  19
TORSDOF 7
ENDMDL
MODEL 3
REMARK VINA RESULT:      -9.1      3.803      6.695
REMARK  Name = 
REMARK  8 active torsions:
REMARK  status: ('A' for Active; 'I' for Inactive)
REMARK    1  A    between atoms: C_1  and  N_2
REMARK    2  A    between atoms: C_3  and  C_4
REMARK    3  A    between atoms: N_11  and  C_12
REMARK    4  A    between atoms: C_12  and  C_13
REMARK    5  A    between atoms: C_13  and  C_15
REMARK    6  A    between atoms: C_15  and  C_16
REMARK    7  A    between atoms: C_16  and  C_17
REMARK    8  A    between atoms: C_23  and  C_24
REMARK                            x       y       z     vdW  Elec       q    Type
REMARK                         _______ _______ _______ _____ _____    ______ ____
ROOT
ATOM      1  C   UNL     1       1.192   5.456  20.576  0.00  0.00    +0.000 C 
ATOM      2  N   UNL     1       2.165   6.124  19.722  0.00  0.00    +0.000 N 
ATOM      3  C   UNL     1       2.199   7.500  19.454  0.00  0.00    +0.000 A 
ATOM      4  N   UNL     1       2.921   7.733  18.411  0.00  0.00    +0.000 NA
ATOM      5  N   UNL     1       3.475   6.537  18.076  0.00  0.00    +0.000 N 
ATOM      6  C   UNL     1       3.018   5.523  18.849  0.00  0.00    +0.000 A 
ENDROOT
BRANCH   3   7
ATOM      7  C   UNL     1       1.436   8.596  20.158  0.00  0.00    +0.000 A 
ATOM      8  C   UNL     1       1.323   8.599  21.549  0.00  0.00    +0.000 A 
ATOM      9  C   UNL     1       0.524   9.547  22.182  0.00  0.00    +0.000 A 
ATOM     10  C   UNL     1      -0.138  10.516  21.426  0.00  0.00    +0.000 A 
ATOM     11  C   UNL     1       0.022  10.552  20.042  0.00  0.00    +0.000 A 
ATOM     12  C   UNL     1       0.818   9.602  19.403  0.00  0.00    +0.000 A 
ENDBRANCH   3   7
BRANCH   6  13
ATOM     13  C   UNL     1       3.329   4.030  18.726  0.00  0.00    +0.000 A 
ATOM     14  C   UNL     1       2.690   3.250  17.755  0.00  0.00    +0.000 A 
ATOM     15  C   UNL     1       2.949   1.879  17.650  0.00  0.00    +0.000 A 
ATOM     16  C   UNL     1       3.826   1.265  18.535  0.00  0.00    +0.000 A 
ATOM     17  C   UNL     1       4.477   2.025  19.497  0.00  0.00    +0.000 A 
ATOM     18  C   UNL     1       4.250   3.402  19.576  0.00  0.00    +0.000 A 
ENDBRANCH   6  13
BRANCH   5  19
ATOM     19  C   UNL     1       4.444   6.575  16.990  0.00  0.00    +0.000 C 
BRANCH  19  20
ATOM     20  C   UNL     1       5.830   6.112  17.419  0.00  0.00    +0.000 C 
ATOM     21  O   UNL     1       6.389   6.607  18.396  0.00  0.00    +0.000 OA
BRANCH  20  22
ATOM     22  C   UNL     1       6.472   4.960  16.655  0.00  0.00    +0.000 C 
BRANCH  22  23
ATOM     23  C   UNL     1       5.522   4.277  15.674  0.00  0.00    +0.000 C 
BRANCH  23  24
ATOM     24  C   UNL     1       6.047   4.229  14.267  0.00  0.00    +0.000 A 
ATOM     25  C   UNL     1       7.203   4.946  13.927  0.00  0.00    +0.000 A 
ATOM     26  C   UNL     1       7.722   4.866  12.634  0.00  0.00    +0.000 A 
ATOM     27  C   UNL     1       7.089   4.080  11.679  0.00  0.00    +0.000 A 
ATOM     28  C   UNL     1       5.934   3.369  12.008  0.00  0.00    +0.000 A 
ATOM     29  C   UNL     1       5.414   3.447  13.300  0.00  0.00    +0.000 A 
ENDBRANCH  23  24
ENDBRANCH  22  23
ENDBRANCH  20  22
ENDBRANCH  19  20
ENDBRANCH   5  19
TORSDOF 7
ENDMDL
MODEL 4
REMARK VINA RESULT:      -9.1      3.890      6.785
REMARK  Name = 
REMARK  8 active torsions:
REMARK  status: ('A' for Active; 'I' for Inactive)
REMARK    1  A    between atoms: C_1  and  N_2
REMARK    2  A    between atoms: C_3  and  C_4
REMARK    3  A    between atoms: N_11  and  C_12
REMARK    4  A    between atoms: C_12  and  C_13
REMARK    5  A    between atoms: C_13  and  C_15
REMARK    6  A    between atoms: C_15  and  C_16
REMARK    7  A    between atoms: C_16  and  C_17
REMARK    8  A    between atoms: C_23  and  C_24
REMARK                            x       y       z     vdW  Elec       q    Type
REMARK                         _______ _______ _______ _____ _____    ______ ____
ROOT
ATOM      1  C   UNL     1       0.997   5.463  20.536  0.00  0.00    +0.000 C 
ATOM      2  N   UNL     1       2.032   6.132  19.760  0.00  0.00    +0.000 N 
ATOM      3  C   UNL     1       2.113   7.514  19.538  0.00  0.00    +0.000 A 
ATOM      4  N   UNL     1       2.899   7.761  18.545  0.00  0.00    +0.000 NA
ATOM      5  N   UNL     1       3.443   6.561  18.205  0.00  0.00    +0.000 N 
ATOM      6  C   UNL     1       2.919   5.536  18.918  0.00  0.00    +0.000 A 
ENDROOT
BRANCH   3   7
ATOM      7  C   UNL     1       1.338   8.606  20.233  0.00  0.00    +0.000 A 
ATOM      8  C   UNL     1       0.737   9.628  19.495  0.00  0.00    +0.000 A 
ATOM      9  C   UNL     1       0.121  10.692  20.150  0.00  0.00    +0.000 A 
ATOM     10  C   UNL     1       0.077  10.720  21.543  0.00  0.00    +0.000 A 
ATOM     11  C   UNL     1       0.622   9.671  22.281  0.00  0.00    +0.000 A 
ATOM     12  C   UNL     1       1.244   8.605  21.631  0.00  0.00    +0.000 A 
ENDBRANCH   3   7
BRANCH   6  13
ATOM     13  C   UNL     1       3.202   4.040  18.766  0.00  0.00    +0.000 A 
ATOM     14  C   UNL     1       4.104   3.398  19.622  0.00  0.00    +0.000 A 
ATOM     15  C   UNL     1       4.389   2.037  19.476  0.00  0.00    +0.000 A 
ATOM     16  C   UNL     1       3.800   1.306  18.452  0.00  0.00    +0.000 A 
ATOM     17  C   UNL     1       2.895   1.924  17.600  0.00  0.00    +0.000 A 
ATOM     18  C   UNL     1       2.578   3.275  17.771  0.00  0.00    +0.000 A 
ENDBRANCH   6  13
BRANCH   5  19
ATOM     19  C   UNL     1       4.473   6.608  17.177  0.00  0.00    +0.000 C 
BRANCH  19  20
ATOM     20  C   UNL     1       5.755   5.899  17.593  0.00  0.00    +0.000 C 
ATOM     21  O   UNL     1       6.387   6.262  18.583  0.00  0.00    +0.000 OA
BRANCH  20  22
ATOM     22  C   UNL     1       6.191   4.674  16.797  0.00  0.00    +0.000 C 
BRANCH  22  23
ATOM     23  C   UNL     1       5.267   4.350  15.625  0.00  0.00    +0.000 C 
BRANCH  23  24
ATOM     24  C   UNL     1       5.980   4.268  14.306  0.00  0.00    +0.000 A 
ATOM     25  C   UNL     1       5.475   3.445  13.289  0.00  0.00    +0.000 A 
ATOM     26  C   UNL     1       6.106   3.401  12.044  0.00  0.00    +0.000 A 
ATOM     27  C   UNL     1       7.242   4.169  11.815  0.00  0.00    +0.000 A 
ATOM     28  C   UNL     1       7.754   4.985  12.825  0.00  0.00    +0.000 A 
ATOM     29  C   UNL     1       7.124   5.030  14.068  0.00  0.00    +0.000 A 
ENDBRANCH  23  24
ENDBRANCH  22  23
ENDBRANCH  20  22
ENDBRANCH  19  20
ENDBRANCH   5  19
TORSDOF 7
ENDMDL
MODEL 5
REMARK VINA RESULT:      -8.8      0.955      1.553
REMARK  Name = 
REMARK  8 active torsions:
REMARK  status: ('A' for Active; 'I' for Inactive)
REMARK    1  A    between atoms: C_1  and  N_2
REMARK    2  A    between atoms: C_3  and  C_4
REMARK    3  A    between atoms: N_11  and  C_12
REMARK    4  A    between atoms: C_12  and  C_13
REMARK    5  A    between atoms: C_13  and  C_15
REMARK    6  A    between atoms: C_15  and  C_16
REMARK    7  A    between atoms: C_16  and  C_17
REMARK    8  A    between atoms: C_23  and  C_24
REMARK                            x       y       z     vdW  Elec       q    Type
REMARK                         _______ _______ _______ _____ _____    ______ ____
ROOT
ATOM      1  C   UNL     1       3.873   2.735  16.675  0.00  0.00    +0.000 C 
ATOM      2  N   UNL     1       4.417   4.013  17.116  0.00  0.00    +0.000 N 
ATOM      3  C   UNL     1       4.029   4.703  18.273  0.00  0.00    +0.000 A 
ATOM      4  N   UNL     1       4.409   5.934  18.205  0.00  0.00    +0.000 NA
ATOM      5  N   UNL     1       5.165   6.021  17.077  0.00  0.00    +0.000 N 
ATOM      6  C   UNL     1       5.175   4.863  16.374  0.00  0.00    +0.000 A 
ENDROOT
BRANCH   3   7
ATOM      7  C   UNL     1       3.189   4.189  19.415  0.00  0.00    +0.000 A 
ATOM      8  C   UNL     1       3.640   3.133  20.208  0.00  0.00    +0.000 A 
ATOM      9  C   UNL     1       2.811   2.591  21.187  0.00  0.00    +0.000 A 
ATOM     10  C   UNL     1       1.539   3.125  21.396  0.00  0.00    +0.000 A 
ATOM     11  C   UNL     1       1.109   4.219  20.647  0.00  0.00    +0.000 A 
ATOM     12  C   UNL     1       1.934   4.763  19.662  0.00  0.00    +0.000 A 
ENDBRANCH   3   7
BRANCH   6  13
ATOM     13  C   UNL     1       5.829   4.591  15.017  0.00  0.00    +0.000 A 
ATOM     14  C   UNL     1       7.101   5.098  14.728  0.00  0.00    +0.000 A 
ATOM     15  C   UNL     1       7.697   4.877  13.482  0.00  0.00    +0.000 A 
ATOM     16  C   UNL     1       7.016   4.172  12.498  0.00  0.00    +0.000 A 
ATOM     17  C   UNL     1       5.757   3.653  12.771  0.00  0.00    +0.000 A 
ATOM     18  C   UNL     1       5.179   3.839  14.030  0.00  0.00    +0.000 A 
ENDBRANCH   6  13
BRANCH   5  19
ATOM     19  C   UNL     1       5.817   7.303  16.855  0.00  0.00    +0.000 C 
BRANCH  19  20
ATOM     20  C   UNL     1       7.153   7.419  17.576  0.00  0.00    +0.000 C 
ATOM     21  O   UNL     1       7.700   6.429  18.059  0.00  0.00    +0.000 OA
BRANCH  20  22
ATOM     22  C   UNL     1       7.836   8.781  17.614  0.00  0.00    +0.000 C 
BRANCH  22  23
ATOM     23  C   UNL     1       8.751   8.968  18.823  0.00  0.00    +0.000 C 
BRANCH  23  24
ATOM     24  C   UNL     1       9.249  10.376  18.984  0.00  0.00    +0.000 A 
ATOM     25  C   UNL     1       9.929  10.747  20.153  0.00  0.00    +0.000 A 
ATOM     26  C   UNL     1      10.437  12.041  20.287  0.00  0.00    +0.000 A 
ATOM     27  C   UNL     1      10.261  12.965  19.264  0.00  0.00    +0.000 A 
ATOM     28  C   UNL     1       9.578  12.605  18.102  0.00  0.00    +0.000 A 
ATOM     29  C   UNL     1       9.072  11.313  17.965  0.00  0.00    +0.000 A 
ENDBRANCH  23  24
ENDBRANCH  22  23
ENDBRANCH  20  22
ENDBRANCH  19  20
ENDBRANCH   5  19
TORSDOF 7
ENDMDL
MODEL 6
REMARK VINA RESULT:      -8.7      0.941      1.342
REMARK  Name = 
REMARK  8 active torsions:
REMARK  status: ('A' for Active; 'I' for Inactive)
REMARK    1  A    between atoms: C_1  and  N_2
REMARK    2  A    between atoms: C_3  and  C_4
REMARK    3  A    between atoms: N_11  and  C_12
REMARK    4  A    between atoms: C_12  and  C_13
REMARK    5  A    between atoms: C_13  and  C_15
REMARK    6  A    between atoms: C_15  and  C_16
REMARK    7  A    between atoms: C_16  and  C_17
REMARK    8  A    between atoms: C_23  and  C_24
REMARK                            x       y       z     vdW  Elec       q    Type
REMARK                         _______ _______ _______ _____ _____    ______ ____
ROOT
ATOM      1  C   UNL     1       3.943   2.653  16.630  0.00  0.00    +0.000 C 
ATOM      2  N   UNL     1       4.488   3.917  17.107  0.00  0.00    +0.000 N 
ATOM      3  C   UNL     1       4.121   4.561  18.297  0.00  0.00    +0.000 A 
ATOM      4  N   UNL     1       4.490   5.797  18.268  0.00  0.00    +0.000 NA
ATOM      5  N   UNL     1       5.219   5.932  17.127  0.00  0.00    +0.000 N 
ATOM      6  C   UNL     1       5.222   4.802  16.380  0.00  0.00    +0.000 A 
ENDROOT
BRANCH   3   7
ATOM      7  C   UNL     1       3.311   3.997  19.438  0.00  0.00    +0.000 A 
ATOM      8  C   UNL     1       2.102   4.587  19.809  0.00  0.00    +0.000 A 
ATOM      9  C   UNL     1       1.418   4.132  20.933  0.00  0.00    +0.000 A 
ATOM     10  C   UNL     1       1.926   3.062  21.670  0.00  0.00    +0.000 A 
ATOM     11  C   UNL     1       3.101   2.431  21.267  0.00  0.00    +0.000 A 
ATOM     12  C   UNL     1       3.793   2.886  20.145  0.00  0.00    +0.000 A 
ENDBRANCH   3   7
BRANCH   6  13
ATOM     13  C   UNL     1       5.847   4.587  15.000  0.00  0.00    +0.000 A 
ATOM     14  C   UNL     1       5.142   3.905  14.001  0.00  0.00    +0.000 A 
ATOM     15  C   UNL     1       5.712   3.681  12.744  0.00  0.00    +0.000 A 
ATOM     16  C   UNL     1       7.007   4.107  12.479  0.00  0.00    +0.000 A 
ATOM     17  C   UNL     1       7.717   4.795  13.455  0.00  0.00    +0.000 A 
ATOM     18  C   UNL     1       7.132   5.056  14.697  0.00  0.00    +0.000 A 
ENDBRANCH   6  13
BRANCH   5  19
ATOM     19  C   UNL     1       5.856   7.228  16.939  0.00  0.00    +0.000 C 
BRANCH  19  20
ATOM     20  C   UNL     1       7.230   7.310  17.591  0.00  0.00    +0.000 C 
ATOM     21  O   UNL     1       7.793   6.301  18.011  0.00  0.00    +0.000 OA
BRANCH  20  22
ATOM     22  C   UNL     1       7.926   8.665  17.636  0.00  0.00    +0.000 C 
BRANCH  22  23
ATOM     23  C   UNL     1       8.743   8.886  18.907  0.00  0.00    +0.000 C 
BRANCH  23  24
ATOM     24  C   UNL     1       9.220  10.300  19.074  0.00  0.00    +0.000 A 
ATOM     25  C   UNL     1       9.264  11.158  17.966  0.00  0.00    +0.000 A 
ATOM     26  C   UNL     1       9.661  12.488  18.124  0.00  0.00    +0.000 A 
ATOM     27  C   UNL     1      10.020  12.960  19.381  0.00  0.00    +0.000 A 
ATOM     28  C   UNL     1       9.986  12.109  20.487  0.00  0.00    +0.000 A 
ATOM     29  C   UNL     1       9.589  10.781  20.331  0.00  0.00    +0.000 A 
ENDBRANCH  23  24
ENDBRANCH  22  23
ENDBRANCH  20  22
ENDBRANCH  19  20
ENDBRANCH   5  19
TORSDOF 7
ENDMDL
MODEL 7
REMARK VINA RESULT:      -8.6      0.937      1.758
REMARK  Name = 
REMARK  8 active torsions:
REMARK  status: ('A' for Active; 'I' for Inactive)
REMARK    1  A    between atoms: C_1  and  N_2
REMARK    2  A    between atoms: C_3  and  C_4
REMARK    3  A    between atoms: N_11  and  C_12
REMARK    4  A    between atoms: C_12  and  C_13
REMARK    5  A    between atoms: C_13  and  C_15
REMARK    6  A    between atoms: C_15  and  C_16
REMARK    7  A    between atoms: C_16  and  C_17
REMARK    8  A    between atoms: C_23  and  C_24
REMARK                            x       y       z     vdW  Elec       q    Type
REMARK                         _______ _______ _______ _____ _____    ______ ____
ROOT
ATOM      1  C   UNL     1       3.521   2.978  16.419  0.00  0.00    +0.000 C 
ATOM      2  N   UNL     1       4.311   4.037  17.033  0.00  0.00    +0.000 N 
ATOM      3  C   UNL     1       4.054   4.619  18.283  0.00  0.00    +0.000 A 
ATOM      4  N   UNL     1       4.683   5.741  18.389  0.00  0.00    +0.000 NA
ATOM      5  N   UNL     1       5.459   5.831  17.275  0.00  0.00    +0.000 N 
ATOM      6  C   UNL     1       5.241   4.810  16.412  0.00  0.00    +0.000 A 
ENDROOT
BRANCH   3   7
ATOM      7  C   UNL     1       3.106   4.131  19.350  0.00  0.00    +0.000 A 
ATOM      8  C   UNL     1       1.871   4.752  19.538  0.00  0.00    +0.000 A 
ATOM      9  C   UNL     1       1.052   4.370  20.597  0.00  0.00    +0.000 A 
ATOM     10  C   UNL     1       1.452   3.343  21.452  0.00  0.00    +0.000 A 
ATOM     11  C   UNL     1       2.658   2.680  21.230  0.00  0.00    +0.000 A 
ATOM     12  C   UNL     1       3.484   3.061  20.173  0.00  0.00    +0.000 A 
ENDBRANCH   3   7
BRANCH   6  13
ATOM     13  C   UNL     1       5.847   4.607  15.021  0.00  0.00    +0.000 A 
ATOM     14  C   UNL     1       7.087   5.171  14.698  0.00  0.00    +0.000 A 
ATOM     15  C   UNL     1       7.638   5.013  13.423  0.00  0.00    +0.000 A 
ATOM     16  C   UNL     1       6.943   4.316  12.443  0.00  0.00    +0.000 A 
ATOM     17  C   UNL     1       5.716   3.741  12.749  0.00  0.00    +0.000 A 
ATOM     18  C   UNL     1       5.184   3.863  14.036  0.00  0.00    +0.000 A 
ENDBRANCH   6  13
BRANCH   5  19
ATOM     19  C   UNL     1       6.366   6.968  17.232  0.00  0.00    +0.000 C 
BRANCH  19  20
ATOM     20  C   UNL     1       7.659   6.721  17.997  0.00  0.00    +0.000 C 
ATOM     21  O   UNL     1       8.141   5.592  18.080  0.00  0.00    +0.000 OA
BRANCH  20  22
ATOM     22  C   UNL     1       8.387   7.921  18.589  0.00  0.00    +0.000 C 
BRANCH  22  23
ATOM     23  C   UNL     1       8.078   9.234  17.871  0.00  0.00    +0.000 C 
BRANCH  23  24
ATOM     24  C   UNL     1       8.846  10.406  18.411  0.00  0.00    +0.000 A 
ATOM     25  C   UNL     1       9.441  10.329  19.678  0.00  0.00    +0.000 A 
ATOM     26  C   UNL     1      10.196  11.399  20.164  0.00  0.00    +0.000 A 
ATOM     27  C   UNL     1      10.352  12.545  19.393  0.00  0.00    +0.000 A 
ATOM     28  C   UNL     1       9.757  12.631  18.134  0.00  0.00    +0.000 A 
ATOM     29  C   UNL     1       9.003  11.564  17.646  0.00  0.00    +0.000 A 
ENDBRANCH  23  24
ENDBRANCH  22  23
ENDBRANCH  20  22
ENDBRANCH  19  20
ENDBRANCH   5  19
TORSDOF 7
ENDMDL
MODEL 8
REMARK VINA RESULT:      -8.5      3.552      6.298
REMARK  Name = 
REMARK  8 active torsions:
REMARK  status: ('A' for Active; 'I' for Inactive)
REMARK    1  A    between atoms: C_1  and  N_2
REMARK    2  A    between atoms: C_3  and  C_4
REMARK    3  A    between atoms: N_11  and  C_12
REMARK    4  A    between atoms: C_12  and  C_13
REMARK    5  A    between atoms: C_13  and  C_15
REMARK    6  A    between atoms: C_15  and  C_16
REMARK    7  A    between atoms: C_16  and  C_17
REMARK    8  A    between atoms: C_23  and  C_24
REMARK                            x       y       z     vdW  Elec       q    Type
REMARK                         _______ _______ _______ _____ _____    ______ ____
ROOT
ATOM      1  C   UNL     1       1.206   5.523  20.696  0.00  0.00    +0.000 C 
ATOM      2  N   UNL     1       2.163   6.171  19.809  0.00  0.00    +0.000 N 
ATOM      3  C   UNL     1       2.210   7.544  19.531  0.00  0.00    +0.000 A 
ATOM      4  N   UNL     1       2.905   7.759  18.465  0.00  0.00    +0.000 NA
ATOM      5  N   UNL     1       3.430   6.552  18.122  0.00  0.00    +0.000 N 
ATOM      6  C   UNL     1       2.980   5.551  18.916  0.00  0.00    +0.000 A 
ENDROOT
BRANCH   3   7
ATOM      7  C   UNL     1       1.486   8.656  20.250  0.00  0.00    +0.000 A 
ATOM      8  C   UNL     1       1.406   8.665  21.643  0.00  0.00    +0.000 A 
ATOM      9  C   UNL     1       0.641   9.631  22.292  0.00  0.00    +0.000 A 
ATOM     10  C   UNL     1      -0.021  10.609  21.550  0.00  0.00    +0.000 A 
ATOM     11  C   UNL     1       0.106  10.639  20.162  0.00  0.00    +0.000 A 
ATOM     12  C   UNL     1       0.868   9.671  19.507  0.00  0.00    +0.000 A 
ENDBRANCH   3   7
BRANCH   6  13
ATOM     13  C   UNL     1       3.265   4.052  18.794  0.00  0.00    +0.000 A 
ATOM     14  C   UNL     1       2.561   3.269  17.871  0.00  0.00    +0.000 A 
ATOM     15  C   UNL     1       2.796   1.894  17.768  0.00  0.00    +0.000 A 
ATOM     16  C   UNL     1       3.714   1.278  18.609  0.00  0.00    +0.000 A 
ATOM     17  C   UNL     1       4.428   2.041  19.523  0.00  0.00    +0.000 A 
ATOM     18  C   UNL     1       4.224   3.422  19.598  0.00  0.00    +0.000 A 
ENDBRANCH   6  13
BRANCH   5  19
ATOM     19  C   UNL     1       4.366   6.568  17.008  0.00  0.00    +0.000 C 
BRANCH  19  20
ATOM     20  C   UNL     1       5.799   6.839  17.446  0.00  0.00    +0.000 C 
ATOM     21  O   UNL     1       6.402   7.839  17.059  0.00  0.00    +0.000 OA
BRANCH  20  22
ATOM     22  C   UNL     1       6.442   5.880  18.441  0.00  0.00    +0.000 C 
BRANCH  22  23
ATOM     23  C   UNL     1       7.109   4.676  17.780  0.00  0.00    +0.000 C 
BRANCH  23  24
ATOM     24  C   UNL     1       6.727   4.496  16.339  0.00  0.00    +0.000 A 
ATOM     25  C   UNL     1       7.486   5.111  15.333  0.00  0.00    +0.000 A 
ATOM     26  C   UNL     1       7.164   4.908  13.989  0.00  0.00    +0.000 A 
ATOM     27  C   UNL     1       6.086   4.100  13.649  0.00  0.00    +0.000 A 
ATOM     28  C   UNL     1       5.323   3.490  14.645  0.00  0.00    +0.000 A 
ATOM     29  C   UNL     1       5.643   3.691  15.987  0.00  0.00    +0.000 A 
ENDBRANCH  23  24
ENDBRANCH  22  23
ENDBRANCH  20  22
ENDBRANCH  19  20
ENDBRANCH   5  19
TORSDOF 7
ENDMDL
MODEL 9
REMARK VINA RESULT:      -8.4      6.648      9.536
REMARK  Name = 
REMARK  8 active torsions:
REMARK  status: ('A' for Active; 'I' for Inactive)
REMARK    1  A    between atoms: C_1  and  N_2
REMARK    2  A    between atoms: C_3  and  C_4
REMARK    3  A    between atoms: N_11  and  C_12
REMARK    4  A    between atoms: C_12  and  C_13
REMARK    5  A    between atoms: C_13  and  C_15
REMARK    6  A    between atoms: C_15  and  C_16
REMARK    7  A    between atoms: C_16  and  C_17
REMARK    8  A    between atoms: C_23  and  C_24
REMARK                            x       y       z     vdW  Elec       q    Type
REMARK                         _______ _______ _______ _____ _____    ______ ____
ROOT
ATOM      1  C   UNL     1       2.513   8.511  17.532  0.00  0.00    +0.000 C 
ATOM      2  N   UNL     1       2.075   8.183  18.882  0.00  0.00    +0.000 N 
ATOM      3  C   UNL     1       2.279   6.952  19.523  0.00  0.00    +0.000 A 
ATOM      4  N   UNL     1       1.486   6.841  20.535  0.00  0.00    +0.000 NA
ATOM      5  N   UNL     1       0.864   8.046  20.645  0.00  0.00    +0.000 N 
ATOM      6  C   UNL     1       1.189   8.888  19.635  0.00  0.00    +0.000 A 
ENDROOT
BRANCH   3   7
ATOM      7  C   UNL     1       3.182   5.824  19.088  0.00  0.00    +0.000 A 
ATOM      8  C   UNL     1       4.529   5.814  19.454  0.00  0.00    +0.000 A 
ATOM      9  C   UNL     1       5.380   4.831  18.955  0.00  0.00    +0.000 A 
ATOM     10  C   UNL     1       4.878   3.837  18.115  0.00  0.00    +0.000 A 
ATOM     11  C   UNL     1       3.521   3.810  17.797  0.00  0.00    +0.000 A 
ATOM     12  C   UNL     1       2.665   4.794  18.290  0.00  0.00    +0.000 A 
ENDBRANCH   3   7
BRANCH   6  13
ATOM     13  C   UNL     1       0.633  10.286  19.359  0.00  0.00    +0.000 A 
ATOM     14  C   UNL     1       1.390  11.424  19.663  0.00  0.00    +0.000 A 
ATOM     15  C   UNL     1       0.882  12.707  19.438  0.00  0.00    +0.000 A 
ATOM     16  C   UNL     1      -0.402  12.871  18.935  0.00  0.00    +0.000 A 
ATOM     17  C   UNL     1      -1.163  11.753  18.617  0.00  0.00    +0.000 A 
ATOM     18  C   UNL     1      -0.640  10.470  18.803  0.00  0.00    +0.000 A 
ENDBRANCH   6  13
BRANCH   5  19
ATOM     19  C   UNL     1       0.004   8.204  21.809  0.00  0.00    +0.000 C 
BRANCH  19  20
ATOM     20  C   UNL     1       0.428   9.362  22.703  0.00  0.00    +0.000 C 
ATOM     21  O   UNL     1       1.617   9.621  22.883  0.00  0.00    +0.000 OA
BRANCH  20  22
ATOM     22  C   UNL     1      -0.660  10.244  23.303  0.00  0.00    +0.000 C 
BRANCH  22  23
ATOM     23  C   UNL     1      -1.065  11.408  22.401  0.00  0.00    +0.000 C 
BRANCH  23  24
ATOM     24  C   UNL     1      -1.834  12.481  23.117  0.00  0.00    +0.000 A 
ATOM     25  C   UNL     1      -3.142  12.230  23.555  0.00  0.00    +0.000 A 
ATOM     26  C   UNL     1      -3.844  13.207  24.263  0.00  0.00    +0.000 A 
ATOM     27  C   UNL     1      -3.247  14.435  24.529  0.00  0.00    +0.000 A 
ATOM     28  C   UNL     1      -1.948  14.694  24.090  0.00  0.00    +0.000 A 
ATOM     29  C   UNL     1      -1.246  13.718  23.383  0.00  0.00    +0.000 A 
ENDBRANCH  23  24
ENDBRANCH  22  23
ENDBRANCH  20  22
ENDBRANCH  19  20
ENDBRANCH   5  19
TORSDOF 7
ENDMDL
