MODEL 1
REMARK VINA RESULT:      -6.8      0.000      0.000
REMARK  Name = 
REMARK  11 active torsions:
REMARK  status: ('A' for Active; 'I' for Inactive)
REMARK    1  A    between atoms: C_1  and  C_2
REMARK    2  A    between atoms: C_2  and  C_3
REMARK    3  A    between atoms: C_3  and  C_4
REMARK    4  A    between atoms: C_4  and  C_5
REMARK    5  A    between atoms: C_7  and  C_8
REMARK    6  A    between atoms: C_8  and  N_9
REMARK    7  A    between atoms: N_9  and  C_10
REMARK    8  A    between atoms: C_10  and  C_11
REMARK    9  A    between atoms: C_10  and  C_12
REMARK   10  A    between atoms: C_12  and  N_13
REMARK   11  A    between atoms: C_15  and  C_16
REMARK                            x       y       z     vdW  Elec       q    Type
REMARK                         _______ _______ _______ _____ _____    ______ ____
ROOT
ATOM      1  N   UNL     1       5.749   4.712  16.793  0.00  0.00    +0.000 NA
ATOM      2  H   UNL     1       5.800   3.764  16.412  0.00  0.00    +0.000 HD
ENDROOT
BRANCH   1   3
ATOM      3  C   UNL     1       6.378   4.752  18.143  0.00  0.00    +0.000 C 
ATOM      4  C   UNL     1       7.496   5.808  18.137  0.00  0.00    +0.000 C 
BRANCH   3   5
ATOM      5  C   UNL     1       5.332   5.066  19.236  0.00  0.00    +0.000 C 
BRANCH   5   6
ATOM      6  N   UNL     1       4.295   4.054  19.372  0.00  0.00    +0.000 N 
ATOM      7  C   UNL     1       2.955   4.215  19.139  0.00  0.00    +0.000 A 
ATOM      8  C   UNL     1       2.398   2.947  19.178  0.00  0.00    +0.000 A 
ATOM      9  C   UNL     1       1.002   2.580  18.865  0.00  0.00    +0.000 C 
ATOM     10  C   UNL     1       3.474   2.116  19.556  0.00  0.00    +0.000 A 
ATOM     11  N   UNL     1       4.626   2.786  19.675  0.00  0.00    +0.000 NA
ENDBRANCH   5   6
ENDBRANCH   3   5
ENDBRANCH   1   3
BRANCH   1  12
ATOM     12  C   UNL     1       6.450   5.605  15.843  0.00  0.00    +0.000 C 
BRANCH  12  15
ATOM     13  C   UNL     1       6.328   3.795  12.822  0.00  0.00    +0.000 A 
ATOM     14  N   UNL     1       5.796   4.016  14.012  0.00  0.00    +0.000 NA
ATOM     15  C   UNL     1       6.637   4.987  14.497  0.00  0.00    +0.000 A 
ATOM     16  N   UNL     1       7.652   5.322  13.704  0.00  0.00    +0.000 NA
ATOM     17  O   UNL     1       7.438   4.544  12.565  0.00  0.00    +0.000 OA
BRANCH  13  18
ATOM     18  C   UNL     1       5.891   2.875  11.759  0.00  0.00    +0.000 C 
BRANCH  18  19
ATOM     19  C   UNL     1       4.373   2.912  11.600  0.00  0.00    +0.000 C 
BRANCH  19  21
ATOM     20  C   UNL     1       2.952   3.654   9.678  0.00  0.00    +0.000 C 
ATOM     21  C   UNL     1       3.924   4.101  10.757  0.00  0.00    +0.000 C 
ENDBRANCH  19  21
ENDBRANCH  18  19
ENDBRANCH  13  18
ENDBRANCH  12  15
ENDBRANCH   1  12
TORSDOF 8
ENDMDL
MODEL 2
REMARK VINA RESULT:      -6.7      1.686      2.450
REMARK  Name = 
REMARK  11 active torsions:
REMARK  status: ('A' for Active; 'I' for Inactive)
REMARK    1  A    between atoms: C_1  and  C_2
REMARK    2  A    between atoms: C_2  and  C_3
REMARK    3  A    between atoms: C_3  and  C_4
REMARK    4  A    between atoms: C_4  and  C_5
REMARK    5  A    between atoms: C_7  and  C_8
REMARK    6  A    between atoms: C_8  and  N_9
REMARK    7  A    between atoms: N_9  and  C_10
REMARK    8  A    between atoms: C_10  and  C_11
REMARK    9  A    between atoms: C_10  and  C_12
REMARK   10  A    between atoms: C_12  and  N_13
REMARK   11  A    between atoms: C_15  and  C_16
REMARK                            x       y       z     vdW  Elec       q    Type
REMARK                         _______ _______ _______ _____ _____    ______ ____
ROOT
ATOM      1  N   UNL     1       5.701   3.655  16.930  0.00  0.00    +0.000 NA
ATOM      2  H   UNL     1       6.069   2.986  17.611  0.00  0.00    +0.000 HD
ENDROOT
BRANCH   1   3
ATOM      3  C   UNL     1       4.576   4.425  17.532  0.00  0.00    +0.000 C 
ATOM      4  C   UNL     1       3.251   3.737  17.159  0.00  0.00    +0.000 C 
BRANCH   3   5
ATOM      5  C   UNL     1       4.729   4.529  19.066  0.00  0.00    +0.000 C 
BRANCH   5   6
ATOM      6  N   UNL     1       3.499   4.280  19.803  0.00  0.00    +0.000 N 
ATOM      7  C   UNL     1       3.105   3.096  20.365  0.00  0.00    +0.000 A 
ATOM      8  C   UNL     1       1.995   3.384  21.142  0.00  0.00    +0.000 A 
ATOM      9  C   UNL     1       1.278   2.461  22.046  0.00  0.00    +0.000 C 
ATOM     10  C   UNL     1       1.743   4.748  20.880  0.00  0.00    +0.000 A 
ATOM     11  N   UNL     1       2.655   5.293  20.066  0.00  0.00    +0.000 NA
ENDBRANCH   5   6
ENDBRANCH   3   5
ENDBRANCH   1   3
BRANCH   1  12
ATOM     12  C   UNL     1       6.817   4.544  16.538  0.00  0.00    +0.000 C 
BRANCH  12  15
ATOM     13  C   UNL     1       6.840   4.188  13.033  0.00  0.00    +0.000 A 
ATOM     14  N   UNL     1       6.406   3.736  14.197  0.00  0.00    +0.000 NA
ATOM     15  C   UNL     1       7.008   4.618  15.060  0.00  0.00    +0.000 A 
ATOM     16  N   UNL     1       7.801   5.527  14.497  0.00  0.00    +0.000 NA
ATOM     17  O   UNL     1       7.674   5.261  13.133  0.00  0.00    +0.000 OA
BRANCH  13  18
ATOM     18  C   UNL     1       6.546   3.703  11.674  0.00  0.00    +0.000 C 
BRANCH  18  19
ATOM     19  C   UNL     1       5.866   2.337  11.720  0.00  0.00    +0.000 C 
BRANCH  19  21
ATOM     20  C   UNL     1       6.147  -0.112  11.292  0.00  0.00    +0.000 C 
ATOM     21  C   UNL     1       6.678   1.278  10.984  0.00  0.00    +0.000 C 
ENDBRANCH  19  21
ENDBRANCH  18  19
ENDBRANCH  13  18
ENDBRANCH  12  15
ENDBRANCH   1  12
TORSDOF 8
ENDMDL
MODEL 3
REMARK VINA RESULT:      -6.7      1.598      2.068
REMARK  Name = 
REMARK  11 active torsions:
REMARK  status: ('A' for Active; 'I' for Inactive)
REMARK    1  A    between atoms: C_1  and  C_2
REMARK    2  A    between atoms: C_2  and  C_3
REMARK    3  A    between atoms: C_3  and  C_4
REMARK    4  A    between atoms: C_4  and  C_5
REMARK    5  A    between atoms: C_7  and  C_8
REMARK    6  A    between atoms: C_8  and  N_9
REMARK    7  A    between atoms: N_9  and  C_10
REMARK    8  A    between atoms: C_10  and  C_11
REMARK    9  A    between atoms: C_10  and  C_12
REMARK   10  A    between atoms: C_12  and  N_13
REMARK   11  A    between atoms: C_15  and  C_16
REMARK                            x       y       z     vdW  Elec       q    Type
REMARK                         _______ _______ _______ _____ _____    ______ ____
ROOT
ATOM      1  N   UNL     1       6.852   4.139  17.995  0.00  0.00    +0.000 NA
ATOM      2  H   UNL     1       7.724   4.466  17.572  0.00  0.00    +0.000 HD
ENDROOT
BRANCH   1   3
ATOM      3  C   UNL     1       6.386   5.117  19.019  0.00  0.00    +0.000 C 
ATOM      4  C   UNL     1       7.515   6.126  19.288  0.00  0.00    +0.000 C 
BRANCH   3   5
ATOM      5  C   UNL     1       5.101   5.840  18.555  0.00  0.00    +0.000 C 
BRANCH   5   6
ATOM      6  N   UNL     1       3.902   5.439  19.276  0.00  0.00    +0.000 N 
ATOM      7  C   UNL     1       3.650   4.215  19.834  0.00  0.00    +0.000 A 
ATOM      8  C   UNL     1       2.503   4.362  20.596  0.00  0.00    +0.000 A 
ATOM      9  C   UNL     1       1.895   3.357  21.491  0.00  0.00    +0.000 C 
ATOM     10  C   UNL     1       2.087   5.685  20.330  0.00  0.00    +0.000 A 
ATOM     11  N   UNL     1       2.935   6.339  19.527  0.00  0.00    +0.000 NA
ENDBRANCH   5   6
ENDBRANCH   3   5
ENDBRANCH   1   3
BRANCH   1  12
ATOM     12  C   UNL     1       5.864   3.986  16.903  0.00  0.00    +0.000 C 
BRANCH  12  15
ATOM     13  C   UNL     1       6.747   4.334  13.511  0.00  0.00    +0.000 A 
ATOM     14  N   UNL     1       6.010   3.709  14.412  0.00  0.00    +0.000 NA
ATOM     15  C   UNL     1       6.424   4.332  15.564  0.00  0.00    +0.000 A 
ATOM     16  N   UNL     1       7.382   5.244  15.416  0.00  0.00    +0.000 NA
ATOM     17  O   UNL     1       7.587   5.271  14.035  0.00  0.00    +0.000 OA
BRANCH  13  18
ATOM     18  C   UNL     1       6.778   4.164  12.048  0.00  0.00    +0.000 C 
BRANCH  18  19
ATOM     19  C   UNL     1       6.836   2.685  11.675  0.00  0.00    +0.000 C 
BRANCH  19  21
ATOM     20  C   UNL     1       4.422   3.231  11.305  0.00  0.00    +0.000 C 
ATOM     21  C   UNL     1       5.447   2.115  11.412  0.00  0.00    +0.000 C 
ENDBRANCH  19  21
ENDBRANCH  18  19
ENDBRANCH  13  18
ENDBRANCH  12  15
ENDBRANCH   1  12
TORSDOF 8
ENDMDL
MODEL 4
REMARK VINA RESULT:      -6.6      1.856      2.362
REMARK  Name = 
REMARK  11 active torsions:
REMARK  status: ('A' for Active; 'I' for Inactive)
REMARK    1  A    between atoms: C_1  and  C_2
REMARK    2  A    between atoms: C_2  and  C_3
REMARK    3  A    between atoms: C_3  and  C_4
REMARK    4  A    between atoms: C_4  and  C_5
REMARK    5  A    between atoms: C_7  and  C_8
REMARK    6  A    between atoms: C_8  and  N_9
REMARK    7  A    between atoms: N_9  and  C_10
REMARK    8  A    between atoms: C_10  and  C_11
REMARK    9  A    between atoms: C_10  and  C_12
REMARK   10  A    between atoms: C_12  and  N_13
REMARK   11  A    between atoms: C_15  and  C_16
REMARK                            x       y       z     vdW  Elec       q    Type
REMARK                         _______ _______ _______ _____ _____    ______ ____
ROOT
ATOM      1  N   UNL     1       5.029   6.445  17.824  0.00  0.00    +0.000 NA
ATOM      2  H   UNL     1       5.431   7.220  18.357  0.00  0.00    +0.000 HD
ENDROOT
BRANCH   1   3
ATOM      3  C   UNL     1       3.656   6.145  18.323  0.00  0.00    +0.000 C 
ATOM      4  C   UNL     1       2.767   7.379  18.095  0.00  0.00    +0.000 C 
BRANCH   3   5
ATOM      5  C   UNL     1       3.066   4.904  17.617  0.00  0.00    +0.000 C 
BRANCH   5   6
ATOM      6  N   UNL     1       2.386   3.980  18.512  0.00  0.00    +0.000 N 
ATOM      7  C   UNL     1       2.710   3.710  19.814  0.00  0.00    +0.000 A 
ATOM      8  C   UNL     1       1.669   2.952  20.326  0.00  0.00    +0.000 A 
ATOM      9  C   UNL     1       1.492   2.516  21.725  0.00  0.00    +0.000 C 
ATOM     10  C   UNL     1       0.831   2.731  19.212  0.00  0.00    +0.000 A 
ATOM     11  N   UNL     1       1.266   3.354  18.109  0.00  0.00    +0.000 NA
ENDBRANCH   5   6
ENDBRANCH   3   5
ENDBRANCH   1   3
BRANCH   1  12
ATOM     12  C   UNL     1       5.011   6.852  16.402  0.00  0.00    +0.000 C 
BRANCH  12  15
ATOM     13  C   UNL     1       6.472   4.668  14.054  0.00  0.00    +0.000 A 
ATOM     14  N   UNL     1       5.368   5.221  14.527  0.00  0.00    +0.000 NA
ATOM     15  C   UNL     1       5.876   5.992  15.542  0.00  0.00    +0.000 A 
ATOM     16  N   UNL     1       7.190   5.901  15.735  0.00  0.00    +0.000 NA
ATOM     17  O   UNL     1       7.602   5.032  14.722  0.00  0.00    +0.000 OA
BRANCH  13  18
ATOM     18  C   UNL     1       6.642   3.738  12.925  0.00  0.00    +0.000 C 
BRANCH  18  19
ATOM     19  C   UNL     1       5.306   3.112  12.532  0.00  0.00    +0.000 C 
BRANCH  19  21
ATOM     20  C   UNL     1       3.444   3.055  10.861  0.00  0.00    +0.000 C 
ATOM     21  C   UNL     1       4.778   3.687  11.222  0.00  0.00    +0.000 C 
ENDBRANCH  19  21
ENDBRANCH  18  19
ENDBRANCH  13  18
ENDBRANCH  12  15
ENDBRANCH   1  12
TORSDOF 8
ENDMDL
MODEL 5
REMARK VINA RESULT:      -6.5      1.467      1.968
REMARK  Name = 
REMARK  11 active torsions:
REMARK  status: ('A' for Active; 'I' for Inactive)
REMARK    1  A    between atoms: C_1  and  C_2
REMARK    2  A    between atoms: C_2  and  C_3
REMARK    3  A    between atoms: C_3  and  C_4
REMARK    4  A    between atoms: C_4  and  C_5
REMARK    5  A    between atoms: C_7  and  C_8
REMARK    6  A    between atoms: C_8  and  N_9
REMARK    7  A    between atoms: N_9  and  C_10
REMARK    8  A    between atoms: C_10  and  C_11
REMARK    9  A    between atoms: C_10  and  C_12
REMARK   10  A    between atoms: C_12  and  N_13
REMARK   11  A    between atoms: C_15  and  C_16
REMARK                            x       y       z     vdW  Elec       q    Type
REMARK                         _______ _______ _______ _____ _____    ______ ____
ROOT
ATOM      1  N   UNL     1       5.028   5.278  16.706  0.00  0.00    +0.000 NA
ATOM      2  H   UNL     1       4.455   4.438  16.820  0.00  0.00    +0.000 HD
ENDROOT
BRANCH   1   3
ATOM      3  C   UNL     1       4.884   6.157  17.900  0.00  0.00    +0.000 C 
ATOM      4  C   UNL     1       3.488   6.804  17.871  0.00  0.00    +0.000 C 
BRANCH   3   5
ATOM      5  C   UNL     1       5.094   5.362  19.208  0.00  0.00    +0.000 C 
BRANCH   5   6
ATOM      6  N   UNL     1       4.112   4.311  19.427  0.00  0.00    +0.000 N 
ATOM      7  C   UNL     1       2.953   4.407  20.150  0.00  0.00    +0.000 A 
ATOM      8  C   UNL     1       2.239   3.247  19.899  0.00  0.00    +0.000 A 
ATOM      9  C   UNL     1       0.869   2.931  20.351  0.00  0.00    +0.000 C 
ATOM     10  C   UNL     1       3.115   2.476  19.104  0.00  0.00    +0.000 A 
ATOM     11  N   UNL     1       4.253   3.120  18.818  0.00  0.00    +0.000 NA
ENDBRANCH   5   6
ENDBRANCH   3   5
ENDBRANCH   1   3
BRANCH   1  12
ATOM     12  C   UNL     1       6.428   4.833  16.528  0.00  0.00    +0.000 C 
BRANCH  12  15
ATOM     13  C   UNL     1       6.939   4.119  13.116  0.00  0.00    +0.000 A 
ATOM     14  N   UNL     1       6.324   3.800  14.242  0.00  0.00    +0.000 NA
ATOM     15  C   UNL     1       6.832   4.749  15.093  0.00  0.00    +0.000 A 
ATOM     16  N   UNL     1       7.734   5.575  14.568  0.00  0.00    +0.000 NA
ATOM     17  O   UNL     1       7.793   5.174  13.231  0.00  0.00    +0.000 OA
BRANCH  13  18
ATOM     18  C   UNL     1       6.823   3.505  11.782  0.00  0.00    +0.000 C 
BRANCH  18  19
ATOM     19  C   UNL     1       5.823   2.352  11.800  0.00  0.00    +0.000 C 
BRANCH  19  21
ATOM     20  C   UNL     1       6.210  -0.105  11.520  0.00  0.00    +0.000 C 
ATOM     21  C   UNL     1       6.218   1.247  10.826  0.00  0.00    +0.000 C 
ENDBRANCH  19  21
ENDBRANCH  18  19
ENDBRANCH  13  18
ENDBRANCH  12  15
ENDBRANCH   1  12
TORSDOF 8
ENDMDL
MODEL 6
REMARK VINA RESULT:      -6.5      1.569      2.162
REMARK  Name = 
REMARK  11 active torsions:
REMARK  status: ('A' for Active; 'I' for Inactive)
REMARK    1  A    between atoms: C_1  and  C_2
REMARK    2  A    between atoms: C_2  and  C_3
REMARK    3  A    between atoms: C_3  and  C_4
REMARK    4  A    between atoms: C_4  and  C_5
REMARK    5  A    between atoms: C_7  and  C_8
REMARK    6  A    between atoms: C_8  and  N_9
REMARK    7  A    between atoms: N_9  and  C_10
REMARK    8  A    between atoms: C_10  and  C_11
REMARK    9  A    between atoms: C_10  and  C_12
REMARK   10  A    between atoms: C_12  and  N_13
REMARK   11  A    between atoms: C_15  and  C_16
REMARK                            x       y       z     vdW  Elec       q    Type
REMARK                         _______ _______ _______ _____ _____    ______ ____
ROOT
ATOM      1  N   UNL     1       6.493   5.545  18.818  0.00  0.00    +0.000 NA
ATOM      2  H   UNL     1       6.400   6.418  18.293  0.00  0.00    +0.000 HD
ENDROOT
BRANCH   1   3
ATOM      3  C   UNL     1       5.150   5.070  19.256  0.00  0.00    +0.000 C 
ATOM      4  C   UNL     1       4.073   5.907  18.544  0.00  0.00    +0.000 C 
BRANCH   3   5
ATOM      5  C   UNL     1       4.965   3.565  18.955  0.00  0.00    +0.000 C 
BRANCH   5   6
ATOM      6  N   UNL     1       3.735   3.001  19.491  0.00  0.00    +0.000 N 
ATOM      7  C   UNL     1       3.329   3.008  20.798  0.00  0.00    +0.000 A 
ATOM      8  C   UNL     1       2.017   2.565  20.801  0.00  0.00    +0.000 A 
ATOM      9  C   UNL     1       1.099   2.513  21.957  0.00  0.00    +0.000 C 
ATOM     10  C   UNL     1       1.776   2.210  19.457  0.00  0.00    +0.000 A 
ATOM     11  N   UNL     1       2.819   2.473  18.660  0.00  0.00    +0.000 NA
ENDBRANCH   5   6
ENDBRANCH   3   5
ENDBRANCH   1   3
BRANCH   1  12
ATOM     12  C   UNL     1       7.149   4.564  17.924  0.00  0.00    +0.000 C 
BRANCH  12  15
ATOM     13  C   UNL     1       6.079   4.535  14.568  0.00  0.00    +0.000 A 
ATOM     14  N   UNL     1       6.096   3.920  15.738  0.00  0.00    +0.000 NA
ATOM     15  C   UNL     1       6.843   4.798  16.482  0.00  0.00    +0.000 A 
ATOM     16  N   UNL     1       7.308   5.861  15.829  0.00  0.00    +0.000 NA
ATOM     17  O   UNL     1       6.777   5.705  14.547  0.00  0.00    +0.000 OA
BRANCH  13  18
ATOM     18  C   UNL     1       5.418   4.138  13.313  0.00  0.00    +0.000 C 
BRANCH  18  19
ATOM     19  C   UNL     1       6.175   2.997  12.638  0.00  0.00    +0.000 C 
BRANCH  19  21
ATOM     20  C   UNL     1       4.151   3.230  11.185  0.00  0.00    +0.000 C 
ATOM     21  C   UNL     1       5.365   2.375  11.505  0.00  0.00    +0.000 C 
ENDBRANCH  19  21
ENDBRANCH  18  19
ENDBRANCH  13  18
ENDBRANCH  12  15
ENDBRANCH   1  12
TORSDOF 8
ENDMDL
MODEL 7
REMARK VINA RESULT:      -6.4      1.907      2.763
REMARK  Name = 
REMARK  11 active torsions:
REMARK  status: ('A' for Active; 'I' for Inactive)
REMARK    1  A    between atoms: C_1  and  C_2
REMARK    2  A    between atoms: C_2  and  C_3
REMARK    3  A    between atoms: C_3  and  C_4
REMARK    4  A    between atoms: C_4  and  C_5
REMARK    5  A    between atoms: C_7  and  C_8
REMARK    6  A    between atoms: C_8  and  N_9
REMARK    7  A    between atoms: N_9  and  C_10
REMARK    8  A    between atoms: C_10  and  C_11
REMARK    9  A    between atoms: C_10  and  C_12
REMARK   10  A    between atoms: C_12  and  N_13
REMARK   11  A    between atoms: C_15  and  C_16
REMARK                            x       y       z     vdW  Elec       q    Type
REMARK                         _______ _______ _______ _____ _____    ______ ____
ROOT
ATOM      1  N   UNL     1       4.458   7.206  17.372  0.00  0.00    +0.000 NA
ATOM      2  H   UNL     1       4.295   6.926  16.402  0.00  0.00    +0.000 HD
ENDROOT
BRANCH   1   3
ATOM      3  C   UNL     1       3.348   6.710  18.235  0.00  0.00    +0.000 C 
ATOM      4  C   UNL     1       2.239   7.775  18.274  0.00  0.00    +0.000 C 
BRANCH   3   5
ATOM      5  C   UNL     1       2.799   5.362  17.718  0.00  0.00    +0.000 C 
BRANCH   5   6
ATOM      6  N   UNL     1       2.782   4.305  18.718  0.00  0.00    +0.000 N 
ATOM      7  C   UNL     1       2.178   4.346  19.946  0.00  0.00    +0.000 A 
ATOM      8  C   UNL     1       2.232   3.057  20.450  0.00  0.00    +0.000 A 
ATOM      9  C   UNL     1       1.606   2.562  21.693  0.00  0.00    +0.000 C 
ATOM     10  C   UNL     1       2.992   2.351  19.494  0.00  0.00    +0.000 A 
ATOM     11  N   UNL     1       3.328   3.107  18.442  0.00  0.00    +0.000 NA
ENDBRANCH   5   6
ENDBRANCH   3   5
ENDBRANCH   1   3
BRANCH   1  12
ATOM     12  C   UNL     1       5.760   6.634  17.782  0.00  0.00    +0.000 C 
BRANCH  12  15
ATOM     13  C   UNL     1       6.767   4.947  14.858  0.00  0.00    +0.000 A 
ATOM     14  N   UNL     1       5.896   5.759  15.433  0.00  0.00    +0.000 NA
ATOM     15  C   UNL     1       6.395   5.812  16.711  0.00  0.00    +0.000 A 
ATOM     16  N   UNL     1       7.467   5.058  16.945  0.00  0.00    +0.000 NA
ATOM     17  O   UNL     1       7.738   4.493  15.698  0.00  0.00    +0.000 OA
BRANCH  13  18
ATOM     18  C   UNL     1       6.830   4.484  13.461  0.00  0.00    +0.000 C 
BRANCH  18  19
ATOM     19  C   UNL     1       5.885   3.307  13.237  0.00  0.00    +0.000 C 
BRANCH  19  21
ATOM     20  C   UNL     1       5.867   1.685  11.331  0.00  0.00    +0.000 C 
ATOM     21  C   UNL     1       5.567   3.112  11.758  0.00  0.00    +0.000 C 
ENDBRANCH  19  21
ENDBRANCH  18  19
ENDBRANCH  13  18
ENDBRANCH  12  15
ENDBRANCH   1  12
TORSDOF 8
ENDMDL
MODEL 8
REMARK VINA RESULT:      -6.4      1.556      1.927
REMARK  Name = 
REMARK  11 active torsions:
REMARK  status: ('A' for Active; 'I' for Inactive)
REMARK    1  A    between atoms: C_1  and  C_2
REMARK    2  A    between atoms: C_2  and  C_3
REMARK    3  A    between atoms: C_3  and  C_4
REMARK    4  A    between atoms: C_4  and  C_5
REMARK    5  A    between atoms: C_7  and  C_8
REMARK    6  A    between atoms: C_8  and  N_9
REMARK    7  A    between atoms: N_9  and  C_10
REMARK    8  A    between atoms: C_10  and  C_11
REMARK    9  A    between atoms: C_10  and  C_12
REMARK   10  A    between atoms: C_12  and  N_13
REMARK   11  A    between atoms: C_15  and  C_16
REMARK                            x       y       z     vdW  Elec       q    Type
REMARK                         _______ _______ _______ _____ _____    ______ ____
ROOT
ATOM      1  N   UNL     1       4.291   4.910  17.443  0.00  0.00    +0.000 NA
ATOM      2  H   UNL     1       3.751   4.230  17.984  0.00  0.00    +0.000 HD
ENDROOT
BRANCH   1   3
ATOM      3  C   UNL     1       4.261   6.237  18.121  0.00  0.00    +0.000 C 
ATOM      4  C   UNL     1       4.284   7.340  17.049  0.00  0.00    +0.000 C 
BRANCH   3   5
ATOM      5  C   UNL     1       3.015   6.374  19.024  0.00  0.00    +0.000 C 
BRANCH   5   6
ATOM      6  N   UNL     1       2.415   5.103  19.403  0.00  0.00    +0.000 N 
ATOM      7  C   UNL     1       1.486   4.391  18.694  0.00  0.00    +0.000 A 
ATOM      8  C   UNL     1       1.377   3.160  19.321  0.00  0.00    +0.000 A 
ATOM      9  C   UNL     1       0.593   1.996  18.863  0.00  0.00    +0.000 C 
ATOM     10  C   UNL     1       2.200   3.287  20.461  0.00  0.00    +0.000 A 
ATOM     11  N   UNL     1       2.830   4.467  20.513  0.00  0.00    +0.000 NA
ENDBRANCH   5   6
ENDBRANCH   3   5
ENDBRANCH   1   3
BRANCH   1  12
ATOM     12  C   UNL     1       5.672   4.388  17.335  0.00  0.00    +0.000 C 
BRANCH  12  15
ATOM     13  C   UNL     1       6.627   4.370  13.944  0.00  0.00    +0.000 A 
ATOM     14  N   UNL     1       5.866   3.848  14.891  0.00  0.00    +0.000 NA
ATOM     15  C   UNL     1       6.262   4.586  15.979  0.00  0.00    +0.000 A 
ATOM     16  N   UNL     1       7.231   5.472  15.756  0.00  0.00    +0.000 NA
ATOM     17  O   UNL     1       7.464   5.350  14.385  0.00  0.00    +0.000 OA
BRANCH  13  18
ATOM     18  C   UNL     1       6.686   4.046  12.509  0.00  0.00    +0.000 C 
BRANCH  18  19
ATOM     19  C   UNL     1       5.578   3.067  12.128  0.00  0.00    +0.000 C 
BRANCH  19  21
ATOM     20  C   UNL     1       3.585   2.869  10.627  0.00  0.00    +0.000 C 
ATOM     21  C   UNL     1       4.362   3.787  11.555  0.00  0.00    +0.000 C 
ENDBRANCH  19  21
ENDBRANCH  18  19
ENDBRANCH  13  18
ENDBRANCH  12  15
ENDBRANCH   1  12
TORSDOF 8
ENDMDL
MODEL 9
REMARK VINA RESULT:      -6.4      2.658      6.890
REMARK  Name = 
REMARK  11 active torsions:
REMARK  status: ('A' for Active; 'I' for Inactive)
REMARK    1  A    between atoms: C_1  and  C_2
REMARK    2  A    between atoms: C_2  and  C_3
REMARK    3  A    between atoms: C_3  and  C_4
REMARK    4  A    between atoms: C_4  and  C_5
REMARK    5  A    between atoms: C_7  and  C_8
REMARK    6  A    between atoms: C_8  and  N_9
REMARK    7  A    between atoms: N_9  and  C_10
REMARK    8  A    between atoms: C_10  and  C_11
REMARK    9  A    between atoms: C_10  and  C_12
REMARK   10  A    between atoms: C_12  and  N_13
REMARK   11  A    between atoms: C_15  and  C_16
REMARK                            x       y       z     vdW  Elec       q    Type
REMARK                         _______ _______ _______ _____ _____    ______ ____
ROOT
ATOM      1  N   UNL     1       5.486   7.041  17.734  0.00  0.00    +0.000 NA
ATOM      2  H   UNL     1       5.523   6.501  18.602  0.00  0.00    +0.000 HD
ENDROOT
BRANCH   1   3
ATOM      3  C   UNL     1       6.751   6.856  16.967  0.00  0.00    +0.000 C 
ATOM      4  C   UNL     1       7.890   7.573  17.712  0.00  0.00    +0.000 C 
BRANCH   3   5
ATOM      5  C   UNL     1       7.074   5.357  16.779  0.00  0.00    +0.000 C 
BRANCH   5   6
ATOM      6  N   UNL     1       7.058   4.916  15.392  0.00  0.00    +0.000 N 
ATOM      7  C   UNL     1       6.242   3.965  14.843  0.00  0.00    +0.000 A 
ATOM      8  C   UNL     1       6.425   4.039  13.471  0.00  0.00    +0.000 A 
ATOM      9  C   UNL     1       5.677   3.300  12.434  0.00  0.00    +0.000 C 
ATOM     10  C   UNL     1       7.457   4.989  13.318  0.00  0.00    +0.000 A 
ATOM     11  N   UNL     1       7.844   5.522  14.484  0.00  0.00    +0.000 NA
ENDBRANCH   5   6
ENDBRANCH   3   5
ENDBRANCH   1   3
BRANCH   1  12
ATOM     12  C   UNL     1       4.314   6.563  16.968  0.00  0.00    +0.000 C 
BRANCH  12  15
ATOM     13  C   UNL     1       2.362   4.149  18.633  0.00  0.00    +0.000 A 
ATOM     14  N   UNL     1       3.306   4.398  17.741  0.00  0.00    +0.000 NA
ATOM     15  C   UNL     1       3.363   5.768  17.799  0.00  0.00    +0.000 A 
ATOM     16  N   UNL     1       2.494   6.350  18.623  0.00  0.00    +0.000 NA
ATOM     17  O   UNL     1       1.834   5.266  19.207  0.00  0.00    +0.000 OA
BRANCH  13  18
ATOM     18  C   UNL     1       1.821   2.855  19.085  0.00  0.00    +0.000 C 
BRANCH  18  19
ATOM     19  C   UNL     1       0.753   3.059  20.155  0.00  0.00    +0.000 C 
BRANCH  19  21
ATOM     20  C   UNL     1       2.779   2.456  21.494  0.00  0.00    +0.000 C 
ATOM     21  C   UNL     1       1.311   2.840  21.558  0.00  0.00    +0.000 C 
ENDBRANCH  19  21
ENDBRANCH  18  19
ENDBRANCH  13  18
ENDBRANCH  12  15
ENDBRANCH   1  12
TORSDOF 8
ENDMDL
