MODEL 1
REMARK VINA RESULT:      -6.8      0.000      0.000
REMARK  Name = 
REMARK  9 active torsions:
REMARK  status: ('A' for Active; 'I' for Inactive)
REMARK    1  A    between atoms: C_1  and  O_2
REMARK    2  A    between atoms: O_2  and  C_3
REMARK    3  A    between atoms: C_3  and  C_4
REMARK    4  A    between atoms: C_4  and  C_5
REMARK    5  A    between atoms: C_4  and  N_6
REMARK    6  A    between atoms: C_13  and  N_14
REMARK    7  A    between atoms: C_19  and  N_20
REMARK    8  A    between atoms: N_23  and  C_24
REMARK    9  A    between atoms: C_33  and  C_34
REMARK                            x       y       z     vdW  Elec       q    Type
REMARK                         _______ _______ _______ _____ _____    ______ ____
ROOT
ATOM      1  N   UNL     1       5.193   5.216  16.186  0.00  0.00    +0.000 N 
ATOM      2  C   UNL     1       4.969   6.485  15.666  0.00  0.00    +0.000 C 
ATOM      3  O   UNL     1       5.353   6.940  14.602  0.00  0.00    +0.000 OA
ATOM      4  C   UNL     1       4.105   7.227  16.656  0.00  0.00    +0.000 C 
ATOM      5  C   UNL     1       3.858   6.211  17.736  0.00  0.00    +0.000 A 
ATOM      6  C   UNL     1       4.528   5.042  17.405  0.00  0.00    +0.000 A 
ATOM      7  N   UNL     1       4.506   3.935  18.140  0.00  0.00    +0.000 NA
ATOM      8  C   UNL     1       3.760   3.991  19.266  0.00  0.00    +0.000 A 
ATOM      9  C   UNL     1       3.005   5.136  19.694  0.00  0.00    +0.000 A 
ATOM     10  C   UNL     1       2.187   5.218  20.850  0.00  0.00    +0.000 A 
ATOM     11  N   UNL     1       1.978   4.119  21.693  0.00  0.00    +0.000 N 
ATOM     12  N   UNL     1       1.483   6.315  21.206  0.00  0.00    +0.000 NA
ATOM     13  C   UNL     1       1.527   7.430  20.442  0.00  0.00    +0.000 A 
ATOM     14  C   UNL     1       2.339   7.455  19.303  0.00  0.00    +0.000 A 
ATOM     15  C   UNL     1       3.069   6.296  18.899  0.00  0.00    +0.000 A 
ATOM     16  H   UNL     1       2.871   3.730  21.994  0.00  0.00    +0.000 HD
ATOM     17  H   UNL     1       1.414   4.441  22.475  0.00  0.00    +0.000 HD
ENDROOT
BRANCH  13  18
ATOM     18  N   UNL     1       0.723   8.473  20.841  0.00  0.00    +0.000 N 
ATOM     19  C   UNL     1       1.007   9.371  21.977  0.00  0.00    +0.000 C 
ATOM     20  C   UNL     1       0.809  10.839  21.572  0.00  0.00    +0.000 C 
ATOM     21  N   UNL     1      -0.521  11.043  20.988  0.00  0.00    +0.000 N 
ATOM     22  C   UNL     1      -0.841  10.158  19.852  0.00  0.00    +0.000 C 
ATOM     23  C   UNL     1      -0.594   8.670  20.211  0.00  0.00    +0.000 C 
BRANCH  21  24
ATOM     24  C   UNL     1      -1.439  11.906  21.555  0.00  0.00    +0.000 A 
ATOM     25  C   UNL     1      -1.855  13.055  20.863  0.00  0.00    +0.000 A 
ATOM     26  C   UNL     1      -2.752  13.973  21.424  0.00  0.00    +0.000 A 
ATOM     27  C   UNL     1      -3.264  13.763  22.701  0.00  0.00    +0.000 A 
ATOM     28  C   UNL     1      -2.881  12.633  23.412  0.00  0.00    +0.000 A 
ATOM     29  C   UNL     1      -1.987  11.724  22.842  0.00  0.00    +0.000 A 
ATOM     30  F   UNL     1      -1.690  10.628  23.562  0.00  0.00    +0.000 F 
ENDBRANCH  21  24
ENDBRANCH  13  18
BRANCH   8  31
ATOM     31  N   UNL     1       3.828   2.827  20.044  0.00  0.00    +0.000 N 
ATOM     32  H   UNL     1       4.171   2.081  19.443  0.00  0.00    +0.000 HD
ATOM     33  H   UNL     1       2.914   2.612  20.439  0.00  0.00    +0.000 HD
ENDBRANCH   8  31
BRANCH   1  34
ATOM     34  C   UNL     1       5.887   4.155  15.468  0.00  0.00    +0.000 C 
ATOM     35  C   UNL     1       7.395   4.424  15.415  0.00  0.00    +0.000 C 
BRANCH  34  36
ATOM     36  C   UNL     1       5.294   4.005  14.052  0.00  0.00    +0.000 C 
BRANCH  36  38
ATOM     37  C   UNL     1       5.911   2.991  12.029  0.00  0.00    +0.000 C 
ATOM     38  O   UNL     1       6.321   3.873  13.069  0.00  0.00    +0.000 OA
ENDBRANCH  36  38
ENDBRANCH  34  36
ENDBRANCH   1  34
BRANCH  14  39
ATOM     39  C   UNL     1       2.487   8.682  18.578  0.00  0.00    +0.000 C 
ATOM     40  N   UNL     1       2.557   9.675  17.979  0.00  0.00    +0.000 NA
ENDBRANCH  14  39
TORSDOF 7
ENDMDL
MODEL 2
REMARK VINA RESULT:      -6.7      0.784      1.117
REMARK  Name = 
REMARK  9 active torsions:
REMARK  status: ('A' for Active; 'I' for Inactive)
REMARK    1  A    between atoms: C_1  and  O_2
REMARK    2  A    between atoms: O_2  and  C_3
REMARK    3  A    between atoms: C_3  and  C_4
REMARK    4  A    between atoms: C_4  and  C_5
REMARK    5  A    between atoms: C_4  and  N_6
REMARK    6  A    between atoms: C_13  and  N_14
REMARK    7  A    between atoms: C_19  and  N_20
REMARK    8  A    between atoms: N_23  and  C_24
REMARK    9  A    between atoms: C_33  and  C_34
REMARK                            x       y       z     vdW  Elec       q    Type
REMARK                         _______ _______ _______ _____ _____    ______ ____
ROOT
ATOM      1  N   UNL     1       5.199   5.204  16.197  0.00  0.00    +0.000 N 
ATOM      2  C   UNL     1       4.957   6.474  15.685  0.00  0.00    +0.000 C 
ATOM      3  O   UNL     1       5.333   6.941  14.623  0.00  0.00    +0.000 OA
ATOM      4  C   UNL     1       4.086   7.198  16.682  0.00  0.00    +0.000 C 
ATOM      5  C   UNL     1       3.855   6.173  17.756  0.00  0.00    +0.000 A 
ATOM      6  C   UNL     1       4.539   5.014  17.416  0.00  0.00    +0.000 A 
ATOM      7  N   UNL     1       4.532   3.903  18.145  0.00  0.00    +0.000 NA
ATOM      8  C   UNL     1       3.788   3.942  19.273  0.00  0.00    +0.000 A 
ATOM      9  C   UNL     1       3.020   5.074  19.709  0.00  0.00    +0.000 A 
ATOM     10  C   UNL     1       2.203   5.139  20.867  0.00  0.00    +0.000 A 
ATOM     11  N   UNL     1       2.011   4.032  21.704  0.00  0.00    +0.000 N 
ATOM     12  N   UNL     1       1.486   6.225  21.232  0.00  0.00    +0.000 NA
ATOM     13  C   UNL     1       1.515   7.345  20.475  0.00  0.00    +0.000 A 
ATOM     14  C   UNL     1       2.324   7.387  19.334  0.00  0.00    +0.000 A 
ATOM     15  C   UNL     1       3.067   6.241  18.921  0.00  0.00    +0.000 A 
ATOM     16  H   UNL     1       2.909   3.653  22.000  0.00  0.00    +0.000 HD
ATOM     17  H   UNL     1       1.444   4.342  22.489  0.00  0.00    +0.000 HD
ENDROOT
BRANCH  13  18
ATOM     18  N   UNL     1       0.698   8.375  20.882  0.00  0.00    +0.000 N 
ATOM     19  C   UNL     1       0.929   9.214  22.074  0.00  0.00    +0.000 C 
ATOM     20  C   UNL     1       0.762  10.702  21.732  0.00  0.00    +0.000 C 
ATOM     21  N   UNL     1      -0.534  10.947  21.090  0.00  0.00    +0.000 N 
ATOM     22  C   UNL     1      -0.800  10.121  19.896  0.00  0.00    +0.000 C 
ATOM     23  C   UNL     1      -0.582   8.615  20.194  0.00  0.00    +0.000 C 
BRANCH  21  24
ATOM     24  C   UNL     1      -1.474  11.790  21.650  0.00  0.00    +0.000 A 
ATOM     25  C   UNL     1      -1.916  11.586  22.967  0.00  0.00    +0.000 A 
ATOM     26  C   UNL     1      -2.899  12.394  23.553  0.00  0.00    +0.000 A 
ATOM     27  C   UNL     1      -3.468  13.439  22.832  0.00  0.00    +0.000 A 
ATOM     28  C   UNL     1      -3.050  13.676  21.528  0.00  0.00    +0.000 A 
ATOM     29  C   UNL     1      -2.070  12.864  20.956  0.00  0.00    +0.000 A 
ATOM     30  F   UNL     1      -1.676  13.171  19.707  0.00  0.00    +0.000 F 
ENDBRANCH  21  24
ENDBRANCH  13  18
BRANCH   8  31
ATOM     31  N   UNL     1       3.873   2.774  20.043  0.00  0.00    +0.000 N 
ATOM     32  H   UNL     1       3.134   2.818  20.742  0.00  0.00    +0.000 HD
ATOM     33  H   UNL     1       4.797   2.696  20.466  0.00  0.00    +0.000 HD
ENDBRANCH   8  31
BRANCH   1  34
ATOM     34  C   UNL     1       5.904   4.157  15.471  0.00  0.00    +0.000 C 
ATOM     35  C   UNL     1       7.411   4.438  15.430  0.00  0.00    +0.000 C 
BRANCH  34  36
ATOM     36  C   UNL     1       5.321   4.019  14.050  0.00  0.00    +0.000 C 
BRANCH  36  38
ATOM     37  C   UNL     1       5.865   2.974  12.022  0.00  0.00    +0.000 C 
ATOM     38  O   UNL     1       6.347   3.788  13.085  0.00  0.00    +0.000 OA
ENDBRANCH  36  38
ENDBRANCH  34  36
ENDBRANCH   1  34
BRANCH  14  39
ATOM     39  C   UNL     1       2.454   8.621  18.617  0.00  0.00    +0.000 C 
ATOM     40  N   UNL     1       2.526   9.642  18.067  0.00  0.00    +0.000 NA
ENDBRANCH  14  39
TORSDOF 7
ENDMDL
MODEL 3
REMARK VINA RESULT:      -6.5      4.622     10.760
REMARK  Name = 
REMARK  9 active torsions:
REMARK  status: ('A' for Active; 'I' for Inactive)
REMARK    1  A    between atoms: C_1  and  O_2
REMARK    2  A    between atoms: O_2  and  C_3
REMARK    3  A    between atoms: C_3  and  C_4
REMARK    4  A    between atoms: C_4  and  C_5
REMARK    5  A    between atoms: C_4  and  N_6
REMARK    6  A    between atoms: C_13  and  N_14
REMARK    7  A    between atoms: C_19  and  N_20
REMARK    8  A    between atoms: N_23  and  C_24
REMARK    9  A    between atoms: C_33  and  C_34
REMARK                            x       y       z     vdW  Elec       q    Type
REMARK                         _______ _______ _______ _____ _____    ______ ____
ROOT
ATOM      1  N   UNL     1      -3.448  13.461  21.916  0.00  0.00    +0.000 N 
ATOM      2  C   UNL     1      -2.390  13.335  22.808  0.00  0.00    +0.000 C 
ATOM      3  O   UNL     1      -2.304  13.778  23.941  0.00  0.00    +0.000 OA
ATOM      4  C   UNL     1      -1.334  12.494  22.132  0.00  0.00    +0.000 C 
ATOM      5  C   UNL     1      -1.955  12.151  20.808  0.00  0.00    +0.000 A 
ATOM      6  C   UNL     1      -3.203  12.751  20.734  0.00  0.00    +0.000 A 
ATOM      7  N   UNL     1      -4.027  12.636  19.699  0.00  0.00    +0.000 NA
ATOM      8  C   UNL     1      -3.589  11.864  18.680  0.00  0.00    +0.000 A 
ATOM      9  C   UNL     1      -2.329  11.174  18.657  0.00  0.00    +0.000 A 
ATOM     10  C   UNL     1      -1.852  10.330  17.621  0.00  0.00    +0.000 A 
ATOM     11  N   UNL     1      -2.627  10.027  16.494  0.00  0.00    +0.000 N 
ATOM     12  N   UNL     1      -0.663   9.690  17.650  0.00  0.00    +0.000 NA
ATOM     13  C   UNL     1       0.160   9.829  18.713  0.00  0.00    +0.000 A 
ATOM     14  C   UNL     1      -0.210  10.673  19.767  0.00  0.00    +0.000 A 
ATOM     15  C   UNL     1      -1.474  11.336  19.764  0.00  0.00    +0.000 A 
ATOM     16  H   UNL     1      -2.952  10.883  16.047  0.00  0.00    +0.000 HD
ATOM     17  H   UNL     1      -2.050   9.463  15.874  0.00  0.00    +0.000 HD
ENDROOT
BRANCH  13  18
ATOM     18  N   UNL     1       1.316   9.084  18.690  0.00  0.00    +0.000 N 
ATOM     19  C   UNL     1       1.698   8.088  19.711  0.00  0.00    +0.000 C 
ATOM     20  C   UNL     1       2.166   6.784  19.049  0.00  0.00    +0.000 C 
ATOM     21  N   UNL     1       3.226   7.048  18.069  0.00  0.00    +0.000 N 
ATOM     22  C   UNL     1       2.879   8.043  17.036  0.00  0.00    +0.000 C 
ATOM     23  C   UNL     1       2.346   9.352  17.672  0.00  0.00    +0.000 C 
BRANCH  21  24
ATOM     24  C   UNL     1       4.488   6.501  18.198  0.00  0.00    +0.000 A 
ATOM     25  C   UNL     1       5.518   6.881  17.323  0.00  0.00    +0.000 A 
ATOM     26  C   UNL     1       6.799   6.317  17.397  0.00  0.00    +0.000 A 
ATOM     27  C   UNL     1       7.085   5.352  18.358  0.00  0.00    +0.000 A 
ATOM     28  C   UNL     1       6.091   4.957  19.246  0.00  0.00    +0.000 A 
ATOM     29  C   UNL     1       4.820   5.527  19.162  0.00  0.00    +0.000 A 
ATOM     30  F   UNL     1       3.915   5.137  20.077  0.00  0.00    +0.000 F 
ENDBRANCH  21  24
ENDBRANCH  13  18
BRANCH   8  31
ATOM     31  N   UNL     1      -4.460  11.833  17.582  0.00  0.00    +0.000 N 
ATOM     32  H   UNL     1      -4.395  10.905  17.169  0.00  0.00    +0.000 HD
ATOM     33  H   UNL     1      -4.216  12.567  16.917  0.00  0.00    +0.000 HD
ENDBRANCH   8  31
BRANCH   1  34
ATOM     34  C   UNL     1      -4.713  14.103  22.243  0.00  0.00    +0.000 C 
ATOM     35  C   UNL     1      -4.517  15.601  22.505  0.00  0.00    +0.000 C 
BRANCH  34  36
ATOM     36  C   UNL     1      -5.360  13.402  23.455  0.00  0.00    +0.000 C 
BRANCH  36  38
ATOM     37  C   UNL     1      -7.567  12.619  23.596  0.00  0.00    +0.000 C 
ATOM     38  O   UNL     1      -6.275  12.387  23.044  0.00  0.00    +0.000 OA
ENDBRANCH  36  38
ENDBRANCH  34  36
ENDBRANCH   1  34
BRANCH  14  39
ATOM     39  C   UNL     1       0.726  10.921  20.823  0.00  0.00    +0.000 C 
ATOM     40  N   UNL     1       1.491  11.171  21.661  0.00  0.00    +0.000 NA
ENDBRANCH  14  39
TORSDOF 7
ENDMDL
MODEL 4
REMARK VINA RESULT:      -6.4      4.674     10.789
REMARK  Name = 
REMARK  9 active torsions:
REMARK  status: ('A' for Active; 'I' for Inactive)
REMARK    1  A    between atoms: C_1  and  O_2
REMARK    2  A    between atoms: O_2  and  C_3
REMARK    3  A    between atoms: C_3  and  C_4
REMARK    4  A    between atoms: C_4  and  C_5
REMARK    5  A    between atoms: C_4  and  N_6
REMARK    6  A    between atoms: C_13  and  N_14
REMARK    7  A    between atoms: C_19  and  N_20
REMARK    8  A    between atoms: N_23  and  C_24
REMARK    9  A    between atoms: C_33  and  C_34
REMARK                            x       y       z     vdW  Elec       q    Type
REMARK                         _______ _______ _______ _____ _____    ______ ____
ROOT
ATOM      1  N   UNL     1      -3.320  13.179  22.012  0.00  0.00    +0.000 N 
ATOM      2  C   UNL     1      -2.324  12.926  22.948  0.00  0.00    +0.000 C 
ATOM      3  O   UNL     1      -2.295  13.254  24.122  0.00  0.00    +0.000 OA
ATOM      4  C   UNL     1      -1.258  12.112  22.255  0.00  0.00    +0.000 C 
ATOM      5  C   UNL     1      -1.807  11.923  20.869  0.00  0.00    +0.000 A 
ATOM      6  C   UNL     1      -3.027  12.578  20.783  0.00  0.00    +0.000 A 
ATOM      7  N   UNL     1      -3.789  12.596  19.694  0.00  0.00    +0.000 NA
ATOM      8  C   UNL     1      -3.314  11.908  18.631  0.00  0.00    +0.000 A 
ATOM      9  C   UNL     1      -2.080  11.174  18.615  0.00  0.00    +0.000 A 
ATOM     10  C   UNL     1      -1.568  10.416  17.530  0.00  0.00    +0.000 A 
ATOM     11  N   UNL     1      -2.281  10.253  16.335  0.00  0.00    +0.000 N 
ATOM     12  N   UNL     1      -0.405   9.729  17.565  0.00  0.00    +0.000 NA
ATOM     13  C   UNL     1       0.354   9.732  18.684  0.00  0.00    +0.000 A 
ATOM     14  C   UNL     1      -0.052  10.484  19.792  0.00  0.00    +0.000 A 
ATOM     15  C   UNL     1      -1.290  11.194  19.781  0.00  0.00    +0.000 A 
ATOM     16  H   UNL     1      -2.548  11.161  15.957  0.00  0.00    +0.000 HD
ATOM     17  H   UNL     1      -1.687   9.729  15.698  0.00  0.00    +0.000 HD
ENDROOT
BRANCH  13  18
ATOM     18  N   UNL     1       1.483   8.946  18.655  0.00  0.00    +0.000 N 
ATOM     19  C   UNL     1       1.805   7.896  19.642  0.00  0.00    +0.000 C 
ATOM     20  C   UNL     1       2.242   6.604  18.936  0.00  0.00    +0.000 C 
ATOM     21  N   UNL     1       3.333   6.869  17.992  0.00  0.00    +0.000 N 
ATOM     22  C   UNL     1       3.046   7.917  16.994  0.00  0.00    +0.000 C 
ATOM     23  C   UNL     1       2.545   9.218  17.672  0.00  0.00    +0.000 C 
BRANCH  21  24
ATOM     24  C   UNL     1       4.572   6.272  18.125  0.00  0.00    +0.000 A 
ATOM     25  C   UNL     1       4.887   5.544  19.284  0.00  0.00    +0.000 A 
ATOM     26  C   UNL     1       6.147   4.961  19.472  0.00  0.00    +0.000 A 
ATOM     27  C   UNL     1       7.132   5.089  18.497  0.00  0.00    +0.000 A 
ATOM     28  C   UNL     1       6.852   5.796  17.334  0.00  0.00    +0.000 A 
ATOM     29  C   UNL     1       5.593   6.372  17.157  0.00  0.00    +0.000 A 
ATOM     30  F   UNL     1       5.369   7.004  15.993  0.00  0.00    +0.000 F 
ENDBRANCH  21  24
ENDBRANCH  13  18
BRANCH   8  31
ATOM     31  N   UNL     1      -4.115  12.019  17.487  0.00  0.00    +0.000 N 
ATOM     32  H   UNL     1      -3.499  11.963  16.678  0.00  0.00    +0.000 HD
ATOM     33  H   UNL     1      -4.643  12.890  17.508  0.00  0.00    +0.000 HD
ENDBRANCH   8  31
BRANCH   1  34
ATOM     34  C   UNL     1      -4.581  13.837  22.326  0.00  0.00    +0.000 C 
ATOM     35  C   UNL     1      -4.347  15.285  22.773  0.00  0.00    +0.000 C 
BRANCH  34  36
ATOM     36  C   UNL     1      -5.339  13.034  23.403  0.00  0.00    +0.000 C 
BRANCH  36  38
ATOM     37  C   UNL     1      -7.577  12.335  23.485  0.00  0.00    +0.000 C 
ATOM     38  O   UNL     1      -6.327  12.184  22.820  0.00  0.00    +0.000 OA
ENDBRANCH  36  38
ENDBRANCH  34  36
ENDBRANCH   1  34
BRANCH  14  39
ATOM     39  C   UNL     1       0.824  10.592  20.921  0.00  0.00    +0.000 C 
ATOM     40  N   UNL     1       1.494  10.671  21.867  0.00  0.00    +0.000 NA
ENDBRANCH  14  39
TORSDOF 7
ENDMDL
MODEL 5
REMARK VINA RESULT:      -6.3      4.725     11.097
REMARK  Name = 
REMARK  9 active torsions:
REMARK  status: ('A' for Active; 'I' for Inactive)
REMARK    1  A    between atoms: C_1  and  O_2
REMARK    2  A    between atoms: O_2  and  C_3
REMARK    3  A    between atoms: C_3  and  C_4
REMARK    4  A    between atoms: C_4  and  C_5
REMARK    5  A    between atoms: C_4  and  N_6
REMARK    6  A    between atoms: C_13  and  N_14
REMARK    7  A    between atoms: C_19  and  N_20
REMARK    8  A    between atoms: N_23  and  C_24
REMARK    9  A    between atoms: C_33  and  C_34
REMARK                            x       y       z     vdW  Elec       q    Type
REMARK                         _______ _______ _______ _____ _____    ______ ____
ROOT
ATOM      1  N   UNL     1      -2.512  13.837  23.143  0.00  0.00    +0.000 N 
ATOM      2  C   UNL     1      -2.917  12.568  23.539  0.00  0.00    +0.000 C 
ATOM      3  O   UNL     1      -3.809  12.271  24.316  0.00  0.00    +0.000 OA
ATOM      4  C   UNL     1      -2.064  11.573  22.789  0.00  0.00    +0.000 C 
ATOM      5  C   UNL     1      -1.193  12.440  21.925  0.00  0.00    +0.000 A 
ATOM      6  C   UNL     1      -1.501  13.769  22.178  0.00  0.00    +0.000 A 
ATOM      7  N   UNL     1      -0.923  14.798  21.568  0.00  0.00    +0.000 NA
ATOM      8  C   UNL     1       0.008  14.485  20.638  0.00  0.00    +0.000 A 
ATOM      9  C   UNL     1       0.387  13.148  20.276  0.00  0.00    +0.000 A 
ATOM     10  C   UNL     1       1.334  12.784  19.284  0.00  0.00    +0.000 A 
ATOM     11  N   UNL     1       1.975  13.737  18.482  0.00  0.00    +0.000 N 
ATOM     12  N   UNL     1       1.650  11.509  18.968  0.00  0.00    +0.000 NA
ATOM     13  C   UNL     1       1.051  10.480  19.608  0.00  0.00    +0.000 A 
ATOM     14  C   UNL     1       0.132  10.743  20.629  0.00  0.00    +0.000 A 
ATOM     15  C   UNL     1      -0.233  12.084  20.958  0.00  0.00    +0.000 A 
ATOM     16  H   UNL     1       2.419  14.446  19.064  0.00  0.00    +0.000 HD
ATOM     17  H   UNL     1       2.644  13.241  17.899  0.00  0.00    +0.000 HD
ENDROOT
BRANCH  13  18
ATOM     18  N   UNL     1       1.379   9.217  19.171  0.00  0.00    +0.000 N 
ATOM     19  C   UNL     1       1.534   8.829  17.755  0.00  0.00    +0.000 C 
ATOM     20  C   UNL     1       2.826   8.024  17.551  0.00  0.00    +0.000 C 
ATOM     21  N   UNL     1       2.883   6.887  18.476  0.00  0.00    +0.000 N 
ATOM     22  C   UNL     1       2.727   7.239  19.900  0.00  0.00    +0.000 C 
ATOM     23  C   UNL     1       1.461   8.103  20.130  0.00  0.00    +0.000 C 
BRANCH  21  24
ATOM     24  C   UNL     1       2.943   5.584  18.022  0.00  0.00    +0.000 A 
ATOM     25  C   UNL     1       1.865   4.709  18.231  0.00  0.00    +0.000 A 
ATOM     26  C   UNL     1       1.908   3.369  17.823  0.00  0.00    +0.000 A 
ATOM     27  C   UNL     1       3.038   2.866  17.185  0.00  0.00    +0.000 A 
ATOM     28  C   UNL     1       4.121   3.705  16.954  0.00  0.00    +0.000 A 
ATOM     29  C   UNL     1       4.067   5.038  17.365  0.00  0.00    +0.000 A 
ATOM     30  F   UNL     1       5.128   5.810  17.074  0.00  0.00    +0.000 F 
ENDBRANCH  21  24
ENDBRANCH  13  18
BRANCH   8  31
ATOM     31  N   UNL     1       0.640  15.603  20.077  0.00  0.00    +0.000 N 
ATOM     32  H   UNL     1      -0.025  16.374  20.106  0.00  0.00    +0.000 HD
ATOM     33  H   UNL     1       0.947  15.396  19.128  0.00  0.00    +0.000 HD
ENDBRANCH   8  31
BRANCH   1  34
ATOM     34  C   UNL     1      -3.177  15.066  23.554  0.00  0.00    +0.000 C 
ATOM     35  C   UNL     1      -3.166  15.211  25.080  0.00  0.00    +0.000 C 
BRANCH  34  36
ATOM     36  C   UNL     1      -4.615  15.096  22.998  0.00  0.00    +0.000 C 
BRANCH  36  38
ATOM     37  C   UNL     1      -6.827  14.808  23.724  0.00  0.00    +0.000 C 
ATOM     38  O   UNL     1      -5.564  15.391  24.024  0.00  0.00    +0.000 OA
ENDBRANCH  36  38
ENDBRANCH  34  36
ENDBRANCH   1  34
BRANCH  14  39
ATOM     39  C   UNL     1      -0.394   9.651  21.395  0.00  0.00    +0.000 C 
ATOM     40  N   UNL     1      -0.777   8.740  22.004  0.00  0.00    +0.000 NA
ENDBRANCH  14  39
TORSDOF 7
ENDMDL
MODEL 6
REMARK VINA RESULT:      -6.2      4.835     11.063
REMARK  Name = 
REMARK  9 active torsions:
REMARK  status: ('A' for Active; 'I' for Inactive)
REMARK    1  A    between atoms: C_1  and  O_2
REMARK    2  A    between atoms: O_2  and  C_3
REMARK    3  A    between atoms: C_3  and  C_4
REMARK    4  A    between atoms: C_4  and  C_5
REMARK    5  A    between atoms: C_4  and  N_6
REMARK    6  A    between atoms: C_13  and  N_14
REMARK    7  A    between atoms: C_19  and  N_20
REMARK    8  A    between atoms: N_23  and  C_24
REMARK    9  A    between atoms: C_33  and  C_34
REMARK                            x       y       z     vdW  Elec       q    Type
REMARK                         _______ _______ _______ _____ _____    ______ ____
ROOT
ATOM      1  N   UNL     1      -3.316  13.630  22.858  0.00  0.00    +0.000 N 
ATOM      2  C   UNL     1      -3.369  12.462  23.609  0.00  0.00    +0.000 C 
ATOM      3  O   UNL     1      -4.132  12.187  24.520  0.00  0.00    +0.000 OA
ATOM      4  C   UNL     1      -2.308  11.535  23.069  0.00  0.00    +0.000 C 
ATOM      5  C   UNL     1      -1.713  12.311  21.927  0.00  0.00    +0.000 A 
ATOM      6  C   UNL     1      -2.347  13.543  21.851  0.00  0.00    +0.000 A 
ATOM      7  N   UNL     1      -2.072  14.469  20.940  0.00  0.00    +0.000 NA
ATOM      8  C   UNL     1      -1.117  14.144  20.039  0.00  0.00    +0.000 A 
ATOM      9  C   UNL     1      -0.415  12.892  20.005  0.00  0.00    +0.000 A 
ATOM     10  C   UNL     1       0.567  12.506  19.057  0.00  0.00    +0.000 A 
ATOM     11  N   UNL     1       0.919  13.324  17.975  0.00  0.00    +0.000 N 
ATOM     12  N   UNL     1       1.194  11.309  19.057  0.00  0.00    +0.000 NA
ATOM     13  C   UNL     1       0.899  10.386  20.000  0.00  0.00    +0.000 A 
ATOM     14  C   UNL     1      -0.030  10.693  21.000  0.00  0.00    +0.000 A 
ATOM     15  C   UNL     1      -0.720  11.943  21.000  0.00  0.00    +0.000 A 
ATOM     16  H   UNL     1       1.180  14.252  18.305  0.00  0.00    +0.000 HD
ATOM     17  H   UNL     1       1.678  12.862  17.481  0.00  0.00    +0.000 HD
ENDROOT
BRANCH  13  18
ATOM     18  N   UNL     1       1.531   9.169  19.879  0.00  0.00    +0.000 N 
ATOM     19  C   UNL     1       1.774   8.232  20.994  0.00  0.00    +0.000 C 
ATOM     20  C   UNL     1       1.370   6.803  20.600  0.00  0.00    +0.000 C 
ATOM     21  N   UNL     1       2.024   6.403  19.349  0.00  0.00    +0.000 N 
ATOM     22  C   UNL     1       1.804   7.320  18.215  0.00  0.00    +0.000 C 
ATOM     23  C   UNL     1       2.148   8.783  18.599  0.00  0.00    +0.000 C 
BRANCH  21  24
ATOM     24  C   UNL     1       2.882   5.322  19.291  0.00  0.00    +0.000 A 
ATOM     25  C   UNL     1       4.272   5.520  19.270  0.00  0.00    +0.000 A 
ATOM     26  C   UNL     1       5.172   4.451  19.169  0.00  0.00    +0.000 A 
ATOM     27  C   UNL     1       4.701   3.144  19.090  0.00  0.00    +0.000 A 
ATOM     28  C   UNL     1       3.332   2.909  19.116  0.00  0.00    +0.000 A 
ATOM     29  C   UNL     1       2.445   3.983  19.218  0.00  0.00    +0.000 A 
ATOM     30  F   UNL     1       1.135   3.688  19.284  0.00  0.00    +0.000 F 
ENDBRANCH  21  24
ENDBRANCH  13  18
BRANCH   8  31
ATOM     31  N   UNL     1      -0.811  15.180  19.146  0.00  0.00    +0.000 N 
ATOM     32  H   UNL     1      -1.273  14.967  18.264  0.00  0.00    +0.000 HD
ATOM     33  H   UNL     1       0.198  15.267  19.039  0.00  0.00    +0.000 HD
ENDBRANCH   8  31
BRANCH   1  34
ATOM     34  C   UNL     1      -4.265  14.726  22.994  0.00  0.00    +0.000 C 
ATOM     35  C   UNL     1      -4.093  15.436  24.342  0.00  0.00    +0.000 C 
BRANCH  34  36
ATOM     36  C   UNL     1      -5.704  14.201  22.817  0.00  0.00    +0.000 C 
BRANCH  36  38
ATOM     37  C   UNL     1      -7.610  13.541  24.015  0.00  0.00    +0.000 C 
ATOM     38  O   UNL     1      -6.484  14.411  23.994  0.00  0.00    +0.000 OA
ENDBRANCH  36  38
ENDBRANCH  34  36
ENDBRANCH   1  34
BRANCH  14  39
ATOM     39  C   UNL     1      -0.234   9.763  22.072  0.00  0.00    +0.000 C 
ATOM     40  N   UNL     1      -0.419   9.049  22.969  0.00  0.00    +0.000 NA
ENDBRANCH  14  39
TORSDOF 7
ENDMDL
MODEL 7
REMARK VINA RESULT:      -6.1      4.624     10.825
REMARK  Name = 
REMARK  9 active torsions:
REMARK  status: ('A' for Active; 'I' for Inactive)
REMARK    1  A    between atoms: C_1  and  O_2
REMARK    2  A    between atoms: O_2  and  C_3
REMARK    3  A    between atoms: C_3  and  C_4
REMARK    4  A    between atoms: C_4  and  C_5
REMARK    5  A    between atoms: C_4  and  N_6
REMARK    6  A    between atoms: C_13  and  N_14
REMARK    7  A    between atoms: C_19  and  N_20
REMARK    8  A    between atoms: N_23  and  C_24
REMARK    9  A    between atoms: C_33  and  C_34
REMARK                            x       y       z     vdW  Elec       q    Type
REMARK                         _______ _______ _______ _____ _____    ______ ____
ROOT
ATOM      1  N   UNL     1      -2.012  13.850  22.419  0.00  0.00    +0.000 N 
ATOM      2  C   UNL     1      -2.405  12.673  23.045  0.00  0.00    +0.000 C 
ATOM      3  O   UNL     1      -3.258  12.527  23.904  0.00  0.00    +0.000 OA
ATOM      4  C   UNL     1      -1.597  11.553  22.437  0.00  0.00    +0.000 C 
ATOM      5  C   UNL     1      -0.764  12.246  21.397  0.00  0.00    +0.000 A 
ATOM      6  C   UNL     1      -1.050  13.603  21.432  0.00  0.00    +0.000 A 
ATOM      7  N   UNL     1      -0.497  14.504  20.627  0.00  0.00    +0.000 NA
ATOM      8  C   UNL     1       0.384  14.023  19.722  0.00  0.00    +0.000 A 
ATOM      9  C   UNL     1       0.736  12.638  19.576  0.00  0.00    +0.000 A 
ATOM     10  C   UNL     1       1.630  12.096  18.617  0.00  0.00    +0.000 A 
ATOM     11  N   UNL     1       2.236  12.888  17.634  0.00  0.00    +0.000 N 
ATOM     12  N   UNL     1       1.922  10.781  18.509  0.00  0.00    +0.000 NA
ATOM     13  C   UNL     1       1.349   9.886  19.345  0.00  0.00    +0.000 A 
ATOM     14  C   UNL     1       0.483  10.333  20.349  0.00  0.00    +0.000 A 
ATOM     15  C   UNL     1       0.145  11.716  20.460  0.00  0.00    +0.000 A 
ATOM     16  H   UNL     1       2.714  13.680  18.063  0.00  0.00    +0.000 HD
ATOM     17  H   UNL     1       2.872  12.290  17.113  0.00  0.00    +0.000 HD
ENDROOT
BRANCH  13  18
ATOM     18  N   UNL     1       1.647   8.562  19.115  0.00  0.00    +0.000 N 
ATOM     19  C   UNL     1       2.009   7.995  17.801  0.00  0.00    +0.000 C 
ATOM     20  C   UNL     1       3.250   7.098  17.920  0.00  0.00    +0.000 C 
ATOM     21  N   UNL     1       3.060   6.081  18.961  0.00  0.00    +0.000 N 
ATOM     22  C   UNL     1       2.693   6.614  20.287  0.00  0.00    +0.000 C 
ATOM     23  C   UNL     1       1.477   7.571  20.192  0.00  0.00    +0.000 C 
BRANCH  21  24
ATOM     24  C   UNL     1       3.095   4.731  18.672  0.00  0.00    +0.000 A 
ATOM     25  C   UNL     1       4.118   3.920  19.188  0.00  0.00    +0.000 A 
ATOM     26  C   UNL     1       4.209   2.556  18.882  0.00  0.00    +0.000 A 
ATOM     27  C   UNL     1       3.267   1.961  18.048  0.00  0.00    +0.000 A 
ATOM     28  C   UNL     1       2.236   2.730  17.525  0.00  0.00    +0.000 A 
ATOM     29  C   UNL     1       2.156   4.089  17.838  0.00  0.00    +0.000 A 
ATOM     30  F   UNL     1       1.110   4.769  17.337  0.00  0.00    +0.000 F 
ENDBRANCH  21  24
ENDBRANCH  13  18
BRANCH   8  31
ATOM     31  N   UNL     1       0.994  15.019  18.947  0.00  0.00    +0.000 N 
ATOM     32  H   UNL     1       0.254  15.525  18.466  0.00  0.00    +0.000 HD
ATOM     33  H   UNL     1       1.661  14.603  18.298  0.00  0.00    +0.000 HD
ENDBRANCH   8  31
BRANCH   1  34
ATOM     34  C   UNL     1      -2.647  15.141  22.644  0.00  0.00    +0.000 C 
ATOM     35  C   UNL     1      -2.432  15.614  24.087  0.00  0.00    +0.000 C 
BRANCH  34  36
ATOM     36  C   UNL     1      -4.148  15.055  22.301  0.00  0.00    +0.000 C 
BRANCH  36  38
ATOM     37  C   UNL     1      -6.031  16.199  23.106  0.00  0.00    +0.000 C 
ATOM     38  O   UNL     1      -4.961  15.323  23.444  0.00  0.00    +0.000 OA
ENDBRANCH  36  38
ENDBRANCH  34  36
ENDBRANCH   1  34
BRANCH  14  39
ATOM     39  C   UNL     1      -0.010   9.396  21.314  0.00  0.00    +0.000 C 
ATOM     40  N   UNL     1      -0.455   8.636  22.071  0.00  0.00    +0.000 NA
ENDBRANCH  14  39
TORSDOF 7
ENDMDL
MODEL 8
REMARK VINA RESULT:      -6.1      4.695     10.752
REMARK  Name = 
REMARK  9 active torsions:
REMARK  status: ('A' for Active; 'I' for Inactive)
REMARK    1  A    between atoms: C_1  and  O_2
REMARK    2  A    between atoms: O_2  and  C_3
REMARK    3  A    between atoms: C_3  and  C_4
REMARK    4  A    between atoms: C_4  and  C_5
REMARK    5  A    between atoms: C_4  and  N_6
REMARK    6  A    between atoms: C_13  and  N_14
REMARK    7  A    between atoms: C_19  and  N_20
REMARK    8  A    between atoms: N_23  and  C_24
REMARK    9  A    between atoms: C_33  and  C_34
REMARK                            x       y       z     vdW  Elec       q    Type
REMARK                         _______ _______ _______ _____ _____    ______ ____
ROOT
ATOM      1  N   UNL     1      -1.709  14.164  22.603  0.00  0.00    +0.000 N 
ATOM      2  C   UNL     1      -2.174  12.992  23.187  0.00  0.00    +0.000 C 
ATOM      3  O   UNL     1      -3.028  12.868  24.049  0.00  0.00    +0.000 OA
ATOM      4  C   UNL     1      -1.447  11.845  22.526  0.00  0.00    +0.000 C 
ATOM      5  C   UNL     1      -0.579  12.523  21.504  0.00  0.00    +0.000 A 
ATOM      6  C   UNL     1      -0.774  13.894  21.597  0.00  0.00    +0.000 A 
ATOM      7  N   UNL     1      -0.169  14.788  20.822  0.00  0.00    +0.000 NA
ATOM      8  C   UNL     1       0.670  14.286  19.888  0.00  0.00    +0.000 A 
ATOM      9  C   UNL     1       0.928  12.888  19.684  0.00  0.00    +0.000 A 
ATOM     10  C   UNL     1       1.775  12.327  18.694  0.00  0.00    +0.000 A 
ATOM     11  N   UNL     1       2.425  13.116  17.736  0.00  0.00    +0.000 N 
ATOM     12  N   UNL     1       1.978  11.001  18.532  0.00  0.00    +0.000 NA
ATOM     13  C   UNL     1       1.354  10.113  19.337  0.00  0.00    +0.000 A 
ATOM     14  C   UNL     1       0.529  10.576  20.368  0.00  0.00    +0.000 A 
ATOM     15  C   UNL     1       0.284  11.972  20.537  0.00  0.00    +0.000 A 
ATOM     16  H   UNL     1       2.957  13.857  18.191  0.00  0.00    +0.000 HD
ATOM     17  H   UNL     1       3.015  12.498  17.185  0.00  0.00    +0.000 HD
ENDROOT
BRANCH  13  18
ATOM     18  N   UNL     1       1.561   8.782  19.052  0.00  0.00    +0.000 N 
ATOM     19  C   UNL     1       1.659   8.217  17.692  0.00  0.00    +0.000 C 
ATOM     20  C   UNL     1       2.870   7.280  17.580  0.00  0.00    +0.000 C 
ATOM     21  N   UNL     1       2.840   6.260  18.633  0.00  0.00    +0.000 N 
ATOM     22  C   UNL     1       2.738   6.791  20.006  0.00  0.00    +0.000 C 
ATOM     23  C   UNL     1       1.558   7.787  20.138  0.00  0.00    +0.000 C 
BRANCH  21  24
ATOM     24  C   UNL     1       2.776   4.912  18.338  0.00  0.00    +0.000 A 
ATOM     25  C   UNL     1       1.606   4.182  18.602  0.00  0.00    +0.000 A 
ATOM     26  C   UNL     1       1.520   2.805  18.355  0.00  0.00    +0.000 A 
ATOM     27  C   UNL     1       2.610   2.118  17.830  0.00  0.00    +0.000 A 
ATOM     28  C   UNL     1       3.782   2.809  17.550  0.00  0.00    +0.000 A 
ATOM     29  C   UNL     1       3.856   4.180  17.799  0.00  0.00    +0.000 A 
ATOM     30  F   UNL     1       5.001   4.800  17.465  0.00  0.00    +0.000 F 
ENDBRANCH  21  24
ENDBRANCH  13  18
BRANCH   8  31
ATOM     31  N   UNL     1       1.338  15.270  19.147  0.00  0.00    +0.000 N 
ATOM     32  H   UNL     1       1.791  14.804  18.363  0.00  0.00    +0.000 HD
ATOM     33  H   UNL     1       2.006  15.764  19.737  0.00  0.00    +0.000 HD
ENDBRANCH   8  31
BRANCH   1  34
ATOM     34  C   UNL     1      -2.255  15.484  22.886  0.00  0.00    +0.000 C 
ATOM     35  C   UNL     1      -2.818  16.129  21.614  0.00  0.00    +0.000 C 
BRANCH  34  36
ATOM     36  C   UNL     1      -1.174  16.372  23.534  0.00  0.00    +0.000 C 
BRANCH  36  38
ATOM     37  C   UNL     1      -1.301  15.660  25.766  0.00  0.00    +0.000 C 
ATOM     38  O   UNL     1      -0.499  15.687  24.590  0.00  0.00    +0.000 OA
ENDBRANCH  36  38
ENDBRANCH  34  36
ENDBRANCH   1  34
BRANCH  14  39
ATOM     39  C   UNL     1      -0.018   9.635  21.301  0.00  0.00    +0.000 C 
ATOM     40  N   UNL     1      -0.453   8.908  22.095  0.00  0.00    +0.000 NA
ENDBRANCH  14  39
TORSDOF 7
ENDMDL
MODEL 9
REMARK VINA RESULT:      -6.1      4.693     10.829
REMARK  Name = 
REMARK  9 active torsions:
REMARK  status: ('A' for Active; 'I' for Inactive)
REMARK    1  A    between atoms: C_1  and  O_2
REMARK    2  A    between atoms: O_2  and  C_3
REMARK    3  A    between atoms: C_3  and  C_4
REMARK    4  A    between atoms: C_4  and  C_5
REMARK    5  A    between atoms: C_4  and  N_6
REMARK    6  A    between atoms: C_13  and  N_14
REMARK    7  A    between atoms: C_19  and  N_20
REMARK    8  A    between atoms: N_23  and  C_24
REMARK    9  A    between atoms: C_33  and  C_34
REMARK                            x       y       z     vdW  Elec       q    Type
REMARK                         _______ _______ _______ _____ _____    ______ ____
ROOT
ATOM      1  N   UNL     1      -2.057  13.994  22.399  0.00  0.00    +0.000 N 
ATOM      2  C   UNL     1      -2.432  12.809  23.020  0.00  0.00    +0.000 C 
ATOM      3  O   UNL     1      -3.277  12.646  23.884  0.00  0.00    +0.000 OA
ATOM      4  C   UNL     1      -1.615  11.702  22.398  0.00  0.00    +0.000 C 
ATOM      5  C   UNL     1      -0.799  12.412  21.355  0.00  0.00    +0.000 A 
ATOM      6  C   UNL     1      -1.101  13.766  21.403  0.00  0.00    +0.000 A 
ATOM      7  N   UNL     1      -0.564  14.679  20.601  0.00  0.00    +0.000 NA
ATOM      8  C   UNL     1       0.315  14.214  19.684  0.00  0.00    +0.000 A 
ATOM      9  C   UNL     1       0.682  12.835  19.526  0.00  0.00    +0.000 A 
ATOM     10  C   UNL     1       1.575  12.310  18.556  0.00  0.00    +0.000 A 
ATOM     11  N   UNL     1       2.164  13.116  17.574  0.00  0.00    +0.000 N 
ATOM     12  N   UNL     1       1.881  10.999  18.437  0.00  0.00    +0.000 NA
ATOM     13  C   UNL     1       1.325  10.091  19.270  0.00  0.00    +0.000 A 
ATOM     14  C   UNL     1       0.462  10.522  20.284  0.00  0.00    +0.000 A 
ATOM     15  C   UNL     1       0.108  11.899  20.408  0.00  0.00    +0.000 A 
ATOM     16  H   UNL     1       2.635  13.910  18.005  0.00  0.00    +0.000 HD
ATOM     17  H   UNL     1       2.803  12.529  17.044  0.00  0.00    +0.000 HD
ENDROOT
BRANCH  13  18
ATOM     18  N   UNL     1       1.636   8.773  19.029  0.00  0.00    +0.000 N 
ATOM     19  C   UNL     1       1.953   8.211  17.701  0.00  0.00    +0.000 C 
ATOM     20  C   UNL     1       3.214   7.336  17.768  0.00  0.00    +0.000 C 
ATOM     21  N   UNL     1       3.086   6.317  18.816  0.00  0.00    +0.000 N 
ATOM     22  C   UNL     1       2.765   6.844  20.156  0.00  0.00    +0.000 C 
ATOM     23  C   UNL     1       1.529   7.780  20.111  0.00  0.00    +0.000 C 
BRANCH  21  24
ATOM     24  C   UNL     1       3.131   4.967  18.527  0.00  0.00    +0.000 A 
ATOM     25  C   UNL     1       2.100   4.364  17.789  0.00  0.00    +0.000 A 
ATOM     26  C   UNL     1       2.092   2.991  17.513  0.00  0.00    +0.000 A 
ATOM     27  C   UNL     1       3.126   2.178  17.968  0.00  0.00    +0.000 A 
ATOM     28  C   UNL     1       4.167   2.742  18.695  0.00  0.00    +0.000 A 
ATOM     29  C   UNL     1       4.165   4.112  18.963  0.00  0.00    +0.000 A 
ATOM     30  F   UNL     1       5.222   4.604  19.632  0.00  0.00    +0.000 F 
ENDBRANCH  21  24
ENDBRANCH  13  18
BRANCH   8  31
ATOM     31  N   UNL     1       0.908  15.223  18.913  0.00  0.00    +0.000 N 
ATOM     32  H   UNL     1       0.155  15.761  18.487  0.00  0.00    +0.000 HD
ATOM     33  H   UNL     1       1.530  14.816  18.216  0.00  0.00    +0.000 HD
ENDBRANCH   8  31
BRANCH   1  34
ATOM     34  C   UNL     1      -2.706  15.276  22.638  0.00  0.00    +0.000 C 
ATOM     35  C   UNL     1      -2.571  15.692  24.108  0.00  0.00    +0.000 C 
BRANCH  34  36
ATOM     36  C   UNL     1      -4.185  15.205  22.209  0.00  0.00    +0.000 C 
BRANCH  36  38
ATOM     37  C   UNL     1      -6.228  14.575  23.177  0.00  0.00    +0.000 C 
ATOM     38  O   UNL     1      -5.060  15.376  23.325  0.00  0.00    +0.000 OA
ENDBRANCH  36  38
ENDBRANCH  34  36
ENDBRANCH   1  34
BRANCH  14  39
ATOM     39  C   UNL     1      -0.013   9.572  21.247  0.00  0.00    +0.000 C 
ATOM     40  N   UNL     1      -0.378   8.831  22.064  0.00  0.00    +0.000 NA
ENDBRANCH  14  39
TORSDOF 7
ENDMDL
