MODEL 1
REMARK VINA RESULT:      -8.4      0.000      0.000
REMARK  Name = 
REMARK  4 active torsions:
REMARK  status: ('A' for Active; 'I' for Inactive)
REMARK    1  A    between atoms: C_1  and  C_2
REMARK    2  A    between atoms: C_8  and  C_9
REMARK    3  A    between atoms: C_12  and  C_13
REMARK    4  A    between atoms: N_15  and  C_16
REMARK                            x       y       z     vdW  Elec       q    Type
REMARK                         _______ _______ _______ _____ _____    ______ ____
ROOT
ATOM      1  C   UNL     1       2.480   6.996  18.826  0.00  0.00    +0.000 A 
ATOM      2  C   UNL     1       2.166   6.842  20.165  0.00  0.00    +0.000 A 
ATOM      3  C   UNL     1       1.500   7.976  20.714  0.00  0.00    +0.000 A 
ATOM      4  C   UNL     1       1.339   8.991  19.794  0.00  0.00    +0.000 A 
ATOM      5  S   UNL     1       1.871   8.497  18.246  0.00  0.00    +0.000 S 
ENDROOT
BRANCH   1  13
ATOM      6  C   UNL     1       7.499   5.028  13.943  0.00  0.00    +0.000 C 
ATOM      7  C   UNL     1       6.404   4.976  14.930  0.00  0.00    +0.000 A 
ATOM      8  N   UNL     1       5.750   3.925  15.387  0.00  0.00    +0.000 NA
ATOM      9  C   UNL     1       4.845   4.464  16.265  0.00  0.00    +0.000 A 
ATOM     10  C   UNL     1       3.862   3.870  17.060  0.00  0.00    +0.000 A 
ATOM     11  C   UNL     1       3.061   4.702  17.870  0.00  0.00    +0.000 A 
ATOM     12 CL   UNL     1       1.810   3.886  18.755  0.00  0.00    +0.000 Cl
ATOM     13  C   UNL     1       3.246   6.106  17.920  0.00  0.00    +0.000 A 
ATOM     14  C   UNL     1       4.244   6.691  17.104  0.00  0.00    +0.000 A 
ATOM     15  C   UNL     1       4.996   5.836  16.308  0.00  0.00    +0.000 A 
ATOM     16  O   UNL     1       5.997   6.178  15.449  0.00  0.00    +0.000 OA
ENDBRANCH   1  13
BRANCH   4  17
ATOM     17  C   UNL     1       0.795  10.324  20.051  0.00  0.00    +0.000 C 
ATOM     18  O   UNL     1       1.347  11.328  19.615  0.00  0.00    +0.000 OA
ATOM     19  N   UNL     1      -0.339  10.331  20.840  0.00  0.00    +0.000 N 
ATOM     20  H   UNL     1      -0.564   9.452  21.294  0.00  0.00    +0.000 HD
BRANCH  19  21
ATOM     21  C   UNL     1      -1.134  11.433  21.229  0.00  0.00    +0.000 A 
ATOM     22  C   UNL     1      -1.777  12.327  20.369  0.00  0.00    +0.000 A 
ATOM     23  F   UNL     1      -1.793  12.152  19.043  0.00  0.00    +0.000 F 
ATOM     24  C   UNL     1      -2.514  13.403  20.874  0.00  0.00    +0.000 A 
ATOM     25  C   UNL     1      -2.635  13.593  22.250  0.00  0.00    +0.000 A 
ATOM     26  C   UNL     1      -2.036  12.687  23.122  0.00  0.00    +0.000 A 
ATOM     27  C   UNL     1      -1.303  11.621  22.605  0.00  0.00    +0.000 A 
ATOM     28  F   UNL     1      -0.730  10.758  23.461  0.00  0.00    +0.000 F 
ENDBRANCH  19  21
ENDBRANCH   4  17
TORSDOF 3
ENDMDL
MODEL 2
REMARK VINA RESULT:      -8.2      1.290      1.315
REMARK  Name = 
REMARK  4 active torsions:
REMARK  status: ('A' for Active; 'I' for Inactive)
REMARK    1  A    between atoms: C_1  and  C_2
REMARK    2  A    between atoms: C_8  and  C_9
REMARK    3  A    between atoms: C_12  and  C_13
REMARK    4  A    between atoms: N_15  and  C_16
REMARK                            x       y       z     vdW  Elec       q    Type
REMARK                         _______ _______ _______ _____ _____    ______ ____
ROOT
ATOM      1  C   UNL     1       2.406   7.169  18.765  0.00  0.00    +0.000 A 
ATOM      2  C   UNL     1       2.120   7.090  20.117  0.00  0.00    +0.000 A 
ATOM      3  C   UNL     1       1.439   8.241  20.610  0.00  0.00    +0.000 A 
ATOM      4  C   UNL     1       1.240   9.196  19.633  0.00  0.00    +0.000 A 
ATOM      5  S   UNL     1       1.754   8.621  18.108  0.00  0.00    +0.000 S 
ENDROOT
BRANCH   1  13
ATOM      6  C   UNL     1       7.496   4.984  14.050  0.00  0.00    +0.000 C 
ATOM      7  C   UNL     1       6.377   4.977  15.012  0.00  0.00    +0.000 A 
ATOM      8  N   UNL     1       5.692   3.951  15.478  0.00  0.00    +0.000 NA
ATOM      9  C   UNL     1       4.778   4.530  16.322  0.00  0.00    +0.000 A 
ATOM     10  C   UNL     1       3.765   3.975  17.108  0.00  0.00    +0.000 A 
ATOM     11  C   UNL     1       2.963   4.841  17.878  0.00  0.00    +0.000 A 
ATOM     12 CL   UNL     1       1.676   4.072  18.752  0.00  0.00    +0.000 Cl
ATOM     13  C   UNL     1       3.175   6.243  17.899  0.00  0.00    +0.000 A 
ATOM     14  C   UNL     1       4.203   6.787  17.093  0.00  0.00    +0.000 A 
ATOM     15  C   UNL     1       4.955   5.899  16.335  0.00  0.00    +0.000 A 
ATOM     16  O   UNL     1       5.983   6.200  15.492  0.00  0.00    +0.000 OA
ENDBRANCH   1  13
BRANCH   4  17
ATOM     17  C   UNL     1       0.673  10.530  19.821  0.00  0.00    +0.000 C 
ATOM     18  O   UNL     1       0.239  11.173  18.872  0.00  0.00    +0.000 OA
ATOM     19  N   UNL     1       0.714  10.985  21.126  0.00  0.00    +0.000 N 
ATOM     20  H   UNL     1       1.280  10.437  21.765  0.00  0.00    +0.000 HD
BRANCH  19  21
ATOM     21  C   UNL     1       0.208  12.195  21.652  0.00  0.00    +0.000 A 
ATOM     22  C   UNL     1       0.687  13.477  21.372  0.00  0.00    +0.000 A 
ATOM     23  F   UNL     1       1.637  13.698  20.455  0.00  0.00    +0.000 F 
ATOM     24  C   UNL     1       0.124  14.603  21.982  0.00  0.00    +0.000 A 
ATOM     25  C   UNL     1      -0.942  14.465  22.870  0.00  0.00    +0.000 A 
ATOM     26  C   UNL     1      -1.460  13.198  23.129  0.00  0.00    +0.000 A 
ATOM     27  C   UNL     1      -0.887  12.086  22.515  0.00  0.00    +0.000 A 
ATOM     28  F   UNL     1      -1.398  10.871  22.778  0.00  0.00    +0.000 F 
ENDBRANCH  19  21
ENDBRANCH   4  17
TORSDOF 3
ENDMDL
MODEL 3
REMARK VINA RESULT:      -8.2      2.172      2.390
REMARK  Name = 
REMARK  4 active torsions:
REMARK  status: ('A' for Active; 'I' for Inactive)
REMARK    1  A    between atoms: C_1  and  C_2
REMARK    2  A    between atoms: C_8  and  C_9
REMARK    3  A    between atoms: C_12  and  C_13
REMARK    4  A    between atoms: N_15  and  C_16
REMARK                            x       y       z     vdW  Elec       q    Type
REMARK                         _______ _______ _______ _____ _____    ______ ____
ROOT
ATOM      1  C   UNL     1       2.365   7.311  18.925  0.00  0.00    +0.000 A 
ATOM      2  C   UNL     1       2.104   7.246  20.282  0.00  0.00    +0.000 A 
ATOM      3  C   UNL     1       1.433   8.403  20.775  0.00  0.00    +0.000 A 
ATOM      4  C   UNL     1       1.217   9.347  19.793  0.00  0.00    +0.000 A 
ATOM      5  S   UNL     1       1.703   8.756  18.265  0.00  0.00    +0.000 S 
ENDROOT
BRANCH   1  13
ATOM      6  C   UNL     1       7.431   5.046  14.221  0.00  0.00    +0.000 C 
ATOM      7  C   UNL     1       6.305   5.058  15.176  0.00  0.00    +0.000 A 
ATOM      8  N   UNL     1       5.592   4.045  15.628  0.00  0.00    +0.000 NA
ATOM      9  C   UNL     1       4.688   4.637  16.471  0.00  0.00    +0.000 A 
ATOM     10  C   UNL     1       3.657   4.100  17.245  0.00  0.00    +0.000 A 
ATOM     11  C   UNL     1       2.870   4.978  18.019  0.00  0.00    +0.000 A 
ATOM     12 CL   UNL     1       1.559   4.233  18.878  0.00  0.00    +0.000 Cl
ATOM     13  C   UNL     1       3.116   6.374  18.055  0.00  0.00    +0.000 A 
ATOM     14  C   UNL     1       4.163   6.901  17.260  0.00  0.00    +0.000 A 
ATOM     15  C   UNL     1       4.898   6.002  16.499  0.00  0.00    +0.000 A 
ATOM     16  O   UNL     1       5.938   6.285  15.665  0.00  0.00    +0.000 OA
ENDBRANCH   1  13
BRANCH   4  17
ATOM     17  C   UNL     1       0.655  10.685  19.977  0.00  0.00    +0.000 C 
ATOM     18  O   UNL     1      -0.352  10.861  20.652  0.00  0.00    +0.000 OA
ATOM     19  N   UNL     1       1.333  11.682  19.301  0.00  0.00    +0.000 N 
ATOM     20  H   UNL     1       2.019  11.366  18.623  0.00  0.00    +0.000 HD
BRANCH  19  21
ATOM     21  C   UNL     1       1.087  13.074  19.307  0.00  0.00    +0.000 A 
ATOM     22  C   UNL     1       0.040  13.727  18.651  0.00  0.00    +0.000 A 
ATOM     23  F   UNL     1      -0.931  13.058  18.019  0.00  0.00    +0.000 F 
ATOM     24  C   UNL     1      -0.082  15.119  18.704  0.00  0.00    +0.000 A 
ATOM     25  C   UNL     1       0.831  15.880  19.432  0.00  0.00    +0.000 A 
ATOM     26  C   UNL     1       1.856  15.243  20.127  0.00  0.00    +0.000 A 
ATOM     27  C   UNL     1       1.967  13.855  20.063  0.00  0.00    +0.000 A 
ATOM     28  F   UNL     1       2.962  13.257  20.738  0.00  0.00    +0.000 F 
ENDBRANCH  19  21
ENDBRANCH   4  17
TORSDOF 3
ENDMDL
MODEL 4
REMARK VINA RESULT:      -8.1      2.161      2.972
REMARK  Name = 
REMARK  4 active torsions:
REMARK  status: ('A' for Active; 'I' for Inactive)
REMARK    1  A    between atoms: C_1  and  C_2
REMARK    2  A    between atoms: C_8  and  C_9
REMARK    3  A    between atoms: C_12  and  C_13
REMARK    4  A    between atoms: N_15  and  C_16
REMARK                            x       y       z     vdW  Elec       q    Type
REMARK                         _______ _______ _______ _____ _____    ______ ____
ROOT
ATOM      1  C   UNL     1       3.817   5.866  18.556  0.00  0.00    +0.000 A 
ATOM      2  C   UNL     1       3.412   5.302  19.753  0.00  0.00    +0.000 A 
ATOM      3  C   UNL     1       2.449   6.093  20.444  0.00  0.00    +0.000 A 
ATOM      4  C   UNL     1       2.153   7.265  19.778  0.00  0.00    +0.000 A 
ATOM      5  S   UNL     1       2.939   7.318  18.262  0.00  0.00    +0.000 S 
ENDROOT
BRANCH   1  13
ATOM      6  C   UNL     1       6.694   3.701  12.235  0.00  0.00    +0.000 C 
ATOM      7  C   UNL     1       6.551   4.127  13.641  0.00  0.00    +0.000 A 
ATOM      8  N   UNL     1       7.489   4.311  14.550  0.00  0.00    +0.000 NA
ATOM      9  C   UNL     1       6.788   4.690  15.666  0.00  0.00    +0.000 A 
ATOM     10  C   UNL     1       7.211   5.017  16.957  0.00  0.00    +0.000 A 
ATOM     11  C   UNL     1       6.236   5.364  17.914  0.00  0.00    +0.000 A 
ATOM     12 CL   UNL     1       6.846   5.668  19.511  0.00  0.00    +0.000 Cl
ATOM     13  C   UNL     1       4.855   5.420  17.597  0.00  0.00    +0.000 A 
ATOM     14  C   UNL     1       4.445   5.081  16.284  0.00  0.00    +0.000 A 
ATOM     15  C   UNL     1       5.437   4.726  15.380  0.00  0.00    +0.000 A 
ATOM     16  O   UNL     1       5.273   4.361  14.077  0.00  0.00    +0.000 OA
ENDBRANCH   1  13
BRANCH   4  17
ATOM     17  C   UNL     1       1.293   8.347  20.257  0.00  0.00    +0.000 C 
ATOM     18  O   UNL     1       0.874   8.361  21.408  0.00  0.00    +0.000 OA
ATOM     19  N   UNL     1       0.984   9.293  19.297  0.00  0.00    +0.000 N 
ATOM     20  H   UNL     1       1.231   9.048  18.343  0.00  0.00    +0.000 HD
BRANCH  19  21
ATOM     21  C   UNL     1       0.229  10.478  19.440  0.00  0.00    +0.000 A 
ATOM     22  C   UNL     1       0.474  11.503  20.358  0.00  0.00    +0.000 A 
ATOM     23  F   UNL     1       1.556  11.510  21.145  0.00  0.00    +0.000 F 
ATOM     24  C   UNL     1      -0.365  12.619  20.428  0.00  0.00    +0.000 A 
ATOM     25  C   UNL     1      -1.455  12.738  19.566  0.00  0.00    +0.000 A 
ATOM     26  C   UNL     1      -1.690  11.747  18.617  0.00  0.00    +0.000 A 
ATOM     27  C   UNL     1      -0.846  10.639  18.561  0.00  0.00    +0.000 A 
ATOM     28  F   UNL     1      -1.089   9.691  17.639  0.00  0.00    +0.000 F 
ENDBRANCH  19  21
ENDBRANCH   4  17
TORSDOF 3
ENDMDL
MODEL 5
REMARK VINA RESULT:      -8.1      0.391      1.607
REMARK  Name = 
REMARK  4 active torsions:
REMARK  status: ('A' for Active; 'I' for Inactive)
REMARK    1  A    between atoms: C_1  and  C_2
REMARK    2  A    between atoms: C_8  and  C_9
REMARK    3  A    between atoms: C_12  and  C_13
REMARK    4  A    between atoms: N_15  and  C_16
REMARK                            x       y       z     vdW  Elec       q    Type
REMARK                         _______ _______ _______ _____ _____    ______ ____
ROOT
ATOM      1  C   UNL     1       2.454   7.050  18.856  0.00  0.00    +0.000 A 
ATOM      2  C   UNL     1       2.157   6.912  20.201  0.00  0.00    +0.000 A 
ATOM      3  C   UNL     1       1.487   8.048  20.742  0.00  0.00    +0.000 A 
ATOM      4  C   UNL     1       1.308   9.050  19.809  0.00  0.00    +0.000 A 
ATOM      5  S   UNL     1       1.827   8.539  18.263  0.00  0.00    +0.000 S 
ENDROOT
BRANCH   1  13
ATOM      6  C   UNL     1       7.472   5.042  13.987  0.00  0.00    +0.000 C 
ATOM      7  C   UNL     1       6.374   4.998  14.973  0.00  0.00    +0.000 A 
ATOM      8  N   UNL     1       5.713   3.952  15.430  0.00  0.00    +0.000 NA
ATOM      9  C   UNL     1       4.810   4.499  16.306  0.00  0.00    +0.000 A 
ATOM     10  C   UNL     1       3.822   3.912  17.101  0.00  0.00    +0.000 A 
ATOM     11  C   UNL     1       3.024   4.750  17.906  0.00  0.00    +0.000 A 
ATOM     12 CL   UNL     1       1.767   3.943  18.791  0.00  0.00    +0.000 Cl
ATOM     13  C   UNL     1       3.217   6.154  17.954  0.00  0.00    +0.000 A 
ATOM     14  C   UNL     1       4.220   6.731  17.138  0.00  0.00    +0.000 A 
ATOM     15  C   UNL     1       4.968   5.870  16.346  0.00  0.00    +0.000 A 
ATOM     16  O   UNL     1       5.973   6.204  15.488  0.00  0.00    +0.000 OA
ENDBRANCH   1  13
BRANCH   4  17
ATOM     17  C   UNL     1       0.757  10.382  20.054  0.00  0.00    +0.000 C 
ATOM     18  O   UNL     1       1.393  11.391  19.774  0.00  0.00    +0.000 OA
ATOM     19  N   UNL     1      -0.491  10.379  20.649  0.00  0.00    +0.000 N 
ATOM     20  H   UNL     1      -0.805   9.483  21.007  0.00  0.00    +0.000 HD
BRANCH  19  21
ATOM     21  C   UNL     1      -1.316  11.480  20.969  0.00  0.00    +0.000 A 
ATOM     22  C   UNL     1      -1.468  12.053  22.234  0.00  0.00    +0.000 A 
ATOM     23  F   UNL     1      -0.732  11.667  23.283  0.00  0.00    +0.000 F 
ATOM     24  C   UNL     1      -2.343  13.125  22.436  0.00  0.00    +0.000 A 
ATOM     25  C   UNL     1      -3.067  13.655  21.369  0.00  0.00    +0.000 A 
ATOM     26  C   UNL     1      -2.897  13.124  20.093  0.00  0.00    +0.000 A 
ATOM     27  C   UNL     1      -2.024  12.053  19.908  0.00  0.00    +0.000 A 
ATOM     28  F   UNL     1      -1.873  11.552  18.670  0.00  0.00    +0.000 F 
ENDBRANCH  19  21
ENDBRANCH   4  17
TORSDOF 3
ENDMDL
MODEL 6
REMARK VINA RESULT:      -8.0      1.717      2.314
REMARK  Name = 
REMARK  4 active torsions:
REMARK  status: ('A' for Active; 'I' for Inactive)
REMARK    1  A    between atoms: C_1  and  C_2
REMARK    2  A    between atoms: C_8  and  C_9
REMARK    3  A    between atoms: C_12  and  C_13
REMARK    4  A    between atoms: N_15  and  C_16
REMARK                            x       y       z     vdW  Elec       q    Type
REMARK                         _______ _______ _______ _____ _____    ______ ____
ROOT
ATOM      1  C   UNL     1       2.823   6.448  18.636  0.00  0.00    +0.000 A 
ATOM      2  C   UNL     1       2.379   6.125  19.906  0.00  0.00    +0.000 A 
ATOM      3  C   UNL     1       1.719   7.207  20.557  0.00  0.00    +0.000 A 
ATOM      4  C   UNL     1       1.693   8.351  19.785  0.00  0.00    +0.000 A 
ATOM      5  S   UNL     1       2.343   8.051  18.233  0.00  0.00    +0.000 S 
ENDROOT
BRANCH   1  13
ATOM      6  C   UNL     1       7.707   5.066  13.425  0.00  0.00    +0.000 C 
ATOM      7  C   UNL     1       6.692   4.889  14.482  0.00  0.00    +0.000 A 
ATOM      8  N   UNL     1       6.196   3.770  14.975  0.00  0.00    +0.000 NA
ATOM      9  C   UNL     1       5.294   4.203  15.913  0.00  0.00    +0.000 A 
ATOM     10  C   UNL     1       4.441   3.500  16.768  0.00  0.00    +0.000 A 
ATOM     11  C   UNL     1       3.603   4.235  17.632  0.00  0.00    +0.000 A 
ATOM     12 CL   UNL     1       2.517   3.281  18.592  0.00  0.00    +0.000 Cl
ATOM     13  C   UNL     1       3.626   5.651  17.677  0.00  0.00    +0.000 A 
ATOM     14  C   UNL     1       4.494   6.346  16.800  0.00  0.00    +0.000 A 
ATOM     15  C   UNL     1       5.286   5.583  15.953  0.00  0.00    +0.000 A 
ATOM     16  O   UNL     1       6.182   6.037  15.031  0.00  0.00    +0.000 OA
ENDBRANCH   1  13
BRANCH   4  17
ATOM     17  C   UNL     1       1.193   9.665  20.189  0.00  0.00    +0.000 C 
ATOM     18  O   UNL     1       0.994   9.932  21.368  0.00  0.00    +0.000 OA
ATOM     19  N   UNL     1       0.941  10.523  19.135  0.00  0.00    +0.000 N 
ATOM     20  H   UNL     1       0.957  10.103  18.211  0.00  0.00    +0.000 HD
BRANCH  19  21
ATOM     21  C   UNL     1       0.506  11.867  19.179  0.00  0.00    +0.000 A 
ATOM     22  C   UNL     1      -0.739  12.314  19.628  0.00  0.00    +0.000 A 
ATOM     23  F   UNL     1      -1.634  11.489  20.185  0.00  0.00    +0.000 F 
ATOM     24  C   UNL     1      -1.069  13.673  19.593  0.00  0.00    +0.000 A 
ATOM     25  C   UNL     1      -0.150  14.610  19.125  0.00  0.00    +0.000 A 
ATOM     26  C   UNL     1       1.112  14.188  18.713  0.00  0.00    +0.000 A 
ATOM     27  C   UNL     1       1.425  12.830  18.751  0.00  0.00    +0.000 A 
ATOM     28  F   UNL     1       2.646  12.440  18.348  0.00  0.00    +0.000 F 
ENDBRANCH  19  21
ENDBRANCH   4  17
TORSDOF 3
ENDMDL
MODEL 7
REMARK VINA RESULT:      -8.0      2.256      2.791
REMARK  Name = 
REMARK  4 active torsions:
REMARK  status: ('A' for Active; 'I' for Inactive)
REMARK    1  A    between atoms: C_1  and  C_2
REMARK    2  A    between atoms: C_8  and  C_9
REMARK    3  A    between atoms: C_12  and  C_13
REMARK    4  A    between atoms: N_15  and  C_16
REMARK                            x       y       z     vdW  Elec       q    Type
REMARK                         _______ _______ _______ _____ _____    ______ ____
ROOT
ATOM      1  C   UNL     1       2.224   7.376  19.052  0.00  0.00    +0.000 A 
ATOM      2  C   UNL     1       1.848   7.286  20.381  0.00  0.00    +0.000 A 
ATOM      3  C   UNL     1       1.230   8.476  20.866  0.00  0.00    +0.000 A 
ATOM      4  C   UNL     1       1.169   9.467  19.908  0.00  0.00    +0.000 A 
ATOM      5  S   UNL     1       1.731   8.891  18.400  0.00  0.00    +0.000 S 
ENDROOT
BRANCH   1  13
ATOM      6  C   UNL     1       7.223   4.974  14.345  0.00  0.00    +0.000 C 
ATOM      7  C   UNL     1       6.117   5.013  15.322  0.00  0.00    +0.000 A 
ATOM      8  N   UNL     1       5.426   4.011  15.831  0.00  0.00    +0.000 NA
ATOM      9  C   UNL     1       4.530   4.628  16.666  0.00  0.00    +0.000 A 
ATOM     10  C   UNL     1       3.522   4.112  17.484  0.00  0.00    +0.000 A 
ATOM     11  C   UNL     1       2.740   5.013  18.235  0.00  0.00    +0.000 A 
ATOM     12 CL   UNL     1       1.456   4.289  19.151  0.00  0.00    +0.000 Cl
ATOM     13  C   UNL     1       2.969   6.412  18.207  0.00  0.00    +0.000 A 
ATOM     14  C   UNL     1       3.993   6.917  17.370  0.00  0.00    +0.000 A 
ATOM     15  C   UNL     1       4.724   5.995  16.633  0.00  0.00    +0.000 A 
ATOM     16  O   UNL     1       5.744   6.255  15.766  0.00  0.00    +0.000 OA
ENDBRANCH   1  13
BRANCH   4  17
ATOM     17  C   UNL     1       0.699  10.839  20.101  0.00  0.00    +0.000 C 
ATOM     18  O   UNL     1      -0.259  11.084  20.825  0.00  0.00    +0.000 OA
ATOM     19  N   UNL     1       1.398  11.785  19.375  0.00  0.00    +0.000 N 
ATOM     20  H   UNL     1       2.027  11.420  18.667  0.00  0.00    +0.000 HD
BRANCH  19  21
ATOM     21  C   UNL     1       1.236  13.189  19.373  0.00  0.00    +0.000 A 
ATOM     22  C   UNL     1       2.093  14.115  19.972  0.00  0.00    +0.000 A 
ATOM     23  F   UNL     1       3.254  13.754  20.531  0.00  0.00    +0.000 F 
ATOM     24  C   UNL     1       1.811  15.485  19.931  0.00  0.00    +0.000 A 
ATOM     25  C   UNL     1       0.674  15.951  19.273  0.00  0.00    +0.000 A 
ATOM     26  C   UNL     1      -0.170  15.046  18.635  0.00  0.00    +0.000 A 
ATOM     27  C   UNL     1       0.123  13.684  18.686  0.00  0.00    +0.000 A 
ATOM     28  F   UNL     1      -0.702  12.824  18.066  0.00  0.00    +0.000 F 
ENDBRANCH  19  21
ENDBRANCH   4  17
TORSDOF 3
ENDMDL
MODEL 8
REMARK VINA RESULT:      -7.9      1.424      1.785
REMARK  Name = 
REMARK  4 active torsions:
REMARK  status: ('A' for Active; 'I' for Inactive)
REMARK    1  A    between atoms: C_1  and  C_2
REMARK    2  A    between atoms: C_8  and  C_9
REMARK    3  A    between atoms: C_12  and  C_13
REMARK    4  A    between atoms: N_15  and  C_16
REMARK                            x       y       z     vdW  Elec       q    Type
REMARK                         _______ _______ _______ _____ _____    ______ ____
ROOT
ATOM      1  C   UNL     1       2.286   7.301  18.928  0.00  0.00    +0.000 A 
ATOM      2  C   UNL     1       2.020   7.244  20.285  0.00  0.00    +0.000 A 
ATOM      3  C   UNL     1       1.339   8.398  20.768  0.00  0.00    +0.000 A 
ATOM      4  C   UNL     1       1.119   9.335  19.778  0.00  0.00    +0.000 A 
ATOM      5  S   UNL     1       1.614   8.737  18.256  0.00  0.00    +0.000 S 
ENDROOT
BRANCH   1  13
ATOM      6  C   UNL     1       7.371   5.050  14.239  0.00  0.00    +0.000 C 
ATOM      7  C   UNL     1       6.247   5.058  15.196  0.00  0.00    +0.000 A 
ATOM      8  N   UNL     1       5.547   4.041  15.660  0.00  0.00    +0.000 NA
ATOM      9  C   UNL     1       4.637   4.631  16.498  0.00  0.00    +0.000 A 
ATOM     10  C   UNL     1       3.614   4.089  17.280  0.00  0.00    +0.000 A 
ATOM     11  C   UNL     1       2.818   4.966  18.045  0.00  0.00    +0.000 A 
ATOM     12 CL   UNL     1       1.518   4.213  18.914  0.00  0.00    +0.000 Cl
ATOM     13  C   UNL     1       3.047   6.365  18.066  0.00  0.00    +0.000 A 
ATOM     14  C   UNL     1       4.086   6.896  17.264  0.00  0.00    +0.000 A 
ATOM     15  C   UNL     1       4.831   5.998  16.511  0.00  0.00    +0.000 A 
ATOM     16  O   UNL     1       5.866   6.285  15.672  0.00  0.00    +0.000 OA
ENDBRANCH   1  13
BRANCH   4  17
ATOM     17  C   UNL     1       0.546  10.669  19.952  0.00  0.00    +0.000 C 
ATOM     18  O   UNL     1       0.093  11.292  18.999  0.00  0.00    +0.000 OA
ATOM     19  N   UNL     1       0.604  11.147  21.247  0.00  0.00    +0.000 N 
ATOM     20  H   UNL     1       1.184  10.614  21.887  0.00  0.00    +0.000 HD
BRANCH  19  21
ATOM     21  C   UNL     1       0.099  12.363  21.761  0.00  0.00    +0.000 A 
ATOM     22  C   UNL     1      -1.012  12.504  22.596  0.00  0.00    +0.000 A 
ATOM     23  F   UNL     1      -1.663  11.448  23.098  0.00  0.00    +0.000 F 
ATOM     24  C   UNL     1      -1.439  13.768  23.015  0.00  0.00    +0.000 A 
ATOM     25  C   UNL     1      -0.748  14.913  22.621  0.00  0.00    +0.000 A 
ATOM     26  C   UNL     1       0.387  14.789  21.823  0.00  0.00    +0.000 A 
ATOM     27  C   UNL     1       0.798  13.522  21.410  0.00  0.00    +0.000 A 
ATOM     28  F   UNL     1       1.895  13.421  20.640  0.00  0.00    +0.000 F 
ENDBRANCH  19  21
ENDBRANCH   4  17
TORSDOF 3
ENDMDL
MODEL 9
REMARK VINA RESULT:      -7.9      1.123      1.931
REMARK  Name = 
REMARK  4 active torsions:
REMARK  status: ('A' for Active; 'I' for Inactive)
REMARK    1  A    between atoms: C_1  and  C_2
REMARK    2  A    between atoms: C_8  and  C_9
REMARK    3  A    between atoms: C_12  and  C_13
REMARK    4  A    between atoms: N_15  and  C_16
REMARK                            x       y       z     vdW  Elec       q    Type
REMARK                         _______ _______ _______ _____ _____    ______ ____
ROOT
ATOM      1  C   UNL     1       2.505   6.016  19.212  0.00  0.00    +0.000 A 
ATOM      2  C   UNL     1       1.878   5.481  20.323  0.00  0.00    +0.000 A 
ATOM      3  C   UNL     1       1.302   6.472  21.169  0.00  0.00    +0.000 A 
ATOM      4  C   UNL     1       1.522   7.754  20.707  0.00  0.00    +0.000 A 
ATOM      5  S   UNL     1       2.299   7.725  19.185  0.00  0.00    +0.000 S 
ENDROOT
BRANCH   1  13
ATOM      6  C   UNL     1       7.459   5.263  13.938  0.00  0.00    +0.000 C 
ATOM      7  C   UNL     1       6.409   4.966  14.932  0.00  0.00    +0.000 A 
ATOM      8  N   UNL     1       5.850   3.808  15.226  0.00  0.00    +0.000 NA
ATOM      9  C   UNL     1       4.944   4.126  16.205  0.00  0.00    +0.000 A 
ATOM     10  C   UNL     1       4.038   3.336  16.917  0.00  0.00    +0.000 A 
ATOM     11  C   UNL     1       3.212   3.960  17.874  0.00  0.00    +0.000 A 
ATOM     12 CL   UNL     1       2.058   2.917  18.644  0.00  0.00    +0.000 Cl
ATOM     13  C   UNL     1       3.297   5.348  18.151  0.00  0.00    +0.000 A 
ATOM     14  C   UNL     1       4.219   6.133  17.416  0.00  0.00    +0.000 A 
ATOM     15  C   UNL     1       4.998   5.480  16.470  0.00  0.00    +0.000 A 
ATOM     16  O   UNL     1       5.938   6.033  15.653  0.00  0.00    +0.000 OA
ENDBRANCH   1  13
BRANCH   4  17
ATOM     17  C   UNL     1       1.163   8.999  21.384  0.00  0.00    +0.000 C 
ATOM     18  O   UNL     1       1.823   9.420  22.326  0.00  0.00    +0.000 OA
ATOM     19  N   UNL     1       0.022   9.604  20.891  0.00  0.00    +0.000 N 
ATOM     20  H   UNL     1      -0.531   9.043  20.251  0.00  0.00    +0.000 HD
BRANCH  19  21
ATOM     21  C   UNL     1      -0.563  10.829  21.279  0.00  0.00    +0.000 A 
ATOM     22  C   UNL     1      -1.085  11.128  22.541  0.00  0.00    +0.000 A 
ATOM     23  F   UNL     1      -0.976  10.284  23.574  0.00  0.00    +0.000 F 
ATOM     24  C   UNL     1      -1.671  12.371  22.799  0.00  0.00    +0.000 A 
ATOM     25  C   UNL     1      -1.728  13.345  21.803  0.00  0.00    +0.000 A 
ATOM     26  C   UNL     1      -1.174  13.081  20.553  0.00  0.00    +0.000 A 
ATOM     27  C   UNL     1      -0.596  11.836  20.309  0.00  0.00    +0.000 A 
ATOM     28  F   UNL     1      -0.069  11.598  19.096  0.00  0.00    +0.000 F 
ENDBRANCH  19  21
ENDBRANCH   4  17
TORSDOF 3
ENDMDL
