MODEL 1
REMARK VINA RESULT:      -7.5      0.000      0.000
REMARK  Name = 
REMARK  7 active torsions:
REMARK  status: ('A' for Active; 'I' for Inactive)
REMARK    1  A    between atoms: C_1  and  C_2
REMARK    2  A    between atoms: C_2  and  C_3
REMARK    3  A    between atoms: C_3  and  C_4
REMARK    4  A    between atoms: C_4  and  N_5
REMARK    5  A    between atoms: C_4  and  C_14
REMARK    6  A    between atoms: C_20  and  C_21
REMARK    7  A    between atoms: C_26  and  C_27
REMARK                            x       y       z     vdW  Elec       q    Type
REMARK                         _______ _______ _______ _____ _____    ______ ____
ROOT
ATOM      1  C   UNL     1       1.132  12.470  20.407  0.00  0.00    +0.000 C 
ATOM      2  O   UNL     1       1.592  11.704  21.246  0.00  0.00    +0.000 OA
ATOM      3  N   UNL     1       0.217  12.033  19.455  0.00  0.00    +0.000 N 
ATOM      4  C   UNL     1      -0.425  12.791  18.396  0.00  0.00    +0.000 C 
ATOM      5  C   UNL     1      -1.828  12.221  18.370  0.00  0.00    +0.000 C 
ATOM      6  C   UNL     1      -1.625  10.741  18.684  0.00  0.00    +0.000 C 
ATOM      7  C   UNL     1      -0.353  10.678  19.539  0.00  0.00    +0.000 C 
ENDROOT
BRANCH   7   8
ATOM      8  C   UNL     1       0.578   9.578  19.005  0.00  0.00    +0.000 C 
ATOM      9  O   UNL     1       0.942   9.611  17.831  0.00  0.00    +0.000 OA
ATOM     10  N   UNL     1       1.026   8.710  19.980  0.00  0.00    +0.000 N 
ATOM     11  C   UNL     1       1.854   7.673  19.667  0.00  0.00    +0.000 A 
ATOM     12  N   UNL     1       2.543   7.494  18.577  0.00  0.00    +0.000 NA
ATOM     13  C   UNL     1       3.165   6.264  18.610  0.00  0.00    +0.000 A 
ATOM     14  C   UNL     1       2.923   5.528  19.754  0.00  0.00    +0.000 A 
ATOM     15  S   UNL     1       1.968   6.451  20.850  0.00  0.00    +0.000 S 
ATOM     16  H   UNL     1       0.555   8.675  20.873  0.00  0.00    +0.000 HD
BRANCH  13  17
ATOM     17  C   UNL     1       3.976   5.824  17.484  0.00  0.00    +0.000 A 
ATOM     18  C   UNL     1       4.162   4.466  17.203  0.00  0.00    +0.000 A 
ATOM     19  C   UNL     1       4.986   4.070  16.148  0.00  0.00    +0.000 A 
ATOM     20  C   UNL     1       5.627   5.028  15.364  0.00  0.00    +0.000 A 
ATOM     21  C   UNL     1       5.444   6.383  15.629  0.00  0.00    +0.000 A 
ATOM     22  C   UNL     1       4.624   6.780  16.686  0.00  0.00    +0.000 A 
ENDBRANCH  13  17
ENDBRANCH   7   8
BRANCH   1  23
ATOM     23  C   UNL     1       1.456  13.982  20.423  0.00  0.00    +0.000 C 
BRANCH  23  24
ATOM     24  N   UNL     1       2.876  14.266  20.249  0.00  0.00    +0.000 N 
ATOM     25  C   UNL     1       3.510  14.377  19.047  0.00  0.00    +0.000 C 
ATOM     26  O   UNL     1       2.933  14.120  17.994  0.00  0.00    +0.000 OA
ATOM     27  N   UNL     1       4.823  14.815  19.127  0.00  0.00    +0.000 N 
ATOM     28  C   UNL     1       5.598  15.022  17.898  0.00  0.00    +0.000 C 
ATOM     29  C   UNL     1       7.063  14.605  18.102  0.00  0.00    +0.000 C 
ATOM     30  O   UNL     1       7.649  15.272  19.233  0.00  0.00    +0.000 OA
ATOM     31  C   UNL     1       6.917  14.974  20.427  0.00  0.00    +0.000 C 
ATOM     32  C   UNL     1       5.462  15.424  20.302  0.00  0.00    +0.000 C 
ATOM     33  H   UNL     1       3.403  14.368  21.095  0.00  0.00    +0.000 HD
ENDBRANCH  23  24
BRANCH  23  34
ATOM     34  C   UNL     1       1.021  14.544  21.792  0.00  0.00    +0.000 C 
BRANCH  34  36
ATOM     35  C   UNL     1      -0.964  14.213  23.330  0.00  0.00    +0.000 C 
ATOM     36  C   UNL     1      -0.504  14.611  21.937  0.00  0.00    +0.000 C 
ENDBRANCH  34  36
ENDBRANCH  23  34
ENDBRANCH   1  23
TORSDOF 6
ENDMDL
MODEL 2
REMARK VINA RESULT:      -7.3      0.559      1.155
REMARK  Name = 
REMARK  7 active torsions:
REMARK  status: ('A' for Active; 'I' for Inactive)
REMARK    1  A    between atoms: C_1  and  C_2
REMARK    2  A    between atoms: C_2  and  C_3
REMARK    3  A    between atoms: C_3  and  C_4
REMARK    4  A    between atoms: C_4  and  N_5
REMARK    5  A    between atoms: C_4  and  C_14
REMARK    6  A    between atoms: C_20  and  C_21
REMARK    7  A    between atoms: C_26  and  C_27
REMARK                            x       y       z     vdW  Elec       q    Type
REMARK                         _______ _______ _______ _____ _____    ______ ____
ROOT
ATOM      1  C   UNL     1       1.255  12.497  20.378  0.00  0.00    +0.000 C 
ATOM      2  O   UNL     1       1.691  11.725  21.225  0.00  0.00    +0.000 OA
ATOM      3  N   UNL     1       0.352  12.072  19.411  0.00  0.00    +0.000 N 
ATOM      4  C   UNL     1      -0.263  12.838  18.341  0.00  0.00    +0.000 C 
ATOM      5  C   UNL     1      -1.672  12.287  18.291  0.00  0.00    +0.000 C 
ATOM      6  C   UNL     1      -1.494  10.804  18.609  0.00  0.00    +0.000 C 
ATOM      7  C   UNL     1      -0.238  10.724  19.485  0.00  0.00    +0.000 C 
ENDROOT
BRANCH   7   8
ATOM      8  C   UNL     1       0.688   9.613  18.967  0.00  0.00    +0.000 C 
ATOM      9  O   UNL     1       1.088   9.650  17.805  0.00  0.00    +0.000 OA
ATOM     10  N   UNL     1       1.090   8.725  19.946  0.00  0.00    +0.000 N 
ATOM     11  C   UNL     1       1.906   7.676  19.646  0.00  0.00    +0.000 A 
ATOM     12  N   UNL     1       2.625   7.496  18.575  0.00  0.00    +0.000 NA
ATOM     13  C   UNL     1       3.222   6.252  18.613  0.00  0.00    +0.000 A 
ATOM     14  C   UNL     1       2.931   5.510  19.741  0.00  0.00    +0.000 A 
ATOM     15  S   UNL     1       1.961   6.440  20.819  0.00  0.00    +0.000 S 
ATOM     16  H   UNL     1       0.591   8.690  20.823  0.00  0.00    +0.000 HD
BRANCH  13  17
ATOM     17  C   UNL     1       4.058   5.809  17.507  0.00  0.00    +0.000 A 
ATOM     18  C   UNL     1       4.634   6.718  16.614  0.00  0.00    +0.000 A 
ATOM     19  C   UNL     1       5.389   6.263  15.532  0.00  0.00    +0.000 A 
ATOM     20  C   UNL     1       5.577   4.896  15.337  0.00  0.00    +0.000 A 
ATOM     21  C   UNL     1       5.015   3.980  16.223  0.00  0.00    +0.000 A 
ATOM     22  C   UNL     1       4.256   4.434  17.302  0.00  0.00    +0.000 A 
ENDBRANCH  13  17
ENDBRANCH   7   8
BRANCH   1  23
ATOM     23  C   UNL     1       1.599  14.005  20.399  0.00  0.00    +0.000 C 
BRANCH  23  24
ATOM     24  N   UNL     1       3.022  14.272  20.219  0.00  0.00    +0.000 N 
ATOM     25  C   UNL     1       3.638  14.447  19.015  0.00  0.00    +0.000 C 
ATOM     26  O   UNL     1       3.039  14.269  17.958  0.00  0.00    +0.000 OA
ATOM     27  N   UNL     1       4.961  14.853  19.100  0.00  0.00    +0.000 N 
ATOM     28  C   UNL     1       5.720  15.123  17.873  0.00  0.00    +0.000 C 
ATOM     29  C   UNL     1       7.179  14.666  18.025  0.00  0.00    +0.000 C 
ATOM     30  O   UNL     1       7.797  15.247  19.185  0.00  0.00    +0.000 OA
ATOM     31  C   UNL     1       7.079  14.887  20.371  0.00  0.00    +0.000 C 
ATOM     32  C   UNL     1       5.631  15.373  20.300  0.00  0.00    +0.000 C 
ATOM     33  H   UNL     1       3.565  14.309  21.060  0.00  0.00    +0.000 HD
ENDBRANCH  23  24
BRANCH  23  34
ATOM     34  C   UNL     1       1.179  14.566  21.774  0.00  0.00    +0.000 C 
BRANCH  34  36
ATOM     35  C   UNL     1       1.292  16.992  22.491  0.00  0.00    +0.000 C 
ATOM     36  C   UNL     1       2.079  15.718  22.233  0.00  0.00    +0.000 C 
ENDBRANCH  34  36
ENDBRANCH  23  34
ENDBRANCH   1  23
TORSDOF 6
ENDMDL
MODEL 3
REMARK VINA RESULT:      -7.1      4.278      9.021
REMARK  Name = 
REMARK  7 active torsions:
REMARK  status: ('A' for Active; 'I' for Inactive)
REMARK    1  A    between atoms: C_1  and  C_2
REMARK    2  A    between atoms: C_2  and  C_3
REMARK    3  A    between atoms: C_3  and  C_4
REMARK    4  A    between atoms: C_4  and  N_5
REMARK    5  A    between atoms: C_4  and  C_14
REMARK    6  A    between atoms: C_20  and  C_21
REMARK    7  A    between atoms: C_26  and  C_27
REMARK                            x       y       z     vdW  Elec       q    Type
REMARK                         _______ _______ _______ _____ _____    ______ ____
ROOT
ATOM      1  C   UNL     1       1.591   7.747  20.377  0.00  0.00    +0.000 C 
ATOM      2  O   UNL     1       1.127   8.176  21.427  0.00  0.00    +0.000 OA
ATOM      3  N   UNL     1       1.665   8.545  19.242  0.00  0.00    +0.000 N 
ATOM      4  C   UNL     1       2.178   8.210  17.925  0.00  0.00    +0.000 C 
ATOM      5  C   UNL     1       2.878   9.482  17.495  0.00  0.00    +0.000 C 
ATOM      6  C   UNL     1       2.004  10.592  18.076  0.00  0.00    +0.000 C 
ATOM      7  C   UNL     1       1.347   9.981  19.320  0.00  0.00    +0.000 C 
ENDROOT
BRANCH   7   8
ATOM      8  C   UNL     1      -0.160  10.285  19.314  0.00  0.00    +0.000 C 
ATOM      9  O   UNL     1      -0.758  10.403  20.382  0.00  0.00    +0.000 OA
ATOM     10  N   UNL     1      -0.670  10.531  18.055  0.00  0.00    +0.000 N 
ATOM     11  C   UNL     1      -1.993  10.808  17.879  0.00  0.00    +0.000 A 
ATOM     12  N   UNL     1      -2.870  11.151  18.778  0.00  0.00    +0.000 NA
ATOM     13  C   UNL     1      -4.123  11.232  18.206  0.00  0.00    +0.000 A 
ATOM     14  C   UNL     1      -4.158  10.942  16.856  0.00  0.00    +0.000 A 
ATOM     15  S   UNL     1      -2.561  10.654  16.279  0.00  0.00    +0.000 S 
ATOM     16  H   UNL     1      -0.139  10.263  17.240  0.00  0.00    +0.000 HD
BRANCH  13  17
ATOM     17  C   UNL     1      -5.279  11.575  19.022  0.00  0.00    +0.000 A 
ATOM     18  C   UNL     1      -6.401  10.742  19.088  0.00  0.00    +0.000 A 
ATOM     19  C   UNL     1      -7.516  11.119  19.837  0.00  0.00    +0.000 A 
ATOM     20  C   UNL     1      -7.518  12.329  20.529  0.00  0.00    +0.000 A 
ATOM     21  C   UNL     1      -6.404  13.163  20.478  0.00  0.00    +0.000 A 
ATOM     22  C   UNL     1      -5.290  12.790  19.725  0.00  0.00    +0.000 A 
ENDBRANCH  13  17
ENDBRANCH   7   8
BRANCH   1  23
ATOM     23  C   UNL     1       2.217   6.336  20.281  0.00  0.00    +0.000 C 
BRANCH  23  24
ATOM     24  N   UNL     1       3.438   6.302  19.483  0.00  0.00    +0.000 N 
ATOM     25  C   UNL     1       4.236   5.209  19.321  0.00  0.00    +0.000 C 
ATOM     26  O   UNL     1       4.039   4.174  19.953  0.00  0.00    +0.000 OA
ATOM     27  N   UNL     1       5.247   5.368  18.387  0.00  0.00    +0.000 N 
ATOM     28  C   UNL     1       6.144   4.245  18.086  0.00  0.00    +0.000 C 
ATOM     29  C   UNL     1       7.576   4.745  17.841  0.00  0.00    +0.000 C 
ATOM     30  O   UNL     1       7.615   5.761  16.824  0.00  0.00    +0.000 OA
ATOM     31  C   UNL     1       6.799   6.876  17.196  0.00  0.00    +0.000 C 
ATOM     32  C   UNL     1       5.345   6.447  17.394  0.00  0.00    +0.000 C 
ATOM     33  H   UNL     1       3.691   7.166  19.045  0.00  0.00    +0.000 HD
ENDBRANCH  23  24
BRANCH  23  34
ATOM     34  C   UNL     1       1.184   5.405  19.612  0.00  0.00    +0.000 C 
BRANCH  34  36
ATOM     35  C   UNL     1       0.849   2.895  19.642  0.00  0.00    +0.000 C 
ATOM     36  C   UNL     1       0.872   4.171  20.466  0.00  0.00    +0.000 C 
ENDBRANCH  34  36
ENDBRANCH  23  34
ENDBRANCH   1  23
TORSDOF 6
ENDMDL
MODEL 4
REMARK VINA RESULT:      -7.0      1.979      2.856
REMARK  Name = 
REMARK  7 active torsions:
REMARK  status: ('A' for Active; 'I' for Inactive)
REMARK    1  A    between atoms: C_1  and  C_2
REMARK    2  A    between atoms: C_2  and  C_3
REMARK    3  A    between atoms: C_3  and  C_4
REMARK    4  A    between atoms: C_4  and  N_5
REMARK    5  A    between atoms: C_4  and  C_14
REMARK    6  A    between atoms: C_20  and  C_21
REMARK    7  A    between atoms: C_26  and  C_27
REMARK                            x       y       z     vdW  Elec       q    Type
REMARK                         _______ _______ _______ _____ _____    ______ ____
ROOT
ATOM      1  C   UNL     1       1.762  12.902  20.138  0.00  0.00    +0.000 C 
ATOM      2  O   UNL     1       2.240  12.515  21.199  0.00  0.00    +0.000 OA
ATOM      3  N   UNL     1       0.650  12.283  19.580  0.00  0.00    +0.000 N 
ATOM      4  C   UNL     1      -0.044  12.602  18.345  0.00  0.00    +0.000 C 
ATOM      5  C   UNL     1      -1.498  12.377  18.701  0.00  0.00    +0.000 C 
ATOM      6  C   UNL     1      -1.460  11.186  19.655  0.00  0.00    +0.000 C 
ATOM      7  C   UNL     1      -0.086  11.254  20.334  0.00  0.00    +0.000 C 
ENDROOT
BRANCH   7   8
ATOM      8  C   UNL     1       0.577   9.868  20.305  0.00  0.00    +0.000 C 
ATOM      9  O   UNL     1       0.425   9.104  21.256  0.00  0.00    +0.000 OA
ATOM     10  N   UNL     1       1.191   9.572  19.104  0.00  0.00    +0.000 N 
ATOM     11  C   UNL     1       1.833   8.384  18.920  0.00  0.00    +0.000 A 
ATOM     12  N   UNL     1       1.748   7.304  19.642  0.00  0.00    +0.000 NA
ATOM     13  C   UNL     1       2.643   6.360  19.183  0.00  0.00    +0.000 A 
ATOM     14  C   UNL     1       3.398   6.764  18.098  0.00  0.00    +0.000 A 
ATOM     15  S   UNL     1       2.898   8.332  17.590  0.00  0.00    +0.000 S 
ATOM     16  H   UNL     1       1.391  10.315  18.450  0.00  0.00    +0.000 HD
BRANCH  13  17
ATOM     17  C   UNL     1       2.754   5.071  19.850  0.00  0.00    +0.000 A 
ATOM     18  C   UNL     1       3.728   4.137  19.482  0.00  0.00    +0.000 A 
ATOM     19  C   UNL     1       3.780   2.889  20.103  0.00  0.00    +0.000 A 
ATOM     20  C   UNL     1       2.860   2.565  21.099  0.00  0.00    +0.000 A 
ATOM     21  C   UNL     1       1.889   3.488  21.480  0.00  0.00    +0.000 A 
ATOM     22  C   UNL     1       1.834   4.735  20.856  0.00  0.00    +0.000 A 
ENDBRANCH  13  17
ENDBRANCH   7   8
BRANCH   1  23
ATOM     23  C   UNL     1       2.296  14.162  19.418  0.00  0.00    +0.000 C 
BRANCH  23  24
ATOM     24  N   UNL     1       3.734  14.349  19.581  0.00  0.00    +0.000 N 
ATOM     25  C   UNL     1       4.559  14.910  18.651  0.00  0.00    +0.000 C 
ATOM     26  O   UNL     1       4.155  15.200  17.528  0.00  0.00    +0.000 OA
ATOM     27  N   UNL     1       5.854  15.135  19.092  0.00  0.00    +0.000 N 
ATOM     28  C   UNL     1       6.825  15.781  18.201  0.00  0.00    +0.000 C 
ATOM     29  C   UNL     1       8.224  15.171  18.390  0.00  0.00    +0.000 C 
ATOM     30  O   UNL     1       8.637  15.213  19.766  0.00  0.00    +0.000 OA
ATOM     31  C   UNL     1       7.711  14.497  20.591  0.00  0.00    +0.000 C 
ATOM     32  C   UNL     1       6.311  15.100  20.489  0.00  0.00    +0.000 C 
ATOM     33  H   UNL     1       4.119  14.017  20.443  0.00  0.00    +0.000 HD
ENDBRANCH  23  24
BRANCH  23  34
ATOM     34  C   UNL     1       1.585  15.390  20.023  0.00  0.00    +0.000 C 
BRANCH  34  36
ATOM     35  C   UNL     1       1.463  17.531  18.675  0.00  0.00    +0.000 C 
ATOM     36  C   UNL     1       0.810  16.191  18.971  0.00  0.00    +0.000 C 
ENDBRANCH  34  36
ENDBRANCH  23  34
ENDBRANCH   1  23
TORSDOF 6
ENDMDL
MODEL 5
REMARK VINA RESULT:      -6.9      1.164      1.444
REMARK  Name = 
REMARK  7 active torsions:
REMARK  status: ('A' for Active; 'I' for Inactive)
REMARK    1  A    between atoms: C_1  and  C_2
REMARK    2  A    between atoms: C_2  and  C_3
REMARK    3  A    between atoms: C_3  and  C_4
REMARK    4  A    between atoms: C_4  and  N_5
REMARK    5  A    between atoms: C_4  and  C_14
REMARK    6  A    between atoms: C_20  and  C_21
REMARK    7  A    between atoms: C_26  and  C_27
REMARK                            x       y       z     vdW  Elec       q    Type
REMARK                         _______ _______ _______ _____ _____    ______ ____
ROOT
ATOM      1  C   UNL     1       1.094  12.131  20.583  0.00  0.00    +0.000 C 
ATOM      2  O   UNL     1       1.387  11.306  21.441  0.00  0.00    +0.000 OA
ATOM      3  N   UNL     1       0.437  11.757  19.417  0.00  0.00    +0.000 N 
ATOM      4  C   UNL     1       0.017  12.589  18.303  0.00  0.00    +0.000 C 
ATOM      5  C   UNL     1      -1.317  11.989  17.913  0.00  0.00    +0.000 C 
ATOM      6  C   UNL     1      -1.127  10.493  18.146  0.00  0.00    +0.000 C 
ATOM      7  C   UNL     1      -0.078  10.386  19.260  0.00  0.00    +0.000 C 
ENDROOT
BRANCH   7   8
ATOM      8  C   UNL     1       0.996   9.360  18.867  0.00  0.00    +0.000 C 
ATOM      9  O   UNL     1       1.643   9.526  17.835  0.00  0.00    +0.000 OA
ATOM     10  N   UNL     1       1.215   8.391  19.826  0.00  0.00    +0.000 N 
ATOM     11  C   UNL     1       2.131   7.402  19.626  0.00  0.00    +0.000 A 
ATOM     12  N   UNL     1       3.079   7.352  18.734  0.00  0.00    +0.000 NA
ATOM     13  C   UNL     1       3.717   6.130  18.793  0.00  0.00    +0.000 A 
ATOM     14  C   UNL     1       3.220   5.270  19.753  0.00  0.00    +0.000 A 
ATOM     15  S   UNL     1       1.988   6.057  20.662  0.00  0.00    +0.000 S 
ATOM     16  H   UNL     1       0.536   8.254  20.561  0.00  0.00    +0.000 HD
BRANCH  13  17
ATOM     17  C   UNL     1       4.799   5.825  17.870  0.00  0.00    +0.000 A 
ATOM     18  C   UNL     1       4.689   6.086  16.500  0.00  0.00    +0.000 A 
ATOM     19  C   UNL     1       5.722   5.736  15.629  0.00  0.00    +0.000 A 
ATOM     20  C   UNL     1       6.875   5.126  16.121  0.00  0.00    +0.000 A 
ATOM     21  C   UNL     1       7.001   4.868  17.484  0.00  0.00    +0.000 A 
ATOM     22  C   UNL     1       5.966   5.213  18.355  0.00  0.00    +0.000 A 
ENDBRANCH  13  17
ENDBRANCH   7   8
BRANCH   1  23
ATOM     23  C   UNL     1       1.341  13.644  20.793  0.00  0.00    +0.000 C 
BRANCH  23  24
ATOM     24  N   UNL     1       2.731  13.961  21.101  0.00  0.00    +0.000 N 
ATOM     25  C   UNL     1       3.631  14.471  20.213  0.00  0.00    +0.000 C 
ATOM     26  O   UNL     1       3.357  14.593  19.022  0.00  0.00    +0.000 OA
ATOM     27  N   UNL     1       4.842  14.849  20.773  0.00  0.00    +0.000 N 
ATOM     28  C   UNL     1       5.877  15.458  19.930  0.00  0.00    +0.000 C 
ATOM     29  C   UNL     1       7.275  14.987  20.361  0.00  0.00    +0.000 C 
ATOM     30  O   UNL     1       7.505  15.225  21.760  0.00  0.00    +0.000 OA
ATOM     31  C   UNL     1       6.528  14.541  22.553  0.00  0.00    +0.000 C 
ATOM     32  C   UNL     1       5.116  15.016  22.208  0.00  0.00    +0.000 C 
ATOM     33  H   UNL     1       3.022  13.765  22.039  0.00  0.00    +0.000 HD
ENDBRANCH  23  24
BRANCH  23  34
ATOM     34  C   UNL     1       0.472  14.103  21.982  0.00  0.00    +0.000 C 
BRANCH  34  36
ATOM     35  C   UNL     1      -1.319  15.117  20.505  0.00  0.00    +0.000 C 
ATOM     36  C   UNL     1      -1.020  14.142  21.632  0.00  0.00    +0.000 C 
ENDBRANCH  34  36
ENDBRANCH  23  34
ENDBRANCH   1  23
TORSDOF 6
ENDMDL
MODEL 6
REMARK VINA RESULT:      -6.8      2.220      2.951
REMARK  Name = 
REMARK  7 active torsions:
REMARK  status: ('A' for Active; 'I' for Inactive)
REMARK    1  A    between atoms: C_1  and  C_2
REMARK    2  A    between atoms: C_2  and  C_3
REMARK    3  A    between atoms: C_3  and  C_4
REMARK    4  A    between atoms: C_4  and  N_5
REMARK    5  A    between atoms: C_4  and  C_14
REMARK    6  A    between atoms: C_20  and  C_21
REMARK    7  A    between atoms: C_26  and  C_27
REMARK                            x       y       z     vdW  Elec       q    Type
REMARK                         _______ _______ _______ _____ _____    ______ ____
ROOT
ATOM      1  C   UNL     1       1.569  13.766  20.816  0.00  0.00    +0.000 C 
ATOM      2  O   UNL     1       2.469  13.362  21.544  0.00  0.00    +0.000 OA
ATOM      3  N   UNL     1       0.338  13.123  20.765  0.00  0.00    +0.000 N 
ATOM      4  C   UNL     1      -0.831  13.457  19.970  0.00  0.00    +0.000 C 
ATOM      5  C   UNL     1      -1.980  13.162  20.911  0.00  0.00    +0.000 C 
ATOM      6  C   UNL     1      -1.506  11.941  21.694  0.00  0.00    +0.000 C 
ATOM      7  C   UNL     1       0.025  12.040  21.713  0.00  0.00    +0.000 C 
ENDROOT
BRANCH   7   8
ATOM      8  C   UNL     1       0.639  10.684  21.331  0.00  0.00    +0.000 C 
ATOM      9  O   UNL     1       0.816   9.833  22.202  0.00  0.00    +0.000 OA
ATOM     10  N   UNL     1       0.810  10.515  19.972  0.00  0.00    +0.000 N 
ATOM     11  C   UNL     1       1.351   9.369  19.471  0.00  0.00    +0.000 A 
ATOM     12  N   UNL     1       1.514   8.226  20.074  0.00  0.00    +0.000 NA
ATOM     13  C   UNL     1       2.200   7.355  19.253  0.00  0.00    +0.000 A 
ATOM     14  C   UNL     1       2.544   7.878  18.021  0.00  0.00    +0.000 A 
ATOM     15  S   UNL     1       1.903   9.468  17.862  0.00  0.00    +0.000 S 
ATOM     16  H   UNL     1       0.777  11.319  19.361  0.00  0.00    +0.000 HD
BRANCH  13  17
ATOM     17  C   UNL     1       2.529   6.016  19.719  0.00  0.00    +0.000 A 
ATOM     18  C   UNL     1       3.604   5.298  19.184  0.00  0.00    +0.000 A 
ATOM     19  C   UNL     1       3.866   3.996  19.613  0.00  0.00    +0.000 A 
ATOM     20  C   UNL     1       3.058   3.403  20.582  0.00  0.00    +0.000 A 
ATOM     21  C   UNL     1       1.990   4.110  21.128  0.00  0.00    +0.000 A 
ATOM     22  C   UNL     1       1.724   5.410  20.697  0.00  0.00    +0.000 A 
ENDBRANCH  13  17
ENDBRANCH   7   8
BRANCH   1  23
ATOM     23  C   UNL     1       1.710  15.071  19.997  0.00  0.00    +0.000 C 
BRANCH  23  24
ATOM     24  N   UNL     1       3.098  15.420  19.710  0.00  0.00    +0.000 N 
ATOM     25  C   UNL     1       3.903  14.762  18.828  0.00  0.00    +0.000 C 
ATOM     26  O   UNL     1       3.540  13.723  18.282  0.00  0.00    +0.000 OA
ATOM     27  N   UNL     1       5.125  15.374  18.597  0.00  0.00    +0.000 N 
ATOM     28  C   UNL     1       6.061  14.790  17.629  0.00  0.00    +0.000 C 
ATOM     29  C   UNL     1       7.511  14.947  18.114  0.00  0.00    +0.000 C 
ATOM     30  O   UNL     1       7.823  16.319  18.412  0.00  0.00    +0.000 OA
ATOM     31  C   UNL     1       6.945  16.825  19.424  0.00  0.00    +0.000 C 
ATOM     32  C   UNL     1       5.488  16.749  18.970  0.00  0.00    +0.000 C 
ATOM     33  H   UNL     1       3.464  16.196  20.226  0.00  0.00    +0.000 HD
ENDBRANCH  23  24
BRANCH  23  34
ATOM     34  C   UNL     1       1.092  16.217  20.824  0.00  0.00    +0.000 C 
BRANCH  34  36
ATOM     35  C   UNL     1       0.162  17.182  18.675  0.00  0.00    +0.000 C 
ATOM     36  C   UNL     1      -0.121  16.847  20.130  0.00  0.00    +0.000 C 
ENDBRANCH  34  36
ENDBRANCH  23  34
ENDBRANCH   1  23
TORSDOF 6
ENDMDL
MODEL 7
REMARK VINA RESULT:      -6.8      3.766      5.681
REMARK  Name = 
REMARK  7 active torsions:
REMARK  status: ('A' for Active; 'I' for Inactive)
REMARK    1  A    between atoms: C_1  and  C_2
REMARK    2  A    between atoms: C_2  and  C_3
REMARK    3  A    between atoms: C_3  and  C_4
REMARK    4  A    between atoms: C_4  and  N_5
REMARK    5  A    between atoms: C_4  and  C_14
REMARK    6  A    between atoms: C_20  and  C_21
REMARK    7  A    between atoms: C_26  and  C_27
REMARK                            x       y       z     vdW  Elec       q    Type
REMARK                         _______ _______ _______ _____ _____    ______ ____
ROOT
ATOM      1  C   UNL     1      -0.191  11.043  19.142  0.00  0.00    +0.000 C 
ATOM      2  O   UNL     1       0.807  11.431  18.546  0.00  0.00    +0.000 OA
ATOM      3  N   UNL     1      -0.103  10.099  20.157  0.00  0.00    +0.000 N 
ATOM      4  C   UNL     1      -1.168   9.527  20.963  0.00  0.00    +0.000 C 
ATOM      5  C   UNL     1      -0.536   9.413  22.334  0.00  0.00    +0.000 C 
ATOM      6  C   UNL     1       0.918   9.057  22.036  0.00  0.00    +0.000 C 
ATOM      7  C   UNL     1       1.212   9.667  20.660  0.00  0.00    +0.000 C 
ENDROOT
BRANCH   7   8
ATOM      8  C   UNL     1       1.908   8.628  19.768  0.00  0.00    +0.000 C 
ATOM      9  O   UNL     1       2.406   8.983  18.701  0.00  0.00    +0.000 OA
ATOM     10  N   UNL     1       2.016   7.381  20.350  0.00  0.00    +0.000 N 
ATOM     11  C   UNL     1       2.601   6.345  19.684  0.00  0.00    +0.000 A 
ATOM     12  N   UNL     1       3.352   6.395  18.621  0.00  0.00    +0.000 NA
ATOM     13  C   UNL     1       3.652   5.117  18.197  0.00  0.00    +0.000 A 
ATOM     14  C   UNL     1       3.106   4.112  18.973  0.00  0.00    +0.000 A 
ATOM     15  S   UNL     1       2.278   4.797  20.318  0.00  0.00    +0.000 S 
ATOM     16  H   UNL     1       1.448   7.154  21.154  0.00  0.00    +0.000 HD
BRANCH  13  17
ATOM     17  C   UNL     1       4.461   4.912  17.005  0.00  0.00    +0.000 A 
ATOM     18  C   UNL     1       4.870   3.635  16.607  0.00  0.00    +0.000 A 
ATOM     19  C   UNL     1       5.687   3.471  15.489  0.00  0.00    +0.000 A 
ATOM     20  C   UNL     1       6.100   4.583  14.755  0.00  0.00    +0.000 A 
ATOM     21  C   UNL     1       5.693   5.860  15.136  0.00  0.00    +0.000 A 
ATOM     22  C   UNL     1       4.880   6.025  16.257  0.00  0.00    +0.000 A 
ENDBRANCH  13  17
ENDBRANCH   7   8
BRANCH   1  23
ATOM     23  C   UNL     1      -1.586  11.655  18.875  0.00  0.00    +0.000 C 
BRANCH  23  24
ATOM     24  N   UNL     1      -2.242  12.137  20.086  0.00  0.00    +0.000 N 
ATOM     25  C   UNL     1      -2.177  13.416  20.554  0.00  0.00    +0.000 C 
ATOM     26  O   UNL     1      -1.440  14.251  20.035  0.00  0.00    +0.000 OA
ATOM     27  N   UNL     1      -3.014  13.680  21.627  0.00  0.00    +0.000 N 
ATOM     28  C   UNL     1      -3.072  15.034  22.191  0.00  0.00    +0.000 C 
ATOM     29  C   UNL     1      -3.228  14.980  23.718  0.00  0.00    +0.000 C 
ATOM     30  O   UNL     1      -4.359  14.181  24.106  0.00  0.00    +0.000 OA
ATOM     31  C   UNL     1      -4.222  12.844  23.613  0.00  0.00    +0.000 C 
ATOM     32  C   UNL     1      -4.123  12.832  22.088  0.00  0.00    +0.000 C 
ATOM     33  H   UNL     1      -2.760  11.451  20.600  0.00  0.00    +0.000 HD
ENDBRANCH  23  24
BRANCH  23  34
ATOM     34  C   UNL     1      -2.475  10.556  18.257  0.00  0.00    +0.000 C 
BRANCH  34  36
ATOM     35  C   UNL     1      -2.917   9.819  15.874  0.00  0.00    +0.000 C 
ATOM     36  C   UNL     1      -1.876   9.978  16.970  0.00  0.00    +0.000 C 
ENDBRANCH  34  36
ENDBRANCH  23  34
ENDBRANCH   1  23
TORSDOF 6
ENDMDL
MODEL 8
REMARK VINA RESULT:      -6.8      1.039      1.160
REMARK  Name = 
REMARK  7 active torsions:
REMARK  status: ('A' for Active; 'I' for Inactive)
REMARK    1  A    between atoms: C_1  and  C_2
REMARK    2  A    between atoms: C_2  and  C_3
REMARK    3  A    between atoms: C_3  and  C_4
REMARK    4  A    between atoms: C_4  and  N_5
REMARK    5  A    between atoms: C_4  and  C_14
REMARK    6  A    between atoms: C_20  and  C_21
REMARK    7  A    between atoms: C_26  and  C_27
REMARK                            x       y       z     vdW  Elec       q    Type
REMARK                         _______ _______ _______ _____ _____    ______ ____
ROOT
ATOM      1  C   UNL     1       1.406  12.757  19.988  0.00  0.00    +0.000 C 
ATOM      2  O   UNL     1       2.002  12.103  20.837  0.00  0.00    +0.000 OA
ATOM      3  N   UNL     1       0.379  12.199  19.237  0.00  0.00    +0.000 N 
ATOM      4  C   UNL     1      -0.429  12.816  18.200  0.00  0.00    +0.000 C 
ATOM      5  C   UNL     1      -1.803  12.230  18.443  0.00  0.00    +0.000 C 
ATOM      6  C   UNL     1      -1.516  10.801  18.896  0.00  0.00    +0.000 C 
ATOM      7  C   UNL     1      -0.134  10.856  19.560  0.00  0.00    +0.000 C 
ENDROOT
BRANCH   7   8
ATOM      8  C   UNL     1       0.743   9.711  19.030  0.00  0.00    +0.000 C 
ATOM      9  O   UNL     1       1.164   9.756  17.876  0.00  0.00    +0.000 OA
ATOM     10  N   UNL     1       1.084   8.783  19.993  0.00  0.00    +0.000 N 
ATOM     11  C   UNL     1       1.852   7.701  19.682  0.00  0.00    +0.000 A 
ATOM     12  N   UNL     1       2.579   7.510  18.618  0.00  0.00    +0.000 NA
ATOM     13  C   UNL     1       3.113   6.238  18.635  0.00  0.00    +0.000 A 
ATOM     14  C   UNL     1       2.766   5.485  19.741  0.00  0.00    +0.000 A 
ATOM     15  S   UNL     1       1.826   6.437  20.825  0.00  0.00    +0.000 S 
ATOM     16  H   UNL     1       0.570   8.753  20.862  0.00  0.00    +0.000 HD
BRANCH  13  17
ATOM     17  C   UNL     1       3.943   5.778  17.532  0.00  0.00    +0.000 A 
ATOM     18  C   UNL     1       4.118   4.416  17.265  0.00  0.00    +0.000 A 
ATOM     19  C   UNL     1       4.961   4.001  16.233  0.00  0.00    +0.000 A 
ATOM     20  C   UNL     1       5.633   4.944  15.458  0.00  0.00    +0.000 A 
ATOM     21  C   UNL     1       5.462   6.303  15.709  0.00  0.00    +0.000 A 
ATOM     22  C   UNL     1       4.624   6.719  16.743  0.00  0.00    +0.000 A 
ENDBRANCH  13  17
ENDBRANCH   7   8
BRANCH   1  23
ATOM     23  C   UNL     1       1.685  14.264  19.780  0.00  0.00    +0.000 C 
BRANCH  23  24
ATOM     24  N   UNL     1       3.106  14.595  19.820  0.00  0.00    +0.000 N 
ATOM     25  C   UNL     1       3.676  15.667  19.199  0.00  0.00    +0.000 C 
ATOM     26  O   UNL     1       3.030  16.386  18.441  0.00  0.00    +0.000 OA
ATOM     27  N   UNL     1       5.010  15.872  19.515  0.00  0.00    +0.000 N 
ATOM     28  C   UNL     1       5.724  17.023  18.949  0.00  0.00    +0.000 C 
ATOM     29  C   UNL     1       7.177  16.650  18.615  0.00  0.00    +0.000 C 
ATOM     30  O   UNL     1       7.856  16.096  19.755  0.00  0.00    +0.000 OA
ATOM     31  C   UNL     1       7.179  14.924  20.222  0.00  0.00    +0.000 C 
ATOM     32  C   UNL     1       5.741  15.250  20.628  0.00  0.00    +0.000 C 
ATOM     33  H   UNL     1       3.683  13.961  20.337  0.00  0.00    +0.000 HD
ENDBRANCH  23  24
BRANCH  23  34
ATOM     34  C   UNL     1       0.984  15.036  20.917  0.00  0.00    +0.000 C 
BRANCH  34  36
ATOM     35  C   UNL     1       0.379  17.495  20.956  0.00  0.00    +0.000 C 
ATOM     36  C   UNL     1       0.045  16.126  20.388  0.00  0.00    +0.000 C 
ENDBRANCH  34  36
ENDBRANCH  23  34
ENDBRANCH   1  23
TORSDOF 6
ENDMDL
MODEL 9
REMARK VINA RESULT:      -6.8      4.358      9.236
REMARK  Name = 
REMARK  7 active torsions:
REMARK  status: ('A' for Active; 'I' for Inactive)
REMARK    1  A    between atoms: C_1  and  C_2
REMARK    2  A    between atoms: C_2  and  C_3
REMARK    3  A    between atoms: C_3  and  C_4
REMARK    4  A    between atoms: C_4  and  N_5
REMARK    5  A    between atoms: C_4  and  C_14
REMARK    6  A    between atoms: C_20  and  C_21
REMARK    7  A    between atoms: C_26  and  C_27
REMARK                            x       y       z     vdW  Elec       q    Type
REMARK                         _______ _______ _______ _____ _____    ______ ____
ROOT
ATOM      1  C   UNL     1       1.694   7.219  20.292  0.00  0.00    +0.000 C 
ATOM      2  O   UNL     1       1.303   7.755  21.323  0.00  0.00    +0.000 OA
ATOM      3  N   UNL     1       1.803   7.932  19.105  0.00  0.00    +0.000 N 
ATOM      4  C   UNL     1       2.243   7.466  17.801  0.00  0.00    +0.000 C 
ATOM      5  C   UNL     1       3.037   8.640  17.268  0.00  0.00    +0.000 C 
ATOM      6  C   UNL     1       2.284   9.859  17.795  0.00  0.00    +0.000 C 
ATOM      7  C   UNL     1       1.615   9.393  19.094  0.00  0.00    +0.000 C 
ENDROOT
BRANCH   7   8
ATOM      8  C   UNL     1       0.142   9.829  19.106  0.00  0.00    +0.000 C 
ATOM      9  O   UNL     1      -0.398  10.109  20.175  0.00  0.00    +0.000 OA
ATOM     10  N   UNL     1      -0.399   9.992  17.846  0.00  0.00    +0.000 N 
ATOM     11  C   UNL     1      -1.699  10.368  17.685  0.00  0.00    +0.000 A 
ATOM     12  N   UNL     1      -2.504  10.879  18.572  0.00  0.00    +0.000 NA
ATOM     13  C   UNL     1      -3.768  11.016  18.037  0.00  0.00    +0.000 A 
ATOM     14  C   UNL     1      -3.885  10.594  16.726  0.00  0.00    +0.000 A 
ATOM     15  S   UNL     1      -2.345  10.105  16.131  0.00  0.00    +0.000 S 
ATOM     16  H   UNL     1       0.072   9.595  17.046  0.00  0.00    +0.000 HD
BRANCH  13  17
ATOM     17  C   UNL     1      -4.854  11.543  18.850  0.00  0.00    +0.000 A 
ATOM     18  C   UNL     1      -4.614  12.432  19.903  0.00  0.00    +0.000 A 
ATOM     19  C   UNL     1      -5.668  12.883  20.700  0.00  0.00    +0.000 A 
ATOM     20  C   UNL     1      -6.969  12.451  20.448  0.00  0.00    +0.000 A 
ATOM     21  C   UNL     1      -7.222  11.572  19.398  0.00  0.00    +0.000 A 
ATOM     22  C   UNL     1      -6.169  11.117  18.604  0.00  0.00    +0.000 A 
ENDBRANCH  13  17
ENDBRANCH   7   8
BRANCH   1  23
ATOM     23  C   UNL     1       2.190   5.754  20.277  0.00  0.00    +0.000 C 
BRANCH  23  24
ATOM     24  N   UNL     1       3.038   5.447  19.130  0.00  0.00    +0.000 N 
ATOM     25  C   UNL     1       4.377   5.197  19.193  0.00  0.00    +0.000 C 
ATOM     26  O   UNL     1       5.005   5.332  20.240  0.00  0.00    +0.000 OA
ATOM     27  N   UNL     1       4.939   4.767  18.001  0.00  0.00    +0.000 N 
ATOM     28  C   UNL     1       6.363   4.417  17.951  0.00  0.00    +0.000 C 
ATOM     29  C   UNL     1       6.983   4.851  16.613  0.00  0.00    +0.000 C 
ATOM     30  O   UNL     1       6.252   4.317  15.495  0.00  0.00    +0.000 OA
ATOM     31  C   UNL     1       4.889   4.754  15.531  0.00  0.00    +0.000 C 
ATOM     32  C   UNL     1       4.203   4.296  16.818  0.00  0.00    +0.000 C 
ATOM     33  H   UNL     1       2.578   5.442  18.241  0.00  0.00    +0.000 HD
ENDBRANCH  23  24
BRANCH  23  34
ATOM     34  C   UNL     1       0.951   4.836  20.212  0.00  0.00    +0.000 C 
BRANCH  34  36
ATOM     35  C   UNL     1       1.838   2.913  21.600  0.00  0.00    +0.000 C 
ATOM     36  C   UNL     1       1.324   3.350  20.238  0.00  0.00    +0.000 C 
ENDBRANCH  34  36
ENDBRANCH  23  34
ENDBRANCH   1  23
TORSDOF 6
ENDMDL
