MODEL 1
REMARK VINA RESULT:      -6.7      0.000      0.000
REMARK  Name = 
REMARK  2 active torsions:
REMARK  status: ('A' for Active; 'I' for Inactive)
REMARK    1  A    between atoms: O_1  and  C_2
REMARK    2  A    between atoms: C_5  and  C_6
REMARK                            x       y       z     vdW  Elec       q    Type
REMARK                         _______ _______ _______ _____ _____    ______ ____
ROOT
ATOM      1  C   UNL     1       6.879   5.732  18.144  0.00  0.00    +0.000 A 
ATOM      2  C   UNL     1       6.116   5.422  19.268  0.00  0.00    +0.000 A 
ATOM      3  C   UNL     1       5.039   4.556  19.143  0.00  0.00    +0.000 A 
ATOM      4  C   UNL     1       4.718   3.990  17.897  0.00  0.00    +0.000 A 
ATOM      5  C   UNL     1       5.509   4.306  16.755  0.00  0.00    +0.000 A 
ATOM      6  C   UNL     1       5.263   3.774  15.470  0.00  0.00    +0.000 A 
ATOM      7  C   UNL     1       6.065   4.118  14.388  0.00  0.00    +0.000 A 
ATOM      8  C   UNL     1       7.102   4.993  14.612  0.00  0.00    +0.000 A 
ATOM      9  N   UNL     1       7.378   5.525  15.818  0.00  0.00    +0.000 NA
ATOM     10  C   UNL     1       6.605   5.195  16.878  0.00  0.00    +0.000 A 
ENDROOT
BRANCH   4  11
ATOM     11  C   UNL     1       3.531   3.060  17.801  0.00  0.00    +0.000 C 
ATOM     12  F   UNL     1       2.651   3.401  16.816  0.00  0.00    +0.000 F 
ATOM     13  F   UNL     1       3.889   1.771  17.537  0.00  0.00    +0.000 F 
ATOM     14  F   UNL     1       2.795   3.019  18.947  0.00  0.00    +0.000 F 
ENDBRANCH   4  11
BRANCH   1  15
ATOM     15  O   UNL     1       7.939   6.599  18.285  0.00  0.00    +0.000 OA
ATOM     16  H   UNL     1       7.632   7.434  18.668  0.00  0.00    +0.000 HD
ENDBRANCH   1  15
TORSDOF 2
ENDMDL
MODEL 2
REMARK VINA RESULT:      -6.5      3.142      3.847
REMARK  Name = 
REMARK  2 active torsions:
REMARK  status: ('A' for Active; 'I' for Inactive)
REMARK    1  A    between atoms: O_1  and  C_2
REMARK    2  A    between atoms: C_5  and  C_6
REMARK                            x       y       z     vdW  Elec       q    Type
REMARK                         _______ _______ _______ _____ _____    ______ ____
ROOT
ATOM      1  C   UNL     1       5.123   3.882  18.955  0.00  0.00    +0.000 A 
ATOM      2  C   UNL     1       4.712   2.761  19.674  0.00  0.00    +0.000 A 
ATOM      3  C   UNL     1       3.400   2.682  20.121  0.00  0.00    +0.000 A 
ATOM      4  C   UNL     1       2.489   3.718  19.851  0.00  0.00    +0.000 A 
ATOM      5  C   UNL     1       2.917   4.856  19.107  0.00  0.00    +0.000 A 
ATOM      6  C   UNL     1       2.066   5.935  18.782  0.00  0.00    +0.000 A 
ATOM      7  C   UNL     1       2.535   7.023  18.056  0.00  0.00    +0.000 A 
ATOM      8  C   UNL     1       3.854   7.013  17.667  0.00  0.00    +0.000 A 
ATOM      9  N   UNL     1       4.704   6.007  17.950  0.00  0.00    +0.000 NA
ATOM     10  C   UNL     1       4.256   4.942  18.655  0.00  0.00    +0.000 A 
ENDROOT
BRANCH   4  11
ATOM     11  C   UNL     1       1.073   3.599  20.365  0.00  0.00    +0.000 C 
ATOM     12  F   UNL     1       0.504   4.799  20.672  0.00  0.00    +0.000 F 
ATOM     13  F   UNL     1       0.231   3.018  19.464  0.00  0.00    +0.000 F 
ATOM     14  F   UNL     1       0.983   2.852  21.501  0.00  0.00    +0.000 F 
ENDBRANCH   4  11
BRANCH   1  15
ATOM     15  O   UNL     1       6.429   3.946  18.525  0.00  0.00    +0.000 OA
ATOM     16  H   UNL     1       7.020   4.060  19.284  0.00  0.00    +0.000 HD
ENDBRANCH   1  15
TORSDOF 2
ENDMDL
MODEL 3
REMARK VINA RESULT:      -6.4      2.841      3.603
REMARK  Name = 
REMARK  2 active torsions:
REMARK  status: ('A' for Active; 'I' for Inactive)
REMARK    1  A    between atoms: O_1  and  C_2
REMARK    2  A    between atoms: C_5  and  C_6
REMARK                            x       y       z     vdW  Elec       q    Type
REMARK                         _______ _______ _______ _____ _____    ______ ____
ROOT
ATOM      1  C   UNL     1       2.348   6.228  19.823  0.00  0.00    +0.000 A 
ATOM      2  C   UNL     1       1.640   5.256  20.527  0.00  0.00    +0.000 A 
ATOM      3  C   UNL     1       1.716   3.930  20.121  0.00  0.00    +0.000 A 
ATOM      4  C   UNL     1       2.501   3.565  19.014  0.00  0.00    +0.000 A 
ATOM      5  C   UNL     1       3.228   4.566  18.306  0.00  0.00    +0.000 A 
ATOM      6  C   UNL     1       4.048   4.285  17.191  0.00  0.00    +0.000 A 
ATOM      7  C   UNL     1       4.735   5.299  16.534  0.00  0.00    +0.000 A 
ATOM      8  C   UNL     1       4.587   6.583  17.006  0.00  0.00    +0.000 A 
ATOM      9  N   UNL     1       3.819   6.900  18.065  0.00  0.00    +0.000 NA
ATOM     10  C   UNL     1       3.148   5.920  18.714  0.00  0.00    +0.000 A 
ENDROOT
BRANCH   4  11
ATOM     11  C   UNL     1       2.548   2.114  18.598  0.00  0.00    +0.000 C 
ATOM     12  F   UNL     1       3.767   1.532  18.789  0.00  0.00    +0.000 F 
ATOM     13  F   UNL     1       1.664   1.338  19.286  0.00  0.00    +0.000 F 
ATOM     14  F   UNL     1       2.261   1.931  17.278  0.00  0.00    +0.000 F 
ENDBRANCH   4  11
BRANCH   1  15
ATOM     15  O   UNL     1       2.256   7.539  20.235  0.00  0.00    +0.000 OA
ATOM     16  H   UNL     1       3.131   7.953  20.211  0.00  0.00    +0.000 HD
ENDBRANCH   1  15
TORSDOF 2
ENDMDL
MODEL 4
REMARK VINA RESULT:      -6.4      3.327      4.553
REMARK  Name = 
REMARK  2 active torsions:
REMARK  status: ('A' for Active; 'I' for Inactive)
REMARK    1  A    between atoms: O_1  and  C_2
REMARK    2  A    between atoms: C_5  and  C_6
REMARK                            x       y       z     vdW  Elec       q    Type
REMARK                         _______ _______ _______ _____ _____    ______ ____
ROOT
ATOM      1  C   UNL     1       5.061   4.330  16.705  0.00  0.00    +0.000 A 
ATOM      2  C   UNL     1       5.517   5.641  16.584  0.00  0.00    +0.000 A 
ATOM      3  C   UNL     1       4.735   6.682  17.065  0.00  0.00    +0.000 A 
ATOM      4  C   UNL     1       3.496   6.422  17.675  0.00  0.00    +0.000 A 
ATOM      5  C   UNL     1       3.042   5.078  17.802  0.00  0.00    +0.000 A 
ATOM      6  C   UNL     1       1.816   4.728  18.409  0.00  0.00    +0.000 A 
ATOM      7  C   UNL     1       1.418   3.399  18.506  0.00  0.00    +0.000 A 
ATOM      8  C   UNL     1       2.258   2.440  17.989  0.00  0.00    +0.000 A 
ATOM      9  N   UNL     1       3.436   2.724  17.403  0.00  0.00    +0.000 NA
ATOM     10  C   UNL     1       3.834   4.014  17.306  0.00  0.00    +0.000 A 
ENDROOT
BRANCH   4  11
ATOM     11  C   UNL     1       2.670   7.584  18.176  0.00  0.00    +0.000 C 
ATOM     12  F   UNL     1       1.437   7.663  17.600  0.00  0.00    +0.000 F 
ATOM     13  F   UNL     1       2.441   7.529  19.518  0.00  0.00    +0.000 F 
ATOM     14  F   UNL     1       3.258   8.791  17.943  0.00  0.00    +0.000 F 
ENDBRANCH   4  11
BRANCH   1  15
ATOM     15  O   UNL     1       5.846   3.310  16.216  0.00  0.00    +0.000 OA
ATOM     16  H   UNL     1       5.289   2.642  15.790  0.00  0.00    +0.000 HD
ENDBRANCH   1  15
TORSDOF 2
ENDMDL
MODEL 5
REMARK VINA RESULT:      -6.4      3.101      3.920
REMARK  Name = 
REMARK  2 active torsions:
REMARK  status: ('A' for Active; 'I' for Inactive)
REMARK    1  A    between atoms: O_1  and  C_2
REMARK    2  A    between atoms: C_5  and  C_6
REMARK                            x       y       z     vdW  Elec       q    Type
REMARK                         _______ _______ _______ _____ _____    ______ ____
ROOT
ATOM      1  C   UNL     1       5.146   3.944  18.887  0.00  0.00    +0.000 A 
ATOM      2  C   UNL     1       4.726   2.837  19.620  0.00  0.00    +0.000 A 
ATOM      3  C   UNL     1       3.420   2.785  20.088  0.00  0.00    +0.000 A 
ATOM      4  C   UNL     1       2.524   3.835  19.824  0.00  0.00    +0.000 A 
ATOM      5  C   UNL     1       2.961   4.959  19.065  0.00  0.00    +0.000 A 
ATOM      6  C   UNL     1       2.124   6.052  18.746  0.00  0.00    +0.000 A 
ATOM      7  C   UNL     1       2.601   7.126  18.005  0.00  0.00    +0.000 A 
ATOM      8  C   UNL     1       3.914   7.089  17.595  0.00  0.00    +0.000 A 
ATOM      9  N   UNL     1       4.750   6.070  17.873  0.00  0.00    +0.000 NA
ATOM     10  C   UNL     1       4.294   5.018  18.592  0.00  0.00    +0.000 A 
ENDROOT
BRANCH   4  11
ATOM     11  C   UNL     1       1.115   3.746  20.361  0.00  0.00    +0.000 C 
ATOM     12  F   UNL     1       0.995   2.923  21.442  0.00  0.00    +0.000 F 
ATOM     13  F   UNL     1       0.626   4.952  20.767  0.00  0.00    +0.000 F 
ATOM     14  F   UNL     1       0.227   3.270  19.442  0.00  0.00    +0.000 F 
ENDBRANCH   4  11
BRANCH   1  15
ATOM     15  O   UNL     1       6.447   3.982  18.436  0.00  0.00    +0.000 OA
ATOM     16  H   UNL     1       6.521   3.492  17.604  0.00  0.00    +0.000 HD
ENDBRANCH   1  15
TORSDOF 2
ENDMDL
MODEL 6
REMARK VINA RESULT:      -6.4      3.179      4.069
REMARK  Name = 
REMARK  2 active torsions:
REMARK  status: ('A' for Active; 'I' for Inactive)
REMARK    1  A    between atoms: O_1  and  C_2
REMARK    2  A    between atoms: C_5  and  C_6
REMARK                            x       y       z     vdW  Elec       q    Type
REMARK                         _______ _______ _______ _____ _____    ______ ____
ROOT
ATOM      1  C   UNL     1       4.285   3.396  17.399  0.00  0.00    +0.000 A 
ATOM      2  C   UNL     1       3.851   2.235  18.035  0.00  0.00    +0.000 A 
ATOM      3  C   UNL     1       2.944   2.329  19.082  0.00  0.00    +0.000 A 
ATOM      4  C   UNL     1       2.461   3.582  19.498  0.00  0.00    +0.000 A 
ATOM      5  C   UNL     1       2.904   4.763  18.835  0.00  0.00    +0.000 A 
ATOM      6  C   UNL     1       2.462   6.059  19.182  0.00  0.00    +0.000 A 
ATOM      7  C   UNL     1       2.928   7.180  18.505  0.00  0.00    +0.000 A 
ATOM      8  C   UNL     1       3.834   6.983  17.489  0.00  0.00    +0.000 A 
ATOM      9  N   UNL     1       4.284   5.768  17.120  0.00  0.00    +0.000 NA
ATOM     10  C   UNL     1       3.834   4.671  17.771  0.00  0.00    +0.000 A 
ENDROOT
BRANCH   4  11
ATOM     11  C   UNL     1       1.483   3.643  20.648  0.00  0.00    +0.000 C 
ATOM     12  F   UNL     1       0.337   4.320  20.353  0.00  0.00    +0.000 F 
ATOM     13  F   UNL     1       1.079   2.410  21.064  0.00  0.00    +0.000 F 
ATOM     14  F   UNL     1       1.997   4.262  21.748  0.00  0.00    +0.000 F 
ENDBRANCH   4  11
BRANCH   1  15
ATOM     15  O   UNL     1       5.190   3.285  16.367  0.00  0.00    +0.000 OA
ATOM     16  H   UNL     1       4.974   3.921  15.670  0.00  0.00    +0.000 HD
ENDBRANCH   1  15
TORSDOF 2
ENDMDL
MODEL 7
REMARK VINA RESULT:      -6.4      3.842      5.370
REMARK  Name = 
REMARK  2 active torsions:
REMARK  status: ('A' for Active; 'I' for Inactive)
REMARK    1  A    between atoms: O_1  and  C_2
REMARK    2  A    between atoms: C_5  and  C_6
REMARK                            x       y       z     vdW  Elec       q    Type
REMARK                         _______ _______ _______ _____ _____    ______ ____
ROOT
ATOM      1  C   UNL     1       3.863   2.778  17.895  0.00  0.00    +0.000 A 
ATOM      2  C   UNL     1       4.482   3.702  17.055  0.00  0.00    +0.000 A 
ATOM      3  C   UNL     1       4.156   5.047  17.165  0.00  0.00    +0.000 A 
ATOM      4  C   UNL     1       3.216   5.479  18.116  0.00  0.00    +0.000 A 
ATOM      5  C   UNL     1       2.595   4.528  18.976  0.00  0.00    +0.000 A 
ATOM      6  C   UNL     1       1.649   4.877  19.965  0.00  0.00    +0.000 A 
ATOM      7  C   UNL     1       1.071   3.908  20.777  0.00  0.00    +0.000 A 
ATOM      8  C   UNL     1       1.451   2.600  20.583  0.00  0.00    +0.000 A 
ATOM      9  N   UNL     1       2.350   2.218  19.656  0.00  0.00    +0.000 NA
ATOM     10  C   UNL     1       2.921   3.154  18.862  0.00  0.00    +0.000 A 
ENDROOT
BRANCH   4  11
ATOM     11  C   UNL     1       2.881   6.950  18.196  0.00  0.00    +0.000 C 
ATOM     12  F   UNL     1       1.663   7.261  17.667  0.00  0.00    +0.000 F 
ATOM     13  F   UNL     1       2.850   7.416  19.477  0.00  0.00    +0.000 F 
ATOM     14  F   UNL     1       3.776   7.734  17.533  0.00  0.00    +0.000 F 
ENDBRANCH   4  11
BRANCH   1  15
ATOM     15  O   UNL     1       4.193   1.447  17.768  0.00  0.00    +0.000 OA
ATOM     16  H   UNL     1       3.394   0.924  17.605  0.00  0.00    +0.000 HD
ENDBRANCH   1  15
TORSDOF 2
ENDMDL
MODEL 8
REMARK VINA RESULT:      -6.4      2.862      4.045
REMARK  Name = 
REMARK  2 active torsions:
REMARK  status: ('A' for Active; 'I' for Inactive)
REMARK    1  A    between atoms: O_1  and  C_2
REMARK    2  A    between atoms: C_5  and  C_6
REMARK                            x       y       z     vdW  Elec       q    Type
REMARK                         _______ _______ _______ _____ _____    ______ ____
ROOT
ATOM      1  C   UNL     1       4.746   3.602  18.816  0.00  0.00    +0.000 A 
ATOM      2  C   UNL     1       3.998   3.168  17.723  0.00  0.00    +0.000 A 
ATOM      3  C   UNL     1       4.281   3.671  16.461  0.00  0.00    +0.000 A 
ATOM      4  C   UNL     1       5.315   4.606  16.280  0.00  0.00    +0.000 A 
ATOM      5  C   UNL     1       6.081   5.036  17.402  0.00  0.00    +0.000 A 
ATOM      6  C   UNL     1       7.142   5.963  17.307  0.00  0.00    +0.000 A 
ATOM      7  C   UNL     1       7.856   6.352  18.435  0.00  0.00    +0.000 A 
ATOM      8  C   UNL     1       7.491   5.805  19.643  0.00  0.00    +0.000 A 
ATOM      9  N   UNL     1       6.489   4.917  19.784  0.00  0.00    +0.000 NA
ATOM     10  C   UNL     1       5.790   4.530  18.692  0.00  0.00    +0.000 A 
ENDROOT
BRANCH   4  11
ATOM     11  C   UNL     1       5.585   5.137  14.891  0.00  0.00    +0.000 C 
ATOM     12  F   UNL     1       6.909   5.164  14.567  0.00  0.00    +0.000 F 
ATOM     13  F   UNL     1       4.987   4.396  13.917  0.00  0.00    +0.000 F 
ATOM     14  F   UNL     1       5.142   6.414  14.718  0.00  0.00    +0.000 F 
ENDBRANCH   4  11
BRANCH   1  15
ATOM     15  O   UNL     1       4.447   3.098  20.062  0.00  0.00    +0.000 OA
ATOM     16  H   UNL     1       5.142   2.485  20.345  0.00  0.00    +0.000 HD
ENDBRANCH   1  15
TORSDOF 2
ENDMDL
MODEL 9
REMARK VINA RESULT:      -6.3      1.321      2.920
REMARK  Name = 
REMARK  2 active torsions:
REMARK  status: ('A' for Active; 'I' for Inactive)
REMARK    1  A    between atoms: O_1  and  C_2
REMARK    2  A    between atoms: C_5  and  C_6
REMARK                            x       y       z     vdW  Elec       q    Type
REMARK                         _______ _______ _______ _____ _____    ______ ____
ROOT
ATOM      1  C   UNL     1       6.787   5.043  15.367  0.00  0.00    +0.000 A 
ATOM      2  C   UNL     1       5.754   4.397  14.690  0.00  0.00    +0.000 A 
ATOM      3  C   UNL     1       4.677   3.897  15.409  0.00  0.00    +0.000 A 
ATOM      4  C   UNL     1       4.622   4.040  16.806  0.00  0.00    +0.000 A 
ATOM      5  C   UNL     1       5.679   4.709  17.488  0.00  0.00    +0.000 A 
ATOM      6  C   UNL     1       5.698   4.905  18.886  0.00  0.00    +0.000 A 
ATOM      7  C   UNL     1       6.756   5.562  19.503  0.00  0.00    +0.000 A 
ATOM      8  C   UNL     1       7.782   6.013  18.705  0.00  0.00    +0.000 A 
ATOM      9  N   UNL     1       7.809   5.852  17.368  0.00  0.00    +0.000 NA
ATOM     10  C   UNL     1       6.782   5.215  16.758  0.00  0.00    +0.000 A 
ENDROOT
BRANCH   4  11
ATOM     11  C   UNL     1       3.438   3.471  17.552  0.00  0.00    +0.000 C 
ATOM     12  F   UNL     1       2.458   2.990  16.734  0.00  0.00    +0.000 F 
ATOM     13  F   UNL     1       3.776   2.429  18.364  0.00  0.00    +0.000 F 
ATOM     14  F   UNL     1       2.825   4.388  18.352  0.00  0.00    +0.000 F 
ENDBRANCH   4  11
BRANCH   1  15
ATOM     15  O   UNL     1       7.851   5.527  14.639  0.00  0.00    +0.000 OA
ATOM     16  H   UNL     1       7.969   6.472  14.819  0.00  0.00    +0.000 HD
ENDBRANCH   1  15
TORSDOF 2
ENDMDL
