MODEL 1
REMARK VINA RESULT:      -6.8      0.000      0.000
REMARK  Name = 
REMARK  5 active torsions:
REMARK  status: ('A' for Active; 'I' for Inactive)
REMARK    1  A    between atoms: C_2  and  C_3
REMARK    2  A    between atoms: C_9  and  C_11
REMARK    3  A    between atoms: C_11  and  N_12
REMARK    4  A    between atoms: C_11  and  C_13
REMARK    5  A    between atoms: C_13  and  C_14
REMARK                            x       y       z     vdW  Elec       q    Type
REMARK                         _______ _______ _______ _____ _____    ______ ____
ROOT
ATOM      1  C   UNL     1       2.965   6.476  18.138  0.00  0.00    +0.000 C 
ENDROOT
BRANCH   1   8
ATOM      2  C   UNL     1       1.556   3.216  19.762  0.00  0.00    +0.000 C 
ATOM      3  C   UNL     1       2.062   1.891  19.125  0.00  0.00    +0.000 C 
ATOM      4  C   UNL     1       2.306   2.222  17.674  0.00  0.00    +0.000 C 
ATOM      5  C   UNL     1       3.565   2.921  17.221  0.00  0.00    +0.000 C 
ATOM      6  C   UNL     1       2.359   3.721  17.584  0.00  0.00    +0.000 C 
ATOM      7  N   UNL     1       2.159   4.261  18.901  0.00  0.00    +0.000 N 
ATOM      8  C   UNL     1       2.357   5.582  19.258  0.00  0.00    +0.000 C 
ATOM      9  O   UNL     1       2.035   6.032  20.354  0.00  0.00    +0.000 OA
BRANCH   2  11
ATOM     10  N   UNL     1       2.233   3.233  22.302  0.00  0.00    +0.000 NA
ATOM     11  C   UNL     1       1.881   3.246  21.191  0.00  0.00    +0.000 C 
ENDBRANCH   2  11
ENDBRANCH   1   8
BRANCH   1  12
ATOM     12  N   UNL     1       2.188   7.739  18.113  0.00  0.00    +0.000 NA
ATOM     13  H   UNL     1       1.961   7.960  17.141  0.00  0.00    +0.000 HD
ATOM     14  H   UNL     1       1.302   7.605  18.593  0.00  0.00    +0.000 HD
ENDBRANCH   1  12
BRANCH   1  15
ATOM     15  C   UNL     1       4.467   6.744  18.334  0.00  0.00    +0.000 C 
BRANCH  15  16
ATOM     16  C   UNL     1       5.341   5.997  17.350  0.00  0.00    +0.000 A 
ATOM     17  C   UNL     1       6.444   5.246  17.785  0.00  0.00    +0.000 A 
ATOM     18  C   UNL     1       7.238   4.554  16.867  0.00  0.00    +0.000 A 
ATOM     19  C   UNL     1       6.944   4.611  15.505  0.00  0.00    +0.000 A 
ATOM     20  C   UNL     1       5.852   5.359  15.063  0.00  0.00    +0.000 A 
ATOM     21  C   UNL     1       5.057   6.046  15.978  0.00  0.00    +0.000 A 
ENDBRANCH  15  16
ENDBRANCH   1  15
TORSDOF 5
ENDMDL
MODEL 2
REMARK VINA RESULT:      -6.8      0.045      1.108
REMARK  Name = 
REMARK  5 active torsions:
REMARK  status: ('A' for Active; 'I' for Inactive)
REMARK    1  A    between atoms: C_2  and  C_3
REMARK    2  A    between atoms: C_9  and  C_11
REMARK    3  A    between atoms: C_11  and  N_12
REMARK    4  A    between atoms: C_11  and  C_13
REMARK    5  A    between atoms: C_13  and  C_14
REMARK                            x       y       z     vdW  Elec       q    Type
REMARK                         _______ _______ _______ _____ _____    ______ ____
ROOT
ATOM      1  C   UNL     1       2.978   6.480  18.090  0.00  0.00    +0.000 C 
ENDROOT
BRANCH   1   8
ATOM      2  C   UNL     1       1.580   3.236  19.753  0.00  0.00    +0.000 C 
ATOM      3  C   UNL     1       2.085   1.905  19.128  0.00  0.00    +0.000 C 
ATOM      4  C   UNL     1       2.323   2.221  17.672  0.00  0.00    +0.000 C 
ATOM      5  C   UNL     1       3.579   2.916  17.207  0.00  0.00    +0.000 C 
ATOM      6  C   UNL     1       2.374   3.719  17.567  0.00  0.00    +0.000 C 
ATOM      7  N   UNL     1       2.178   4.272  18.879  0.00  0.00    +0.000 N 
ATOM      8  C   UNL     1       2.376   5.597  19.222  0.00  0.00    +0.000 C 
ATOM      9  O   UNL     1       2.058   6.058  20.314  0.00  0.00    +0.000 OA
BRANCH   2  11
ATOM     10  N   UNL     1       2.248   3.248  22.295  0.00  0.00    +0.000 NA
ATOM     11  C   UNL     1       1.911   3.281  21.181  0.00  0.00    +0.000 C 
ENDBRANCH   2  11
ENDBRANCH   1   8
BRANCH   1  12
ATOM     12  N   UNL     1       2.204   7.745  18.060  0.00  0.00    +0.000 NA
ATOM     13  H   UNL     1       2.864   8.526  18.037  0.00  0.00    +0.000 HD
ATOM     14  H   UNL     1       1.666   7.796  17.199  0.00  0.00    +0.000 HD
ENDBRANCH   1  12
BRANCH   1  15
ATOM     15  C   UNL     1       4.483   6.746  18.274  0.00  0.00    +0.000 C 
BRANCH  15  16
ATOM     16  C   UNL     1       5.348   5.990  17.290  0.00  0.00    +0.000 A 
ATOM     17  C   UNL     1       5.074   6.018  15.913  0.00  0.00    +0.000 A 
ATOM     18  C   UNL     1       5.885   5.322  15.014  0.00  0.00    +0.000 A 
ATOM     19  C   UNL     1       6.974   4.585  15.480  0.00  0.00    +0.000 A 
ATOM     20  C   UNL     1       7.251   4.547  16.847  0.00  0.00    +0.000 A 
ATOM     21  C   UNL     1       6.445   5.245  17.744  0.00  0.00    +0.000 A 
ENDBRANCH  15  16
ENDBRANCH   1  15
TORSDOF 5
ENDMDL
MODEL 3
REMARK VINA RESULT:      -6.5      2.312      5.192
REMARK  Name = 
REMARK  5 active torsions:
REMARK  status: ('A' for Active; 'I' for Inactive)
REMARK    1  A    between atoms: C_2  and  C_3
REMARK    2  A    between atoms: C_9  and  C_11
REMARK    3  A    between atoms: C_11  and  N_12
REMARK    4  A    between atoms: C_11  and  C_13
REMARK    5  A    between atoms: C_13  and  C_14
REMARK                            x       y       z     vdW  Elec       q    Type
REMARK                         _______ _______ _______ _____ _____    ______ ____
ROOT
ATOM      1  C   UNL     1       3.403   3.211  18.016  0.00  0.00    +0.000 C 
ENDROOT
BRANCH   1   8
ATOM      2  C   UNL     1       7.047   4.605  17.845  0.00  0.00    +0.000 C 
ATOM      3  C   UNL     1       7.302   5.645  16.717  0.00  0.00    +0.000 C 
ATOM      4  C   UNL     1       6.361   5.255  15.604  0.00  0.00    +0.000 C 
ATOM      5  C   UNL     1       4.902   5.639  15.629  0.00  0.00    +0.000 C 
ATOM      6  C   UNL     1       5.339   4.338  16.215  0.00  0.00    +0.000 C 
ATOM      7  N   UNL     1       5.645   4.185  17.611  0.00  0.00    +0.000 N 
ATOM      8  C   UNL     1       4.814   3.599  18.548  0.00  0.00    +0.000 C 
ATOM      9  O   UNL     1       5.171   3.356  19.697  0.00  0.00    +0.000 OA
BRANCH   2  11
ATOM     10  N   UNL     1       7.703   5.579  20.197  0.00  0.00    +0.000 NA
ATOM     11  C   UNL     1       7.370   5.187  19.151  0.00  0.00    +0.000 C 
ENDBRANCH   2  11
ENDBRANCH   1   8
BRANCH   1  12
ATOM     12  N   UNL     1       3.393   1.740  17.829  0.00  0.00    +0.000 NA
ATOM     13  H   UNL     1       3.726   1.302  18.691  0.00  0.00    +0.000 HD
ATOM     14  H   UNL     1       2.438   1.419  17.693  0.00  0.00    +0.000 HD
ENDBRANCH   1  12
BRANCH   1  15
ATOM     15  C   UNL     1       2.265   3.666  18.947  0.00  0.00    +0.000 C 
BRANCH  15  16
ATOM     16  C   UNL     1       2.199   5.167  19.119  0.00  0.00    +0.000 A 
ATOM     17  C   UNL     1       2.429   6.032  18.037  0.00  0.00    +0.000 A 
ATOM     18  C   UNL     1       2.357   7.416  18.207  0.00  0.00    +0.000 A 
ATOM     19  C   UNL     1       2.062   7.953  19.461  0.00  0.00    +0.000 A 
ATOM     20  C   UNL     1       1.837   7.102  20.543  0.00  0.00    +0.000 A 
ATOM     21  C   UNL     1       1.905   5.720  20.373  0.00  0.00    +0.000 A 
ENDBRANCH  15  16
ENDBRANCH   1  15
TORSDOF 5
ENDMDL
MODEL 4
REMARK VINA RESULT:      -6.4      2.296      5.253
REMARK  Name = 
REMARK  5 active torsions:
REMARK  status: ('A' for Active; 'I' for Inactive)
REMARK    1  A    between atoms: C_2  and  C_3
REMARK    2  A    between atoms: C_9  and  C_11
REMARK    3  A    between atoms: C_11  and  N_12
REMARK    4  A    between atoms: C_11  and  C_13
REMARK    5  A    between atoms: C_13  and  C_14
REMARK                            x       y       z     vdW  Elec       q    Type
REMARK                         _______ _______ _______ _____ _____    ______ ____
ROOT
ATOM      1  C   UNL     1       3.551   2.721  17.431  0.00  0.00    +0.000 C 
ENDROOT
BRANCH   1   8
ATOM      2  C   UNL     1       7.012   4.518  17.621  0.00  0.00    +0.000 C 
ATOM      3  C   UNL     1       7.306   5.506  16.456  0.00  0.00    +0.000 C 
ATOM      4  C   UNL     1       6.574   4.938  15.266  0.00  0.00    +0.000 C 
ATOM      5  C   UNL     1       5.093   5.149  15.071  0.00  0.00    +0.000 C 
ATOM      6  C   UNL     1       5.583   3.949  15.811  0.00  0.00    +0.000 C 
ATOM      7  N   UNL     1       5.710   3.923  17.242  0.00  0.00    +0.000 N 
ATOM      8  C   UNL     1       4.825   3.305  18.108  0.00  0.00    +0.000 C 
ATOM      9  O   UNL     1       5.046   3.180  19.309  0.00  0.00    +0.000 OA
BRANCH   2  11
ATOM     10  N   UNL     1       7.169   5.680  19.974  0.00  0.00    +0.000 NA
ATOM     11  C   UNL     1       7.089   5.217  18.907  0.00  0.00    +0.000 C 
ENDBRANCH   2  11
ENDBRANCH   1   8
BRANCH   1  12
ATOM     12  N   UNL     1       3.072   1.606  18.285  0.00  0.00    +0.000 NA
ATOM     13  H   UNL     1       2.306   1.134  17.798  0.00  0.00    +0.000 HD
ATOM     14  H   UNL     1       3.811   0.918  18.395  0.00  0.00    +0.000 HD
ENDBRANCH   1  12
BRANCH   1  15
ATOM     15  C   UNL     1       2.451   3.775  17.213  0.00  0.00    +0.000 C 
BRANCH  15  16
ATOM     16  C   UNL     1       2.240   4.674  18.411  0.00  0.00    +0.000 A 
ATOM     17  C   UNL     1       2.680   6.007  18.404  0.00  0.00    +0.000 A 
ATOM     18  C   UNL     1       2.471   6.829  19.514  0.00  0.00    +0.000 A 
ATOM     19  C   UNL     1       1.829   6.328  20.645  0.00  0.00    +0.000 A 
ATOM     20  C   UNL     1       1.392   5.003  20.664  0.00  0.00    +0.000 A 
ATOM     21  C   UNL     1       1.596   4.183  19.556  0.00  0.00    +0.000 A 
ENDBRANCH  15  16
ENDBRANCH   1  15
TORSDOF 5
ENDMDL
MODEL 5
REMARK VINA RESULT:      -6.3      2.394      5.570
REMARK  Name = 
REMARK  5 active torsions:
REMARK  status: ('A' for Active; 'I' for Inactive)
REMARK    1  A    between atoms: C_2  and  C_3
REMARK    2  A    between atoms: C_9  and  C_11
REMARK    3  A    between atoms: C_11  and  N_12
REMARK    4  A    between atoms: C_11  and  C_13
REMARK    5  A    between atoms: C_13  and  C_14
REMARK                            x       y       z     vdW  Elec       q    Type
REMARK                         _______ _______ _______ _____ _____    ______ ____
ROOT
ATOM      1  C   UNL     1       3.318   6.743  18.010  0.00  0.00    +0.000 C 
ENDROOT
BRANCH   1   8
ATOM      2  C   UNL     1       6.931   5.784  16.879  0.00  0.00    +0.000 C 
ATOM      3  C   UNL     1       7.577   4.609  17.665  0.00  0.00    +0.000 C 
ATOM      4  C   UNL     1       6.986   4.691  19.050  0.00  0.00    +0.000 C 
ATOM      5  C   UNL     1       5.614   4.145  19.361  0.00  0.00    +0.000 C 
ATOM      6  C   UNL     1       5.771   5.569  18.941  0.00  0.00    +0.000 C 
ATOM      7  N   UNL     1       5.638   5.989  17.573  0.00  0.00    +0.000 N 
ATOM      8  C   UNL     1       4.529   6.620  17.039  0.00  0.00    +0.000 C 
ATOM      9  O   UNL     1       4.512   7.094  15.907  0.00  0.00    +0.000 OA
BRANCH   2  11
ATOM     10  N   UNL     1       6.953   5.192  14.318  0.00  0.00    +0.000 NA
ATOM     11  C   UNL     1       6.889   5.473  15.447  0.00  0.00    +0.000 C 
ENDBRANCH   2  11
ENDBRANCH   1   8
BRANCH   1  12
ATOM     12  N   UNL     1       2.793   8.124  17.885  0.00  0.00    +0.000 NA
ATOM     13  H   UNL     1       3.231   8.702  18.606  0.00  0.00    +0.000 HD
ATOM     14  H   UNL     1       3.073   8.517  16.991  0.00  0.00    +0.000 HD
ENDBRANCH   1  12
BRANCH   1  15
ATOM     15  C   UNL     1       2.222   5.698  17.735  0.00  0.00    +0.000 C 
BRANCH  15  16
ATOM     16  C   UNL     1       1.990   4.757  18.896  0.00  0.00    +0.000 A 
ATOM     17  C   UNL     1       1.518   3.451  18.688  0.00  0.00    +0.000 A 
ATOM     18  C   UNL     1       1.315   2.589  19.768  0.00  0.00    +0.000 A 
ATOM     19  C   UNL     1       1.574   3.023  21.068  0.00  0.00    +0.000 A 
ATOM     20  C   UNL     1       2.039   4.321  21.286  0.00  0.00    +0.000 A 
ATOM     21  C   UNL     1       2.245   5.180  20.208  0.00  0.00    +0.000 A 
ENDBRANCH  15  16
ENDBRANCH   1  15
TORSDOF 5
ENDMDL
MODEL 6
REMARK VINA RESULT:      -6.3      2.403      5.535
REMARK  Name = 
REMARK  5 active torsions:
REMARK  status: ('A' for Active; 'I' for Inactive)
REMARK    1  A    between atoms: C_2  and  C_3
REMARK    2  A    between atoms: C_9  and  C_11
REMARK    3  A    between atoms: C_11  and  N_12
REMARK    4  A    between atoms: C_11  and  C_13
REMARK    5  A    between atoms: C_13  and  C_14
REMARK                            x       y       z     vdW  Elec       q    Type
REMARK                         _______ _______ _______ _____ _____    ______ ____
ROOT
ATOM      1  C   UNL     1       3.330   6.740  18.013  0.00  0.00    +0.000 C 
ENDROOT
BRANCH   1   8
ATOM      2  C   UNL     1       6.941   5.780  16.879  0.00  0.00    +0.000 C 
ATOM      3  C   UNL     1       7.582   4.594  17.655  0.00  0.00    +0.000 C 
ATOM      4  C   UNL     1       6.989   4.666  19.040  0.00  0.00    +0.000 C 
ATOM      5  C   UNL     1       5.615   4.122  19.344  0.00  0.00    +0.000 C 
ATOM      6  C   UNL     1       5.778   5.549  18.937  0.00  0.00    +0.000 C 
ATOM      7  N   UNL     1       5.648   5.982  17.573  0.00  0.00    +0.000 N 
ATOM      8  C   UNL     1       4.542   6.622  17.043  0.00  0.00    +0.000 C 
ATOM      9  O   UNL     1       4.528   7.106  15.915  0.00  0.00    +0.000 OA
BRANCH   2  11
ATOM     10  N   UNL     1       6.968   5.221  14.310  0.00  0.00    +0.000 NA
ATOM     11  C   UNL     1       6.900   5.481  15.444  0.00  0.00    +0.000 C 
ENDBRANCH   2  11
ENDBRANCH   1   8
BRANCH   1  12
ATOM     12  N   UNL     1       2.803   8.121  17.893  0.00  0.00    +0.000 NA
ATOM     13  H   UNL     1       2.142   8.282  18.657  0.00  0.00    +0.000 HD
ATOM     14  H   UNL     1       3.559   8.788  18.020  0.00  0.00    +0.000 HD
ENDBRANCH   1  12
BRANCH   1  15
ATOM     15  C   UNL     1       2.236   5.694  17.735  0.00  0.00    +0.000 C 
BRANCH  15  16
ATOM     16  C   UNL     1       1.984   4.768  18.903  0.00  0.00    +0.000 A 
ATOM     17  C   UNL     1       2.268   5.166  20.219  0.00  0.00    +0.000 A 
ATOM     18  C   UNL     1       2.023   4.304  21.291  0.00  0.00    +0.000 A 
ATOM     19  C   UNL     1       1.500   3.032  21.060  0.00  0.00    +0.000 A 
ATOM     20  C   UNL     1       1.219   2.625  19.755  0.00  0.00    +0.000 A 
ATOM     21  C   UNL     1       1.459   3.486  18.686  0.00  0.00    +0.000 A 
ENDBRANCH  15  16
ENDBRANCH   1  15
TORSDOF 5
ENDMDL
MODEL 7
REMARK VINA RESULT:      -6.2      2.339      3.051
REMARK  Name = 
REMARK  5 active torsions:
REMARK  status: ('A' for Active; 'I' for Inactive)
REMARK    1  A    between atoms: C_2  and  C_3
REMARK    2  A    between atoms: C_9  and  C_11
REMARK    3  A    between atoms: C_11  and  N_12
REMARK    4  A    between atoms: C_11  and  C_13
REMARK    5  A    between atoms: C_13  and  C_14
REMARK                            x       y       z     vdW  Elec       q    Type
REMARK                         _______ _______ _______ _____ _____    ______ ____
ROOT
ATOM      1  C   UNL     1       5.751   5.302  17.121  0.00  0.00    +0.000 C 
ENDROOT
BRANCH   1   8
ATOM      2  C   UNL     1       3.597   3.347  19.727  0.00  0.00    +0.000 C 
ATOM      3  C   UNL     1       2.340   2.641  19.145  0.00  0.00    +0.000 C 
ATOM      4  C   UNL     1       1.909   3.501  17.983  0.00  0.00    +0.000 C 
ATOM      5  C   UNL     1       2.584   3.410  16.636  0.00  0.00    +0.000 C 
ATOM      6  C   UNL     1       3.080   4.384  17.653  0.00  0.00    +0.000 C 
ATOM      7  N   UNL     1       4.150   4.075  18.560  0.00  0.00    +0.000 N 
ATOM      8  C   UNL     1       5.454   4.518  18.433  0.00  0.00    +0.000 C 
ATOM      9  O   UNL     1       6.303   4.354  19.304  0.00  0.00    +0.000 OA
BRANCH   2  11
ATOM     10  N   UNL     1       5.222   1.670  20.934  0.00  0.00    +0.000 NA
ATOM     11  C   UNL     1       4.466   2.370  20.388  0.00  0.00    +0.000 C 
ENDBRANCH   2  11
ENDBRANCH   1   8
BRANCH   1  12
ATOM     12  N   UNL     1       5.771   6.744  17.465  0.00  0.00    +0.000 NA
ATOM     13  H   UNL     1       5.001   6.933  18.110  0.00  0.00    +0.000 HD
ATOM     14  H   UNL     1       6.628   6.964  17.967  0.00  0.00    +0.000 HD
ENDBRANCH   1  12
BRANCH   1  15
ATOM     15  C   UNL     1       7.064   4.866  16.447  0.00  0.00    +0.000 C 
BRANCH  15  16
ATOM     16  C   UNL     1       6.921   4.624  14.961  0.00  0.00    +0.000 A 
ATOM     17  C   UNL     1       7.775   5.248  14.038  0.00  0.00    +0.000 A 
ATOM     18  C   UNL     1       7.637   5.010  12.669  0.00  0.00    +0.000 A 
ATOM     19  C   UNL     1       6.641   4.152  12.205  0.00  0.00    +0.000 A 
ATOM     20  C   UNL     1       5.783   3.530  13.113  0.00  0.00    +0.000 A 
ATOM     21  C   UNL     1       5.923   3.764  14.480  0.00  0.00    +0.000 A 
ENDBRANCH  15  16
ENDBRANCH   1  15
TORSDOF 5
ENDMDL
MODEL 8
REMARK VINA RESULT:      -6.2      2.386      5.222
REMARK  Name = 
REMARK  5 active torsions:
REMARK  status: ('A' for Active; 'I' for Inactive)
REMARK    1  A    between atoms: C_2  and  C_3
REMARK    2  A    between atoms: C_9  and  C_11
REMARK    3  A    between atoms: C_11  and  N_12
REMARK    4  A    between atoms: C_11  and  C_13
REMARK    5  A    between atoms: C_13  and  C_14
REMARK                            x       y       z     vdW  Elec       q    Type
REMARK                         _______ _______ _______ _____ _____    ______ ____
ROOT
ATOM      1  C   UNL     1       3.390   3.767  18.098  0.00  0.00    +0.000 C 
ENDROOT
BRANCH   1   8
ATOM      2  C   UNL     1       7.162   4.533  17.438  0.00  0.00    +0.000 C 
ATOM      3  C   UNL     1       7.439   5.515  16.265  0.00  0.00    +0.000 C 
ATOM      4  C   UNL     1       6.312   5.289  15.289  0.00  0.00    +0.000 C 
ATOM      5  C   UNL     1       4.952   5.912  15.490  0.00  0.00    +0.000 C 
ATOM      6  C   UNL     1       5.239   4.556  16.043  0.00  0.00    +0.000 C 
ATOM      7  N   UNL     1       5.692   4.353  17.392  0.00  0.00    +0.000 N 
ATOM      8  C   UNL     1       4.902   3.914  18.439  0.00  0.00    +0.000 C 
ATOM      9  O   UNL     1       5.358   3.613  19.538  0.00  0.00    +0.000 OA
BRANCH   2  11
ATOM     10  N   UNL     1       8.110   5.452  19.710  0.00  0.00    +0.000 NA
ATOM     11  C   UNL     1       7.742   5.051  18.680  0.00  0.00    +0.000 C 
ENDBRANCH   2  11
ENDBRANCH   1   8
BRANCH   1  12
ATOM     12  N   UNL     1       3.152   2.344  17.758  0.00  0.00    +0.000 NA
ATOM     13  H   UNL     1       3.741   1.765  18.361  0.00  0.00    +0.000 HD
ATOM     14  H   UNL     1       2.189   2.097  17.973  0.00  0.00    +0.000 HD
ENDBRANCH   1  12
BRANCH   1  15
ATOM     15  C   UNL     1       2.470   4.234  19.240  0.00  0.00    +0.000 C 
BRANCH  15  16
ATOM     16  C   UNL     1       2.261   5.732  19.265  0.00  0.00    +0.000 A 
ATOM     17  C   UNL     1       1.839   6.386  20.433  0.00  0.00    +0.000 A 
ATOM     18  C   UNL     1       1.657   7.771  20.444  0.00  0.00    +0.000 A 
ATOM     19  C   UNL     1       1.887   8.517  19.288  0.00  0.00    +0.000 A 
ATOM     20  C   UNL     1       2.302   7.875  18.121  0.00  0.00    +0.000 A 
ATOM     21  C   UNL     1       2.488   6.493  18.110  0.00  0.00    +0.000 A 
ENDBRANCH  15  16
ENDBRANCH   1  15
TORSDOF 5
ENDMDL
MODEL 9
REMARK VINA RESULT:      -6.2      2.269      2.958
REMARK  Name = 
REMARK  5 active torsions:
REMARK  status: ('A' for Active; 'I' for Inactive)
REMARK    1  A    between atoms: C_2  and  C_3
REMARK    2  A    between atoms: C_9  and  C_11
REMARK    3  A    between atoms: C_11  and  N_12
REMARK    4  A    between atoms: C_11  and  C_13
REMARK    5  A    between atoms: C_13  and  C_14
REMARK                            x       y       z     vdW  Elec       q    Type
REMARK                         _______ _______ _______ _____ _____    ______ ____
ROOT
ATOM      1  C   UNL     1       5.414   5.356  17.123  0.00  0.00    +0.000 C 
ENDROOT
BRANCH   1   8
ATOM      2  C   UNL     1       3.572   3.319  19.899  0.00  0.00    +0.000 C 
ATOM      3  C   UNL     1       2.244   2.647  19.451  0.00  0.00    +0.000 C 
ATOM      4  C   UNL     1       1.684   3.555  18.385  0.00  0.00    +0.000 C 
ATOM      5  C   UNL     1       2.187   3.512  16.962  0.00  0.00    +0.000 C 
ATOM      6  C   UNL     1       2.817   4.441  17.946  0.00  0.00    +0.000 C 
ATOM      7  N   UNL     1       3.987   4.087  18.702  0.00  0.00    +0.000 N 
ATOM      8  C   UNL     1       5.271   4.524  18.431  0.00  0.00    +0.000 C 
ATOM      9  O   UNL     1       6.218   4.318  19.184  0.00  0.00    +0.000 OA
BRANCH   2  11
ATOM     10  N   UNL     1       5.248   1.561  20.904  0.00  0.00    +0.000 NA
ATOM     11  C   UNL     1       4.502   2.308  20.411  0.00  0.00    +0.000 C 
ENDBRANCH   2  11
ENDBRANCH   1   8
BRANCH   1  12
ATOM     12  N   UNL     1       5.114   6.767  17.465  0.00  0.00    +0.000 NA
ATOM     13  H   UNL     1       5.917   7.342  17.197  0.00  0.00    +0.000 HD
ATOM     14  H   UNL     1       4.328   7.094  16.908  0.00  0.00    +0.000 HD
ENDBRANCH   1  12
BRANCH   1  15
ATOM     15  C   UNL     1       6.803   5.218  16.474  0.00  0.00    +0.000 C 
BRANCH  15  16
ATOM     16  C   UNL     1       6.744   4.811  15.019  0.00  0.00    +0.000 A 
ATOM     17  C   UNL     1       5.754   3.933  14.550  0.00  0.00    +0.000 A 
ATOM     18  C   UNL     1       5.706   3.572  13.202  0.00  0.00    +0.000 A 
ATOM     19  C   UNL     1       6.650   4.076  12.308  0.00  0.00    +0.000 A 
ATOM     20  C   UNL     1       7.642   4.945  12.765  0.00  0.00    +0.000 A 
ATOM     21  C   UNL     1       7.688   5.310  14.110  0.00  0.00    +0.000 A 
ENDBRANCH  15  16
ENDBRANCH   1  15
TORSDOF 5
ENDMDL
