MODEL 1
REMARK VINA RESULT:      -7.8      0.000      0.000
REMARK  Name = 
REMARK  4 active torsions:
REMARK  status: ('A' for Active; 'I' for Inactive)
REMARK    1  A    between atoms: C_1  and  C_2
REMARK    2  A    between atoms: C_7  and  C_8
REMARK    3  A    between atoms: N_11  and  C_12
REMARK    4  A    between atoms: C_12  and  C_13
REMARK                            x       y       z     vdW  Elec       q    Type
REMARK                         _______ _______ _______ _____ _____    ______ ____
ROOT
ATOM      1  C   UNL     1       2.662   6.452  18.990  0.00  0.00    +0.000 A 
ATOM      2  C   UNL     1       2.047   5.277  19.487  0.00  0.00    +0.000 A 
ATOM      3  C   UNL     1       2.953   4.266  19.259  0.00  0.00    +0.000 A 
ATOM      4  N   UNL     1       4.022   4.856  18.657  0.00  0.00    +0.000 N 
ATOM      5  N   UNL     1       3.865   6.177  18.465  0.00  0.00    +0.000 NA
ENDROOT
BRANCH   1  12
ATOM      6  C   UNL     1       1.268   7.883  21.490  0.00  0.00    +0.000 C 
ATOM      7  C   UNL     1       1.473   8.439  20.125  0.00  0.00    +0.000 A 
ATOM      8  N   UNL     1       0.985   9.719  19.876  0.00  0.00    +0.000 NA
ATOM      9  C   UNL     1       1.269  10.085  18.654  0.00  0.00    +0.000 A 
ATOM     10  N   UNL     1       0.895  11.268  18.141  0.00  0.00    +0.000 N 
ATOM     11  S   UNL     1       2.137   8.939  17.725  0.00  0.00    +0.000 S 
ATOM     12  C   UNL     1       2.102   7.842  19.043  0.00  0.00    +0.000 A 
ATOM     13  H   UNL     1       0.151  11.740  18.644  0.00  0.00    +0.000 HD
ATOM     14  H   UNL     1       0.833  11.350  17.134  0.00  0.00    +0.000 HD
ENDBRANCH   1  12
BRANCH   4  15
ATOM     15  C   UNL     1       5.243   4.216  18.219  0.00  0.00    +0.000 C 
BRANCH  15  16
ATOM     16  C   UNL     1       5.755   4.753  16.885  0.00  0.00    +0.000 C 
ATOM     17  C   UNL     1       7.263   5.001  16.888  0.00  0.00    +0.000 C 
ATOM     18  O   UNL     1       7.661   5.613  15.653  0.00  0.00    +0.000 OA
ATOM     19  C   UNL     1       7.131   4.954  14.579  0.00  0.00    +0.000 A 
ATOM     20  C   UNL     1       7.702   5.227  13.338  0.00  0.00    +0.000 A 
ATOM     21  C   UNL     1       7.246   4.558  12.201  0.00  0.00    +0.000 A 
ATOM     22  C   UNL     1       6.219   3.621  12.311  0.00  0.00    +0.000 A 
ATOM     23  C   UNL     1       5.628   3.365  13.551  0.00  0.00    +0.000 A 
ATOM     24  C   UNL     1       6.069   4.049  14.683  0.00  0.00    +0.000 A 
ATOM     25  O   UNL     1       5.428   3.780  15.867  0.00  0.00    +0.000 OA
ENDBRANCH  15  16
ENDBRANCH   4  15
TORSDOF 3
ENDMDL
MODEL 2
REMARK VINA RESULT:      -7.6      4.604      8.648
REMARK  Name = 
REMARK  4 active torsions:
REMARK  status: ('A' for Active; 'I' for Inactive)
REMARK    1  A    between atoms: C_1  and  C_2
REMARK    2  A    between atoms: C_7  and  C_8
REMARK    3  A    between atoms: N_11  and  C_12
REMARK    4  A    between atoms: C_12  and  C_13
REMARK                            x       y       z     vdW  Elec       q    Type
REMARK                         _______ _______ _______ _____ _____    ______ ____
ROOT
ATOM      1  C   UNL     1       2.557   7.228  18.616  0.00  0.00    +0.000 A 
ATOM      2  C   UNL     1       2.656   8.118  17.518  0.00  0.00    +0.000 A 
ATOM      3  C   UNL     1       2.030   9.273  17.927  0.00  0.00    +0.000 A 
ATOM      4  N   UNL     1       1.597   9.032  19.195  0.00  0.00    +0.000 N 
ATOM      5  N   UNL     1       1.888   7.794  19.631  0.00  0.00    +0.000 NA
ENDROOT
BRANCH   1  12
ATOM      6  C   UNL     1       1.200   4.513  17.601  0.00  0.00    +0.000 C 
ATOM      7  C   UNL     1       2.516   4.672  18.280  0.00  0.00    +0.000 A 
ATOM      8  N   UNL     1       3.246   3.515  18.537  0.00  0.00    +0.000 NA
ATOM      9  C   UNL     1       4.387   3.813  19.100  0.00  0.00    +0.000 A 
ATOM     10  N   UNL     1       5.280   2.883  19.478  0.00  0.00    +0.000 N 
ATOM     11  S   UNL     1       4.671   5.482  19.353  0.00  0.00    +0.000 S 
ATOM     12  C   UNL     1       3.128   5.844  18.696  0.00  0.00    +0.000 A 
ATOM     13  H   UNL     1       4.911   1.942  19.562  0.00  0.00    +0.000 HD
ATOM     14  H   UNL     1       5.951   3.133  20.192  0.00  0.00    +0.000 HD
ENDBRANCH   1  12
BRANCH   4  15
ATOM     15  C   UNL     1       0.881   9.940  20.065  0.00  0.00    +0.000 C 
BRANCH  15  16
ATOM     16  C   UNL     1      -0.557  10.187  19.617  0.00  0.00    +0.000 C 
ATOM     17  C   UNL     1      -1.012  11.626  19.862  0.00  0.00    +0.000 C 
ATOM     18  O   UNL     1      -2.401  11.762  19.531  0.00  0.00    +0.000 OA
ATOM     19  C   UNL     1      -2.678  11.210  18.311  0.00  0.00    +0.000 A 
ATOM     20  C   UNL     1      -3.891  11.570  17.727  0.00  0.00    +0.000 A 
ATOM     21  C   UNL     1      -4.223  11.084  16.462  0.00  0.00    +0.000 A 
ATOM     22  C   UNL     1      -3.341  10.240  15.788  0.00  0.00    +0.000 A 
ATOM     23  C   UNL     1      -2.136   9.858  16.384  0.00  0.00    +0.000 A 
ATOM     24  C   UNL     1      -1.814  10.326  17.656  0.00  0.00    +0.000 A 
ATOM     25  O   UNL     1      -0.633   9.891  18.204  0.00  0.00    +0.000 OA
ENDBRANCH  15  16
ENDBRANCH   4  15
TORSDOF 3
ENDMDL
MODEL 3
REMARK VINA RESULT:      -7.5      1.254      1.627
REMARK  Name = 
REMARK  4 active torsions:
REMARK  status: ('A' for Active; 'I' for Inactive)
REMARK    1  A    between atoms: C_1  and  C_2
REMARK    2  A    between atoms: C_7  and  C_8
REMARK    3  A    between atoms: N_11  and  C_12
REMARK    4  A    between atoms: C_12  and  C_13
REMARK                            x       y       z     vdW  Elec       q    Type
REMARK                         _______ _______ _______ _____ _____    ______ ____
ROOT
ATOM      1  C   UNL     1       2.437   6.285  19.788  0.00  0.00    +0.000 A 
ATOM      2  C   UNL     1       1.806   5.044  20.050  0.00  0.00    +0.000 A 
ATOM      3  C   UNL     1       2.768   4.089  19.815  0.00  0.00    +0.000 A 
ATOM      4  N   UNL     1       3.883   4.771  19.433  0.00  0.00    +0.000 N 
ATOM      5  N   UNL     1       3.705   6.103  19.391  0.00  0.00    +0.000 NA
ENDROOT
BRANCH   1  12
ATOM      6  C   UNL     1       2.251   8.588  17.574  0.00  0.00    +0.000 C 
ATOM      7  C   UNL     1       1.780   8.646  18.985  0.00  0.00    +0.000 A 
ATOM      8  N   UNL     1       1.214   9.841  19.421  0.00  0.00    +0.000 NA
ATOM      9  C   UNL     1       0.818   9.730  20.662  0.00  0.00    +0.000 A 
ATOM     10  N   UNL     1       0.257  10.742  21.342  0.00  0.00    +0.000 N 
ATOM     11  S   UNL     1       1.084   8.202  21.386  0.00  0.00    +0.000 S 
ATOM     12  C   UNL     1       1.827   7.646  19.944  0.00  0.00    +0.000 A 
ATOM     13  H   UNL     1       0.410  11.664  20.946  0.00  0.00    +0.000 HD
ATOM     14  H   UNL     1       0.293  10.713  22.353  0.00  0.00    +0.000 HD
ENDBRANCH   1  12
BRANCH   4  15
ATOM     15  C   UNL     1       5.171   4.216  19.078  0.00  0.00    +0.000 C 
BRANCH  15  16
ATOM     16  C   UNL     1       5.698   4.736  17.744  0.00  0.00    +0.000 C 
ATOM     17  C   UNL     1       7.225   4.785  17.692  0.00  0.00    +0.000 C 
ATOM     18  O   UNL     1       7.654   5.389  16.463  0.00  0.00    +0.000 OA
ATOM     19  C   UNL     1       7.001   4.849  15.390  0.00  0.00    +0.000 A 
ATOM     20  C   UNL     1       7.557   5.095  14.136  0.00  0.00    +0.000 A 
ATOM     21  C   UNL     1       6.974   4.538  12.997  0.00  0.00    +0.000 A 
ATOM     22  C   UNL     1       5.838   3.739  13.117  0.00  0.00    +0.000 A 
ATOM     23  C   UNL     1       5.265   3.512  14.371  0.00  0.00    +0.000 A 
ATOM     24  C   UNL     1       5.834   4.086  15.507  0.00  0.00    +0.000 A 
ATOM     25  O   UNL     1       5.208   3.856  16.706  0.00  0.00    +0.000 OA
ENDBRANCH  15  16
ENDBRANCH   4  15
TORSDOF 3
ENDMDL
MODEL 4
REMARK VINA RESULT:      -7.4      4.284      8.649
REMARK  Name = 
REMARK  4 active torsions:
REMARK  status: ('A' for Active; 'I' for Inactive)
REMARK    1  A    between atoms: C_1  and  C_2
REMARK    2  A    between atoms: C_7  and  C_8
REMARK    3  A    between atoms: N_11  and  C_12
REMARK    4  A    between atoms: C_12  and  C_13
REMARK                            x       y       z     vdW  Elec       q    Type
REMARK                         _______ _______ _______ _____ _____    ______ ____
ROOT
ATOM      1  C   UNL     1       2.223   6.883  19.515  0.00  0.00    +0.000 A 
ATOM      2  C   UNL     1       1.701   6.879  20.832  0.00  0.00    +0.000 A 
ATOM      3  C   UNL     1       1.180   8.138  21.022  0.00  0.00    +0.000 A 
ATOM      4  N   UNL     1       1.408   8.813  19.861  0.00  0.00    +0.000 N 
ATOM      5  N   UNL     1       2.055   8.081  18.937  0.00  0.00    +0.000 NA
ENDROOT
BRANCH   1  12
ATOM      6  C   UNL     1       1.238   3.838  19.504  0.00  0.00    +0.000 C 
ATOM      7  C   UNL     1       2.440   4.405  18.834  0.00  0.00    +0.000 A 
ATOM      8  N   UNL     1       3.260   3.522  18.137  0.00  0.00    +0.000 NA
ATOM      9  C   UNL     1       4.248   4.165  17.575  0.00  0.00    +0.000 A 
ATOM     10  N   UNL     1       5.206   3.553  16.860  0.00  0.00    +0.000 N 
ATOM     11  S   UNL     1       4.265   5.858  17.829  0.00  0.00    +0.000 S 
ATOM     12  C   UNL     1       2.860   5.726  18.805  0.00  0.00    +0.000 A 
ATOM     13  H   UNL     1       5.281   2.552  17.010  0.00  0.00    +0.000 HD
ATOM     14  H   UNL     1       6.094   4.026  16.752  0.00  0.00    +0.000 HD
ENDBRANCH   1  12
BRANCH   4  15
ATOM     15  C   UNL     1       1.044  10.180  19.556  0.00  0.00    +0.000 C 
BRANCH  15  16
ATOM     16  C   UNL     1      -0.449  10.357  19.299  0.00  0.00    +0.000 C 
ATOM     17  C   UNL     1      -0.957  11.741  19.707  0.00  0.00    +0.000 C 
ATOM     18  O   UNL     1      -2.382  11.804  19.551  0.00  0.00    +0.000 OA
ATOM     19  C   UNL     1      -2.771  11.321  18.332  0.00  0.00    +0.000 A 
ATOM     20  C   UNL     1      -4.065  11.636  17.922  0.00  0.00    +0.000 A 
ATOM     21  C   UNL     1      -4.517  11.218  16.670  0.00  0.00    +0.000 A 
ATOM     22  C   UNL     1      -3.674  10.487  15.834  0.00  0.00    +0.000 A 
ATOM     23  C   UNL     1      -2.385  10.148  16.255  0.00  0.00    +0.000 A 
ATOM     24  C   UNL     1      -1.941  10.547  17.515  0.00  0.00    +0.000 A 
ATOM     25  O   UNL     1      -0.678  10.157  17.886  0.00  0.00    +0.000 OA
ENDBRANCH  15  16
ENDBRANCH   4  15
TORSDOF 3
ENDMDL
MODEL 5
REMARK VINA RESULT:      -7.4      4.407      8.949
REMARK  Name = 
REMARK  4 active torsions:
REMARK  status: ('A' for Active; 'I' for Inactive)
REMARK    1  A    between atoms: C_1  and  C_2
REMARK    2  A    between atoms: C_7  and  C_8
REMARK    3  A    between atoms: N_11  and  C_12
REMARK    4  A    between atoms: C_12  and  C_13
REMARK                            x       y       z     vdW  Elec       q    Type
REMARK                         _______ _______ _______ _____ _____    ______ ____
ROOT
ATOM      1  C   UNL     1       2.704   7.033  18.540  0.00  0.00    +0.000 A 
ATOM      2  C   UNL     1       2.221   7.097  19.870  0.00  0.00    +0.000 A 
ATOM      3  C   UNL     1       1.613   8.327  19.979  0.00  0.00    +0.000 A 
ATOM      4  N   UNL     1       1.757   8.921  18.762  0.00  0.00    +0.000 N 
ATOM      5  N   UNL     1       2.430   8.166  17.877  0.00  0.00    +0.000 NA
ENDROOT
BRANCH   1  12
ATOM      6  C   UNL     1       1.477   4.149  17.893  0.00  0.00    +0.000 C 
ATOM      7  C   UNL     1       2.869   4.617  17.654  0.00  0.00    +0.000 A 
ATOM      8  N   UNL     1       3.767   3.701  17.112  0.00  0.00    +0.000 NA
ATOM      9  C   UNL     1       4.933   4.262  16.927  0.00  0.00    +0.000 A 
ATOM     10  N   UNL     1       5.993   3.599  16.437  0.00  0.00    +0.000 N 
ATOM     11  S   UNL     1       5.037   5.910  17.376  0.00  0.00    +0.000 S 
ATOM     12  C   UNL     1       3.405   5.871  17.901  0.00  0.00    +0.000 A 
ATOM     13  H   UNL     1       5.925   2.588  16.481  0.00  0.00    +0.000 HD
ATOM     14  H   UNL     1       6.915   3.964  16.637  0.00  0.00    +0.000 HD
ENDBRANCH   1  12
BRANCH   4  15
ATOM     15  C   UNL     1       1.283  10.228  18.363  0.00  0.00    +0.000 C 
BRANCH  15  16
ATOM     16  C   UNL     1      -0.174  10.478  18.743  0.00  0.00    +0.000 C 
ATOM     17  C   UNL     1      -0.385  11.838  19.408  0.00  0.00    +0.000 C 
ATOM     18  O   UNL     1      -1.746  11.962  19.844  0.00  0.00    +0.000 OA
ATOM     19  C   UNL     1      -2.620  11.598  18.858  0.00  0.00    +0.000 A 
ATOM     20  C   UNL     1      -3.946  11.990  19.026  0.00  0.00    +0.000 A 
ATOM     21  C   UNL     1      -4.888  11.695  18.038  0.00  0.00    +0.000 A 
ATOM     22  C   UNL     1      -4.498  11.009  16.889  0.00  0.00    +0.000 A 
ATOM     23  C   UNL     1      -3.174  10.593  16.731  0.00  0.00    +0.000 A 
ATOM     24  C   UNL     1      -2.238  10.868  17.727  0.00  0.00    +0.000 A 
ATOM     25  O   UNL     1      -0.960  10.405  17.532  0.00  0.00    +0.000 OA
ENDBRANCH  15  16
ENDBRANCH   4  15
TORSDOF 3
ENDMDL
MODEL 6
REMARK VINA RESULT:      -7.3      3.846      5.883
REMARK  Name = 
REMARK  4 active torsions:
REMARK  status: ('A' for Active; 'I' for Inactive)
REMARK    1  A    between atoms: C_1  and  C_2
REMARK    2  A    between atoms: C_7  and  C_8
REMARK    3  A    between atoms: N_11  and  C_12
REMARK    4  A    between atoms: C_12  and  C_13
REMARK                            x       y       z     vdW  Elec       q    Type
REMARK                         _______ _______ _______ _____ _____    ______ ____
ROOT
ATOM      1  C   UNL     1       0.400  10.334  19.804  0.00  0.00    +0.000 A 
ATOM      2  C   UNL     1      -0.280  10.236  18.565  0.00  0.00    +0.000 A 
ATOM      3  C   UNL     1       0.528   9.460  17.766  0.00  0.00    +0.000 A 
ATOM      4  N   UNL     1       1.613   9.147  18.528  0.00  0.00    +0.000 N 
ATOM      5  N   UNL     1       1.569   9.679  19.761  0.00  0.00    +0.000 NA
ENDROOT
BRANCH   1  12
ATOM      6  C   UNL     1      -0.266   9.024  22.647  0.00  0.00    +0.000 C 
ATOM      7  C   UNL     1      -0.402  10.453  22.252  0.00  0.00    +0.000 A 
ATOM      8  N   UNL     1      -0.900  11.336  23.207  0.00  0.00    +0.000 NA
ATOM      9  C   UNL     1      -0.928  12.552  22.731  0.00  0.00    +0.000 A 
ATOM     10  N   UNL     1      -1.387  13.600  23.433  0.00  0.00    +0.000 N 
ATOM     11  S   UNL     1      -0.359  12.729  21.126  0.00  0.00    +0.000 S 
ATOM     12  C   UNL     1      -0.088  11.038  21.035  0.00  0.00    +0.000 A 
ATOM     13  H   UNL     1      -1.964  13.362  24.234  0.00  0.00    +0.000 HD
ATOM     14  H   UNL     1      -1.702  14.414  22.921  0.00  0.00    +0.000 HD
ENDBRANCH   1  12
BRANCH   4  15
ATOM     15  C   UNL     1       2.752   8.342  18.142  0.00  0.00    +0.000 C 
BRANCH  15  16
ATOM     16  C   UNL     1       2.443   6.849  18.103  0.00  0.00    +0.000 C 
ATOM     17  C   UNL     1       3.637   6.012  17.642  0.00  0.00    +0.000 C 
ATOM     18  O   UNL     1       3.250   4.636  17.514  0.00  0.00    +0.000 OA
ATOM     19  C   UNL     1       2.565   4.208  18.617  0.00  0.00    +0.000 A 
ATOM     20  C   UNL     1       2.433   2.830  18.771  0.00  0.00    +0.000 A 
ATOM     21  C   UNL     1       1.788   2.315  19.897  0.00  0.00    +0.000 A 
ATOM     22  C   UNL     1       1.277   3.182  20.862  0.00  0.00    +0.000 A 
ATOM     23  C   UNL     1       1.385   4.565  20.696  0.00  0.00    +0.000 A 
ATOM     24  C   UNL     1       2.010   5.079  19.561  0.00  0.00    +0.000 A 
ATOM     25  O   UNL     1       2.058   6.446  19.437  0.00  0.00    +0.000 OA
ENDBRANCH  15  16
ENDBRANCH   4  15
TORSDOF 3
ENDMDL
MODEL 7
REMARK VINA RESULT:      -7.2      4.366      8.715
REMARK  Name = 
REMARK  4 active torsions:
REMARK  status: ('A' for Active; 'I' for Inactive)
REMARK    1  A    between atoms: C_1  and  C_2
REMARK    2  A    between atoms: C_7  and  C_8
REMARK    3  A    between atoms: N_11  and  C_12
REMARK    4  A    between atoms: C_12  and  C_13
REMARK                            x       y       z     vdW  Elec       q    Type
REMARK                         _______ _______ _______ _____ _____    ______ ____
ROOT
ATOM      1  C   UNL     1       2.382   6.777  19.473  0.00  0.00    +0.000 A 
ATOM      2  C   UNL     1       1.810   6.850  20.767  0.00  0.00    +0.000 A 
ATOM      3  C   UNL     1       1.268   8.112  20.855  0.00  0.00    +0.000 A 
ATOM      4  N   UNL     1       1.533   8.714  19.663  0.00  0.00    +0.000 N 
ATOM      5  N   UNL     1       2.223   7.933  18.813  0.00  0.00    +0.000 NA
ENDROOT
BRANCH   1  12
ATOM      6  C   UNL     1       4.702   6.786  17.269  0.00  0.00    +0.000 C 
ATOM      7  C   UNL     1       4.043   5.604  17.887  0.00  0.00    +0.000 A 
ATOM      8  N   UNL     1       4.448   4.345  17.450  0.00  0.00    +0.000 NA
ATOM      9  C   UNL     1       3.810   3.410  18.104  0.00  0.00    +0.000 A 
ATOM     10  N   UNL     1       3.991   2.101  17.866  0.00  0.00    +0.000 N 
ATOM     11  S   UNL     1       2.698   3.962  19.281  0.00  0.00    +0.000 S 
ATOM     12  C   UNL     1       3.059   5.585  18.864  0.00  0.00    +0.000 A 
ATOM     13  H   UNL     1       4.428   1.881  16.977  0.00  0.00    +0.000 HD
ATOM     14  H   UNL     1       3.253   1.463  18.136  0.00  0.00    +0.000 HD
ENDBRANCH   1  12
BRANCH   4  15
ATOM     15  C   UNL     1       1.166  10.053  19.256  0.00  0.00    +0.000 C 
BRANCH  15  16
ATOM     16  C   UNL     1      -0.341  10.238  19.098  0.00  0.00    +0.000 C 
ATOM     17  C   UNL     1      -0.826  11.593  19.615  0.00  0.00    +0.000 C 
ATOM     18  O   UNL     1      -2.258  11.657  19.547  0.00  0.00    +0.000 OA
ATOM     19  C   UNL     1      -2.717  11.244  18.327  0.00  0.00    +0.000 A 
ATOM     20  C   UNL     1      -4.033  11.575  18.012  0.00  0.00    +0.000 A 
ATOM     21  C   UNL     1      -4.557  11.229  16.766  0.00  0.00    +0.000 A 
ATOM     22  C   UNL     1      -3.764  10.551  15.842  0.00  0.00    +0.000 A 
ATOM     23  C   UNL     1      -2.452  10.196  16.166  0.00  0.00    +0.000 A 
ATOM     24  C   UNL     1      -1.935  10.523  17.418  0.00  0.00    +0.000 A 
ATOM     25  O   UNL     1      -0.651  10.118  17.691  0.00  0.00    +0.000 OA
ENDBRANCH  15  16
ENDBRANCH   4  15
TORSDOF 3
ENDMDL
MODEL 8
REMARK VINA RESULT:      -7.2      4.469      8.602
REMARK  Name = 
REMARK  4 active torsions:
REMARK  status: ('A' for Active; 'I' for Inactive)
REMARK    1  A    between atoms: C_1  and  C_2
REMARK    2  A    between atoms: C_7  and  C_8
REMARK    3  A    between atoms: N_11  and  C_12
REMARK    4  A    between atoms: C_12  and  C_13
REMARK                            x       y       z     vdW  Elec       q    Type
REMARK                         _______ _______ _______ _____ _____    ______ ____
ROOT
ATOM      1  C   UNL     1       2.426   6.911  18.468  0.00  0.00    +0.000 A 
ATOM      2  C   UNL     1       2.784   7.864  17.484  0.00  0.00    +0.000 A 
ATOM      3  C   UNL     1       2.328   9.071  17.962  0.00  0.00    +0.000 A 
ATOM      4  N   UNL     1       1.737   8.798  19.158  0.00  0.00    +0.000 N 
ATOM      5  N   UNL     1       1.766   7.493  19.480  0.00  0.00    +0.000 NA
ENDROOT
BRANCH   1  12
ATOM      6  C   UNL     1       5.212   5.518  19.203  0.00  0.00    +0.000 C 
ATOM      7  C   UNL     1       3.962   4.857  18.738  0.00  0.00    +0.000 A 
ATOM      8  N   UNL     1       3.993   3.475  18.570  0.00  0.00    +0.000 NA
ATOM      9  C   UNL     1       2.821   3.036  18.195  0.00  0.00    +0.000 A 
ATOM     10  N   UNL     1       2.575   1.741  17.937  0.00  0.00    +0.000 N 
ATOM     11  S   UNL     1       1.606   4.229  18.025  0.00  0.00    +0.000 S 
ATOM     12  C   UNL     1       2.740   5.445  18.446  0.00  0.00    +0.000 A 
ATOM     13  H   UNL     1       3.399   1.170  17.776  0.00  0.00    +0.000 HD
ATOM     14  H   UNL     1       1.790   1.516  17.339  0.00  0.00    +0.000 HD
ENDBRANCH   1  12
BRANCH   4  15
ATOM     15  C   UNL     1       1.105   9.737  20.058  0.00  0.00    +0.000 C 
BRANCH  15  16
ATOM     16  C   UNL     1      -0.341  10.047  19.681  0.00  0.00    +0.000 C 
ATOM     17  C   UNL     1      -0.733  11.493  19.987  0.00  0.00    +0.000 C 
ATOM     18  O   UNL     1      -2.130  11.687  19.721  0.00  0.00    +0.000 OA
ATOM     19  C   UNL     1      -2.478  11.183  18.499  0.00  0.00    +0.000 A 
ATOM     20  C   UNL     1      -3.700  11.601  17.979  0.00  0.00    +0.000 A 
ATOM     21  C   UNL     1      -4.103  11.166  16.715  0.00  0.00    +0.000 A 
ATOM     22  C   UNL     1      -3.281  10.313  15.979  0.00  0.00    +0.000 A 
ATOM     23  C   UNL     1      -2.066   9.872  16.511  0.00  0.00    +0.000 A 
ATOM     24  C   UNL     1      -1.674  10.290  17.782  0.00  0.00    +0.000 A 
ATOM     25  O   UNL     1      -0.487   9.797  18.265  0.00  0.00    +0.000 OA
ENDBRANCH  15  16
ENDBRANCH   4  15
TORSDOF 3
ENDMDL
MODEL 9
REMARK VINA RESULT:      -7.2      5.064      8.911
REMARK  Name = 
REMARK  4 active torsions:
REMARK  status: ('A' for Active; 'I' for Inactive)
REMARK    1  A    between atoms: C_1  and  C_2
REMARK    2  A    between atoms: C_7  and  C_8
REMARK    3  A    between atoms: N_11  and  C_12
REMARK    4  A    between atoms: C_12  and  C_13
REMARK                            x       y       z     vdW  Elec       q    Type
REMARK                         _______ _______ _______ _____ _____    ______ ____
ROOT
ATOM      1  C   UNL     1       2.576   6.194  19.334  0.00  0.00    +0.000 A 
ATOM      2  C   UNL     1       2.765   6.982  18.172  0.00  0.00    +0.000 A 
ATOM      3  C   UNL     1       2.214   8.207  18.468  0.00  0.00    +0.000 A 
ATOM      4  N   UNL     1       1.736   8.102  19.739  0.00  0.00    +0.000 N 
ATOM      5  N   UNL     1       1.926   6.886  20.281  0.00  0.00    +0.000 NA
ENDROOT
BRANCH   1  12
ATOM      6  C   UNL     1       0.811   3.681  20.236  0.00  0.00    +0.000 C 
ATOM      7  C   UNL     1       2.274   3.711  19.962  0.00  0.00    +0.000 A 
ATOM      8  N   UNL     1       2.982   2.525  20.138  0.00  0.00    +0.000 NA
ATOM      9  C   UNL     1       4.239   2.695  19.827  0.00  0.00    +0.000 A 
ATOM     10  N   UNL     1       5.155   1.718  19.928  0.00  0.00    +0.000 N 
ATOM     11  S   UNL     1       4.662   4.268  19.299  0.00  0.00    +0.000 S 
ATOM     12  C   UNL     1       3.044   4.784  19.541  0.00  0.00    +0.000 A 
ATOM     13  H   UNL     1       4.886   0.936  20.515  0.00  0.00    +0.000 HD
ATOM     14  H   UNL     1       6.127   1.986  20.011  0.00  0.00    +0.000 HD
ENDBRANCH   1  12
BRANCH   4  15
ATOM     15  C   UNL     1       1.067   9.126  20.512  0.00  0.00    +0.000 C 
BRANCH  15  16
ATOM     16  C   UNL     1       0.864  10.424  19.736  0.00  0.00    +0.000 C 
ATOM     17  C   UNL     1      -0.603  10.683  19.394  0.00  0.00    +0.000 C 
ATOM     18  O   UNL     1      -0.713  11.851  18.567  0.00  0.00    +0.000 OA
ATOM     19  C   UNL     1       0.011  12.892  19.079  0.00  0.00    +0.000 A 
ATOM     20  C   UNL     1      -0.278  14.158  18.574  0.00  0.00    +0.000 A 
ATOM     21  C   UNL     1       0.386  15.276  19.081  0.00  0.00    +0.000 A 
ATOM     22  C   UNL     1       1.337  15.122  20.089  0.00  0.00    +0.000 A 
ATOM     23  C   UNL     1       1.647  13.850  20.577  0.00  0.00    +0.000 A 
ATOM     24  C   UNL     1       0.999  12.731  20.056  0.00  0.00    +0.000 A 
ATOM     25  O   UNL     1       1.368  11.505  20.552  0.00  0.00    +0.000 OA
ENDBRANCH  15  16
ENDBRANCH   4  15
TORSDOF 3
ENDMDL
