MODEL 1
REMARK VINA RESULT:      -7.0      0.000      0.000
REMARK  Name = 
REMARK  3 active torsions:
REMARK  status: ('A' for Active; 'I' for Inactive)
REMARK    1  A    between atoms: C_2  and  C_5
REMARK    2  A    between atoms: C_6  and  N_7
REMARK    3  A    between atoms: C_10  and  C_11
REMARK                            x       y       z     vdW  Elec       q    Type
REMARK                         _______ _______ _______ _____ _____    ______ ____
ROOT
ATOM      1  N   UNL     1       4.716   4.736  17.732  0.00  0.00    +0.000 N 
ATOM      2  C   UNL     1       4.691   6.072  17.386  0.00  0.00    +0.000 A 
ATOM      3  N   UNL     1       5.199   6.259  16.191  0.00  0.00    +0.000 NA
ATOM      4  C   UNL     1       5.554   4.993  15.806  0.00  0.00    +0.000 A 
ATOM      5  N   UNL     1       5.317   4.061  16.731  0.00  0.00    +0.000 NA
ENDROOT
BRANCH   4   6
ATOM      6  C   UNL     1       6.107   4.686  14.492  0.00  0.00    +0.000 A 
ATOM      7  C   UNL     1       7.248   5.360  14.024  0.00  0.00    +0.000 A 
ATOM      8  C   UNL     1       7.799   5.051  12.780  0.00  0.00    +0.000 A 
ATOM      9  C   UNL     1       7.215   4.063  11.991  0.00  0.00    +0.000 A 
ATOM     10  C   UNL     1       6.082   3.392  12.448  0.00  0.00    +0.000 A 
ATOM     11 CL   UNL     1       5.365   2.169  11.469  0.00  0.00    +0.000 Cl
ATOM     12  C   UNL     1       5.525   3.696  13.691  0.00  0.00    +0.000 A 
ENDBRANCH   4   6
BRANCH   1  14
ATOM     13  C   UNL     1       2.920   3.701  19.030  0.00  0.00    +0.000 C 
ATOM     14  C   UNL     1       4.170   4.181  18.892  0.00  0.00    +0.000 C 
BRANCH  13  16
ATOM     15  F   UNL     1       1.463   4.794  17.563  0.00  0.00    +0.000 F 
ATOM     16  C   UNL     1       1.861   3.563  17.979  0.00  0.00    +0.000 C 
ATOM     17  F   UNL     1       0.750   2.944  18.444  0.00  0.00    +0.000 F 
ATOM     18  F   UNL     1       2.293   2.908  16.876  0.00  0.00    +0.000 F 
ENDBRANCH  13  16
ENDBRANCH   1  14
TORSDOF 3
ENDMDL
MODEL 2
REMARK VINA RESULT:      -7.0      3.607      6.290
REMARK  Name = 
REMARK  3 active torsions:
REMARK  status: ('A' for Active; 'I' for Inactive)
REMARK    1  A    between atoms: C_2  and  C_5
REMARK    2  A    between atoms: C_6  and  N_7
REMARK    3  A    between atoms: C_10  and  C_11
REMARK                            x       y       z     vdW  Elec       q    Type
REMARK                         _______ _______ _______ _____ _____    ______ ____
ROOT
ATOM      1  N   UNL     1       6.245   5.137  17.076  0.00  0.00    +0.000 N 
ATOM      2  C   UNL     1       6.756   4.718  18.287  0.00  0.00    +0.000 A 
ATOM      3  N   UNL     1       5.806   4.254  19.064  0.00  0.00    +0.000 NA
ATOM      4  C   UNL     1       4.680   4.409  18.299  0.00  0.00    +0.000 A 
ATOM      5  N   UNL     1       4.906   4.980  17.114  0.00  0.00    +0.000 NA
ENDROOT
BRANCH   4   6
ATOM      6  C   UNL     1       3.359   3.960  18.725  0.00  0.00    +0.000 A 
ATOM      7  C   UNL     1       2.277   3.977  17.829  0.00  0.00    +0.000 A 
ATOM      8  C   UNL     1       1.018   3.522  18.222  0.00  0.00    +0.000 A 
ATOM      9  C   UNL     1       0.828   3.045  19.516  0.00  0.00    +0.000 A 
ATOM     10  C   UNL     1       1.896   3.027  20.411  0.00  0.00    +0.000 A 
ATOM     11 CL   UNL     1       1.656   2.432  22.011  0.00  0.00    +0.000 Cl
ATOM     12  C   UNL     1       3.158   3.480  20.026  0.00  0.00    +0.000 A 
ENDBRANCH   4   6
BRANCH   1  14
ATOM     13  C   UNL     1       7.002   5.064  14.752  0.00  0.00    +0.000 C 
ATOM     14  C   UNL     1       6.992   5.596  15.988  0.00  0.00    +0.000 C 
BRANCH  13  16
ATOM     15  F   UNL     1       4.908   4.371  13.975  0.00  0.00    +0.000 F 
ATOM     16  C   UNL     1       6.171   3.935  14.223  0.00  0.00    +0.000 C 
ATOM     17  F   UNL     1       6.052   2.920  15.112  0.00  0.00    +0.000 F 
ATOM     18  F   UNL     1       6.638   3.435  13.056  0.00  0.00    +0.000 F 
ENDBRANCH  13  16
ENDBRANCH   1  14
TORSDOF 3
ENDMDL
MODEL 3
REMARK VINA RESULT:      -7.0      3.162      6.125
REMARK  Name = 
REMARK  3 active torsions:
REMARK  status: ('A' for Active; 'I' for Inactive)
REMARK    1  A    between atoms: C_2  and  C_5
REMARK    2  A    between atoms: C_6  and  N_7
REMARK    3  A    between atoms: C_10  and  C_11
REMARK                            x       y       z     vdW  Elec       q    Type
REMARK                         _______ _______ _______ _____ _____    ______ ____
ROOT
ATOM      1  N   UNL     1       6.361   5.397  17.214  0.00  0.00    +0.000 N 
ATOM      2  C   UNL     1       6.927   4.907  18.373  0.00  0.00    +0.000 A 
ATOM      3  N   UNL     1       6.006   4.587  19.251  0.00  0.00    +0.000 NA
ATOM      4  C   UNL     1       4.841   4.907  18.603  0.00  0.00    +0.000 A 
ATOM      5  N   UNL     1       5.024   5.438  17.393  0.00  0.00    +0.000 NA
ENDROOT
BRANCH   4   6
ATOM      6  C   UNL     1       3.520   4.657  19.170  0.00  0.00    +0.000 A 
ATOM      7  C   UNL     1       2.999   5.503  20.163  0.00  0.00    +0.000 A 
ATOM      8  C   UNL     1       1.725   5.286  20.689  0.00  0.00    +0.000 A 
ATOM      9  C   UNL     1       0.958   4.219  20.226  0.00  0.00    +0.000 A 
ATOM     10  C   UNL     1       1.470   3.375  19.242  0.00  0.00    +0.000 A 
ATOM     11 CL   UNL     1       0.516   2.058  18.671  0.00  0.00    +0.000 Cl
ATOM     12  C   UNL     1       2.743   3.586  18.712  0.00  0.00    +0.000 A 
ENDBRANCH   4   6
BRANCH   1  14
ATOM     13  C   UNL     1       6.982   5.097  14.869  0.00  0.00    +0.000 C 
ATOM     14  C   UNL     1       7.049   5.741  16.049  0.00  0.00    +0.000 C 
BRANCH  13  16
ATOM     15  F   UNL     1       4.824   4.357  14.355  0.00  0.00    +0.000 F 
ATOM     16  C   UNL     1       6.110   3.938  14.495  0.00  0.00    +0.000 C 
ATOM     17  F   UNL     1       6.091   2.976  15.448  0.00  0.00    +0.000 F 
ATOM     18  F   UNL     1       6.457   3.373  13.315  0.00  0.00    +0.000 F 
ENDBRANCH  13  16
ENDBRANCH   1  14
TORSDOF 3
ENDMDL
MODEL 4
REMARK VINA RESULT:      -7.0      1.581      1.986
REMARK  Name = 
REMARK  3 active torsions:
REMARK  status: ('A' for Active; 'I' for Inactive)
REMARK    1  A    between atoms: C_2  and  C_5
REMARK    2  A    between atoms: C_6  and  N_7
REMARK    3  A    between atoms: C_10  and  C_11
REMARK                            x       y       z     vdW  Elec       q    Type
REMARK                         _______ _______ _______ _____ _____    ______ ____
ROOT
ATOM      1  N   UNL     1       5.558   4.849  17.902  0.00  0.00    +0.000 N 
ATOM      2  C   UNL     1       6.921   4.716  18.072  0.00  0.00    +0.000 A 
ATOM      3  N   UNL     1       7.526   4.545  16.920  0.00  0.00    +0.000 NA
ATOM      4  C   UNL     1       6.490   4.563  16.023  0.00  0.00    +0.000 A 
ATOM      5  N   UNL     1       5.289   4.700  16.588  0.00  0.00    +0.000 NA
ENDROOT
BRANCH   4   6
ATOM      6  C   UNL     1       6.684   4.478  14.580  0.00  0.00    +0.000 A 
ATOM      7  C   UNL     1       7.614   5.311  13.935  0.00  0.00    +0.000 A 
ATOM      8  C   UNL     1       7.825   5.214  12.559  0.00  0.00    +0.000 A 
ATOM      9  C   UNL     1       7.107   4.283  11.814  0.00  0.00    +0.000 A 
ATOM     10  C   UNL     1       6.183   3.454  12.446  0.00  0.00    +0.000 A 
ATOM     11 CL   UNL     1       5.300   2.300  11.520  0.00  0.00    +0.000 Cl
ATOM     12  C   UNL     1       5.967   3.544  13.822  0.00  0.00    +0.000 A 
ENDBRANCH   4   6
BRANCH   1  14
ATOM     13  C   UNL     1       3.815   4.252  19.509  0.00  0.00    +0.000 C 
ATOM     14  C   UNL     1       4.633   5.136  18.907  0.00  0.00    +0.000 C 
BRANCH  13  16
ATOM     15  F   UNL     1       4.875   2.195  19.842  0.00  0.00    +0.000 F 
ATOM     16  C   UNL     1       3.758   2.768  19.320  0.00  0.00    +0.000 C 
ATOM     17  F   UNL     1       3.727   2.413  18.013  0.00  0.00    +0.000 F 
ATOM     18  F   UNL     1       2.706   2.194  19.949  0.00  0.00    +0.000 F 
ENDBRANCH  13  16
ENDBRANCH   1  14
TORSDOF 3
ENDMDL
MODEL 5
REMARK VINA RESULT:      -6.9      0.585      1.098
REMARK  Name = 
REMARK  3 active torsions:
REMARK  status: ('A' for Active; 'I' for Inactive)
REMARK    1  A    between atoms: C_2  and  C_5
REMARK    2  A    between atoms: C_6  and  N_7
REMARK    3  A    between atoms: C_10  and  C_11
REMARK                            x       y       z     vdW  Elec       q    Type
REMARK                         _______ _______ _______ _____ _____    ______ ____
ROOT
ATOM      1  N   UNL     1       5.225   4.740  17.791  0.00  0.00    +0.000 N 
ATOM      2  C   UNL     1       5.578   6.061  17.604  0.00  0.00    +0.000 A 
ATOM      3  N   UNL     1       6.071   6.252  16.404  0.00  0.00    +0.000 NA
ATOM      4  C   UNL     1       6.026   4.999  15.850  0.00  0.00    +0.000 A 
ATOM      5  N   UNL     1       5.564   4.059  16.676  0.00  0.00    +0.000 NA
ENDROOT
BRANCH   4   6
ATOM      6  C   UNL     1       6.415   4.724  14.471  0.00  0.00    +0.000 A 
ATOM      7  C   UNL     1       7.477   5.426  13.876  0.00  0.00    +0.000 A 
ATOM      8  C   UNL     1       7.872   5.147  12.567  0.00  0.00    +0.000 A 
ATOM      9  C   UNL     1       7.209   4.162  11.840  0.00  0.00    +0.000 A 
ATOM     10  C   UNL     1       6.154   3.462  12.423  0.00  0.00    +0.000 A 
ATOM     11 CL   UNL     1       5.339   2.242  11.520  0.00  0.00    +0.000 Cl
ATOM     12  C   UNL     1       5.753   3.735  13.732  0.00  0.00    +0.000 A 
ENDBRANCH   4   6
BRANCH   1  14
ATOM     13  C   UNL     1       3.260   4.047  19.071  0.00  0.00    +0.000 C 
ATOM     14  C   UNL     1       4.587   4.215  18.917  0.00  0.00    +0.000 C 
BRANCH  13  16
ATOM     15  F   UNL     1       2.375   3.506  16.975  0.00  0.00    +0.000 F 
ATOM     16  C   UNL     1       2.175   4.289  18.067  0.00  0.00    +0.000 C 
ATOM     17  F   UNL     1       2.161   5.567  17.618  0.00  0.00    +0.000 F 
ATOM     18  F   UNL     1       0.943   3.981  18.536  0.00  0.00    +0.000 F 
ENDBRANCH  13  16
ENDBRANCH   1  14
TORSDOF 3
ENDMDL
MODEL 6
REMARK VINA RESULT:      -6.9      2.231      2.930
REMARK  Name = 
REMARK  3 active torsions:
REMARK  status: ('A' for Active; 'I' for Inactive)
REMARK    1  A    between atoms: C_2  and  C_5
REMARK    2  A    between atoms: C_6  and  N_7
REMARK    3  A    between atoms: C_10  and  C_11
REMARK                            x       y       z     vdW  Elec       q    Type
REMARK                         _______ _______ _______ _____ _____    ______ ____
ROOT
ATOM      1  N   UNL     1       2.248   4.297  18.425  0.00  0.00    +0.000 N 
ATOM      2  C   UNL     1       2.600   5.582  18.784  0.00  0.00    +0.000 A 
ATOM      3  N   UNL     1       3.667   5.978  18.133  0.00  0.00    +0.000 NA
ATOM      4  C   UNL     1       3.978   4.890  17.361  0.00  0.00    +0.000 A 
ATOM      5  N   UNL     1       3.168   3.846  17.548  0.00  0.00    +0.000 NA
ENDROOT
BRANCH   4   6
ATOM      6  C   UNL     1       5.073   4.883  16.397  0.00  0.00    +0.000 A 
ATOM      7  C   UNL     1       6.301   5.490  16.709  0.00  0.00    +0.000 A 
ATOM      8  C   UNL     1       7.361   5.463  15.802  0.00  0.00    +0.000 A 
ATOM      9  C   UNL     1       7.204   4.828  14.572  0.00  0.00    +0.000 A 
ATOM     10  C   UNL     1       5.988   4.225  14.256  0.00  0.00    +0.000 A 
ATOM     11 CL   UNL     1       5.799   3.438  12.735  0.00  0.00    +0.000 Cl
ATOM     12  C   UNL     1       4.923   4.248  15.157  0.00  0.00    +0.000 A 
ENDBRANCH   4   6
BRANCH   1  14
ATOM     13  C   UNL     1       0.955   3.009  20.052  0.00  0.00    +0.000 C 
ATOM     14  C   UNL     1       1.112   3.609  18.857  0.00  0.00    +0.000 C 
BRANCH  13  16
ATOM     15  F   UNL     1       3.115   2.553  20.823  0.00  0.00    +0.000 F 
ATOM     16  C   UNL     1       1.896   3.006  21.217  0.00  0.00    +0.000 C 
ATOM     17  F   UNL     1       1.489   2.180  22.209  0.00  0.00    +0.000 F 
ATOM     18  F   UNL     1       2.098   4.240  21.736  0.00  0.00    +0.000 F 
ENDBRANCH  13  16
ENDBRANCH   1  14
TORSDOF 3
ENDMDL
MODEL 7
REMARK VINA RESULT:      -6.9      4.110      4.795
REMARK  Name = 
REMARK  3 active torsions:
REMARK  status: ('A' for Active; 'I' for Inactive)
REMARK    1  A    between atoms: C_2  and  C_5
REMARK    2  A    between atoms: C_6  and  N_7
REMARK    3  A    between atoms: C_10  and  C_11
REMARK                            x       y       z     vdW  Elec       q    Type
REMARK                         _______ _______ _______ _____ _____    ______ ____
ROOT
ATOM      1  N   UNL     1       2.221   3.893  18.274  0.00  0.00    +0.000 N 
ATOM      2  C   UNL     1       2.806   3.133  17.281  0.00  0.00    +0.000 A 
ATOM      3  N   UNL     1       4.023   3.550  17.023  0.00  0.00    +0.000 NA
ATOM      4  C   UNL     1       4.175   4.606  17.883  0.00  0.00    +0.000 A 
ATOM      5  N   UNL     1       3.091   4.866  18.617  0.00  0.00    +0.000 NA
ENDROOT
BRANCH   4   6
ATOM      6  C   UNL     1       5.419   5.358  18.010  0.00  0.00    +0.000 A 
ATOM      7  C   UNL     1       5.691   6.436  17.151  0.00  0.00    +0.000 A 
ATOM      8  C   UNL     1       6.866   7.176  17.286  0.00  0.00    +0.000 A 
ATOM      9  C   UNL     1       7.782   6.845  18.282  0.00  0.00    +0.000 A 
ATOM     10  C   UNL     1       7.519   5.777  19.136  0.00  0.00    +0.000 A 
ATOM     11 CL   UNL     1       8.653   5.373  20.369  0.00  0.00    +0.000 Cl
ATOM     12  C   UNL     1       6.346   5.032  19.008  0.00  0.00    +0.000 A 
ENDBRANCH   4   6
BRANCH   1  14
ATOM     13  C   UNL     1       0.744   3.262  20.118  0.00  0.00    +0.000 C 
ATOM     14  C   UNL     1       0.971   3.661  18.852  0.00  0.00    +0.000 C 
BRANCH  13  16
ATOM     15  F   UNL     1       2.177   4.266  21.670  0.00  0.00    +0.000 F 
ATOM     16  C   UNL     1       1.741   3.061  21.217  0.00  0.00    +0.000 C 
ATOM     17  F   UNL     1       2.843   2.393  20.800  0.00  0.00    +0.000 F 
ATOM     18  F   UNL     1       1.223   2.415  22.288  0.00  0.00    +0.000 F 
ENDBRANCH  13  16
ENDBRANCH   1  14
TORSDOF 3
ENDMDL
MODEL 8
REMARK VINA RESULT:      -6.8      1.079      1.288
REMARK  Name = 
REMARK  3 active torsions:
REMARK  status: ('A' for Active; 'I' for Inactive)
REMARK    1  A    between atoms: C_2  and  C_5
REMARK    2  A    between atoms: C_6  and  N_7
REMARK    3  A    between atoms: C_10  and  C_11
REMARK                            x       y       z     vdW  Elec       q    Type
REMARK                         _______ _______ _______ _____ _____    ______ ____
ROOT
ATOM      1  N   UNL     1       4.973   5.253  17.726  0.00  0.00    +0.000 N 
ATOM      2  C   UNL     1       6.214   4.766  18.082  0.00  0.00    +0.000 A 
ATOM      3  N   UNL     1       6.907   4.420  17.022  0.00  0.00    +0.000 NA
ATOM      4  C   UNL     1       6.049   4.697  15.990  0.00  0.00    +0.000 A 
ATOM      5  N   UNL     1       4.860   5.158  16.385  0.00  0.00    +0.000 NA
ENDROOT
BRANCH   4   6
ATOM      6  C   UNL     1       6.413   4.537  14.587  0.00  0.00    +0.000 A 
ATOM      7  C   UNL     1       7.448   5.305  14.027  0.00  0.00    +0.000 A 
ATOM      8  C   UNL     1       7.820   5.137  12.693  0.00  0.00    +0.000 A 
ATOM      9  C   UNL     1       7.159   4.199  11.904  0.00  0.00    +0.000 A 
ATOM     10  C   UNL     1       6.131   3.435  12.452  0.00  0.00    +0.000 A 
ATOM     11 CL   UNL     1       5.319   2.272  11.472  0.00  0.00    +0.000 Cl
ATOM     12  C   UNL     1       5.753   3.597  13.785  0.00  0.00    +0.000 A 
ENDBRANCH   4   6
BRANCH   1  14
ATOM     13  C   UNL     1       2.823   5.265  18.890  0.00  0.00    +0.000 C 
ATOM     14  C   UNL     1       4.026   5.794  18.599  0.00  0.00    +0.000 C 
BRANCH  13  16
ATOM     15  F   UNL     1       1.071   3.726  19.065  0.00  0.00    +0.000 F 
ATOM     16  C   UNL     1       2.253   3.957  18.435  0.00  0.00    +0.000 C 
ATOM     17  F   UNL     1       3.055   2.909  18.741  0.00  0.00    +0.000 F 
ATOM     18  F   UNL     1       1.990   3.928  17.108  0.00  0.00    +0.000 F 
ENDBRANCH  13  16
ENDBRANCH   1  14
TORSDOF 3
ENDMDL
MODEL 9
REMARK VINA RESULT:      -6.8      4.531      6.763
REMARK  Name = 
REMARK  3 active torsions:
REMARK  status: ('A' for Active; 'I' for Inactive)
REMARK    1  A    between atoms: C_2  and  C_5
REMARK    2  A    between atoms: C_6  and  N_7
REMARK    3  A    between atoms: C_10  and  C_11
REMARK                            x       y       z     vdW  Elec       q    Type
REMARK                         _______ _______ _______ _____ _____    ______ ____
ROOT
ATOM      1  N   UNL     1       5.107   4.965  17.553  0.00  0.00    +0.000 N 
ATOM      2  C   UNL     1       3.941   4.238  17.431  0.00  0.00    +0.000 A 
ATOM      3  N   UNL     1       2.898   4.958  17.771  0.00  0.00    +0.000 NA
ATOM      4  C   UNL     1       3.456   6.160  18.122  0.00  0.00    +0.000 A 
ATOM      5  N   UNL     1       4.788   6.180  18.044  0.00  0.00    +0.000 NA
ENDROOT
BRANCH   4   6
ATOM      6  C   UNL     1       2.665   7.322  18.511  0.00  0.00    +0.000 A 
ATOM      7  C   UNL     1       2.402   8.347  17.586  0.00  0.00    +0.000 A 
ATOM      8  C   UNL     1       1.622   9.448  17.943  0.00  0.00    +0.000 A 
ATOM      9  C   UNL     1       1.097   9.535  19.230  0.00  0.00    +0.000 A 
ATOM     10  C   UNL     1       1.356   8.523  20.153  0.00  0.00    +0.000 A 
ATOM     11 CL   UNL     1       0.701   8.634  21.743  0.00  0.00    +0.000 Cl
ATOM     12  C   UNL     1       2.134   7.419  19.803  0.00  0.00    +0.000 A 
ENDBRANCH   4   6
BRANCH   1  14
ATOM     13  C   UNL     1       6.863   4.453  15.930  0.00  0.00    +0.000 C 
ATOM     14  C   UNL     1       6.383   4.532  17.185  0.00  0.00    +0.000 C 
BRANCH  13  16
ATOM     15  F   UNL     1       5.549   6.059  14.853  0.00  0.00    +0.000 F 
ATOM     16  C   UNL     1       6.200   4.883  14.658  0.00  0.00    +0.000 C 
ATOM     17  F   UNL     1       5.265   3.998  14.237  0.00  0.00    +0.000 F 
ATOM     18  F   UNL     1       7.079   5.096  13.650  0.00  0.00    +0.000 F 
ENDBRANCH  13  16
ENDBRANCH   1  14
TORSDOF 3
ENDMDL
