MODEL 1
REMARK VINA RESULT:      -7.7      0.000      0.000
REMARK  Name = 
REMARK  4 active torsions:
REMARK  status: ('A' for Active; 'I' for Inactive)
REMARK    1  A    between atoms: C_2  and  O_3
REMARK    2  A    between atoms: C_2  and  C_4
REMARK    3  A    between atoms: C_9  and  C_10
REMARK    4  A    between atoms: C_10  and  C_12
REMARK                            x       y       z     vdW  Elec       q    Type
REMARK                         _______ _______ _______ _____ _____    ______ ____
ROOT
ATOM      1  C   UNL     1       6.014   4.936  17.555  0.00  0.00    +0.000 A 
ATOM      2  C   UNL     1       7.033   4.390  16.744  0.00  0.00    +0.000 A 
ATOM      3  C   UNL     1       7.045   4.577  15.361  0.00  0.00    +0.000 A 
ATOM      4  C   UNL     1       6.052   5.330  14.760  0.00  0.00    +0.000 A 
ATOM      5  C   UNL     1       5.043   5.891  15.544  0.00  0.00    +0.000 A 
ATOM      6  C   UNL     1       4.985   5.673  16.938  0.00  0.00    +0.000 A 
ENDROOT
BRANCH   1   8
ATOM      7  O   UNL     1       6.613   5.401  19.792  0.00  0.00    +0.000 OA
ATOM      8  C   UNL     1       6.143   4.595  19.001  0.00  0.00    +0.000 C 
BRANCH   8   9
ATOM      9  O   UNL     1       5.577   3.449  19.417  0.00  0.00    +0.000 OA
ATOM     10  H   UNL     1       5.018   3.524  20.228  0.00  0.00    +0.000 HD
ENDBRANCH   8   9
ENDBRANCH   1   8
BRANCH   6  11
ATOM     11  C   UNL     1       3.857   6.291  17.685  0.00  0.00    +0.000 C 
ATOM     12  O   UNL     1       3.577   7.462  17.442  0.00  0.00    +0.000 OA
BRANCH  11  13
ATOM     13  C   UNL     1       2.981   5.512  18.606  0.00  0.00    +0.000 A 
ATOM     14  C   UNL     1       2.694   6.064  19.863  0.00  0.00    +0.000 A 
ATOM     15  C   UNL     1       1.772   5.446  20.710  0.00  0.00    +0.000 A 
ATOM     16  C   UNL     1       1.132   4.276  20.305  0.00  0.00    +0.000 A 
ATOM     17  C   UNL     1       1.451   3.703  19.076  0.00  0.00    +0.000 A 
ATOM     18 CL   UNL     1       0.640   2.275  18.563  0.00  0.00    +0.000 Cl
ATOM     19  C   UNL     1       2.394   4.296  18.236  0.00  0.00    +0.000 A 
ENDBRANCH  11  13
ENDBRANCH   6  11
TORSDOF 4
ENDMDL
MODEL 2
REMARK VINA RESULT:      -7.7      2.738      5.262
REMARK  Name = 
REMARK  4 active torsions:
REMARK  status: ('A' for Active; 'I' for Inactive)
REMARK    1  A    between atoms: C_2  and  O_3
REMARK    2  A    between atoms: C_2  and  C_4
REMARK    3  A    between atoms: C_9  and  C_10
REMARK    4  A    between atoms: C_10  and  C_12
REMARK                            x       y       z     vdW  Elec       q    Type
REMARK                         _______ _______ _______ _____ _____    ______ ____
ROOT
ATOM      1  C   UNL     1       3.182   2.633  19.852  0.00  0.00    +0.000 A 
ATOM      2  C   UNL     1       2.613   2.599  21.144  0.00  0.00    +0.000 A 
ATOM      3  C   UNL     1       1.526   3.402  21.486  0.00  0.00    +0.000 A 
ATOM      4  C   UNL     1       0.970   4.246  20.540  0.00  0.00    +0.000 A 
ATOM      5  C   UNL     1       1.507   4.287  19.253  0.00  0.00    +0.000 A 
ATOM      6  C   UNL     1       2.638   3.517  18.902  0.00  0.00    +0.000 A 
ENDROOT
BRANCH   1   8
ATOM      7  O   UNL     1       5.262   1.733  20.515  0.00  0.00    +0.000 OA
ATOM      8  C   UNL     1       4.363   1.738  19.686  0.00  0.00    +0.000 C 
BRANCH   8   9
ATOM      9  O   UNL     1       4.316   0.833  18.693  0.00  0.00    +0.000 OA
ATOM     10  H   UNL     1       5.139   0.304  18.563  0.00  0.00    +0.000 HD
ENDBRANCH   8   9
ENDBRANCH   1   8
BRANCH   6  11
ATOM     11  C   UNL     1       3.153   3.648  17.513  0.00  0.00    +0.000 C 
ATOM     12  O   UNL     1       2.494   3.152  16.602  0.00  0.00    +0.000 OA
BRANCH  11  13
ATOM     13  C   UNL     1       4.355   4.463  17.175  0.00  0.00    +0.000 A 
ATOM     14  C   UNL     1       4.892   5.288  18.173  0.00  0.00    +0.000 A 
ATOM     15  C   UNL     1       6.093   5.967  17.958  0.00  0.00    +0.000 A 
ATOM     16  C   UNL     1       6.763   5.824  16.745  0.00  0.00    +0.000 A 
ATOM     17  C   UNL     1       6.207   5.041  15.735  0.00  0.00    +0.000 A 
ATOM     18 CL   UNL     1       7.048   4.841  14.248  0.00  0.00    +0.000 Cl
ATOM     19  C   UNL     1       4.991   4.384  15.930  0.00  0.00    +0.000 A 
ENDBRANCH  11  13
ENDBRANCH   6  11
TORSDOF 4
ENDMDL
MODEL 3
REMARK VINA RESULT:      -7.6      2.647      5.115
REMARK  Name = 
REMARK  4 active torsions:
REMARK  status: ('A' for Active; 'I' for Inactive)
REMARK    1  A    between atoms: C_2  and  O_3
REMARK    2  A    between atoms: C_2  and  C_4
REMARK    3  A    between atoms: C_9  and  C_10
REMARK    4  A    between atoms: C_10  and  C_12
REMARK                            x       y       z     vdW  Elec       q    Type
REMARK                         _______ _______ _______ _____ _____    ______ ____
ROOT
ATOM      1  C   UNL     1       3.308   2.894  19.888  0.00  0.00    +0.000 A 
ATOM      2  C   UNL     1       2.807   2.752  21.201  0.00  0.00    +0.000 A 
ATOM      3  C   UNL     1       1.466   2.990  21.501  0.00  0.00    +0.000 A 
ATOM      4  C   UNL     1       0.590   3.357  20.494  0.00  0.00    +0.000 A 
ATOM      5  C   UNL     1       1.060   3.489  19.187  0.00  0.00    +0.000 A 
ATOM      6  C   UNL     1       2.423   3.301  18.871  0.00  0.00    +0.000 A 
ENDROOT
BRANCH   1   8
ATOM      7  O   UNL     1       5.552   3.565  19.588  0.00  0.00    +0.000 OA
ATOM      8  C   UNL     1       4.773   2.640  19.767  0.00  0.00    +0.000 C 
BRANCH   8   9
ATOM      9  O   UNL     1       5.206   1.395  20.027  0.00  0.00    +0.000 OA
ATOM     10  H   UNL     1       5.939   1.073  19.450  0.00  0.00    +0.000 HD
ENDBRANCH   8   9
ENDBRANCH   1   8
BRANCH   6  11
ATOM     11  C   UNL     1       2.833   3.490  17.454  0.00  0.00    +0.000 C 
ATOM     12  O   UNL     1       2.275   2.812  16.596  0.00  0.00    +0.000 OA
BRANCH  11  13
ATOM     13  C   UNL     1       3.787   4.554  17.029  0.00  0.00    +0.000 A 
ATOM     14  C   UNL     1       3.644   5.829  17.593  0.00  0.00    +0.000 A 
ATOM     15  C   UNL     1       4.590   6.825  17.337  0.00  0.00    +0.000 A 
ATOM     16  C   UNL     1       5.683   6.549  16.517  0.00  0.00    +0.000 A 
ATOM     17  C   UNL     1       5.801   5.295  15.919  0.00  0.00    +0.000 A 
ATOM     18 CL   UNL     1       7.165   4.946  14.930  0.00  0.00    +0.000 Cl
ATOM     19  C   UNL     1       4.844   4.305  16.144  0.00  0.00    +0.000 A 
ENDBRANCH  11  13
ENDBRANCH   6  11
TORSDOF 4
ENDMDL
MODEL 4
REMARK VINA RESULT:      -7.6      2.730      5.412
REMARK  Name = 
REMARK  4 active torsions:
REMARK  status: ('A' for Active; 'I' for Inactive)
REMARK    1  A    between atoms: C_2  and  O_3
REMARK    2  A    between atoms: C_2  and  C_4
REMARK    3  A    between atoms: C_9  and  C_10
REMARK    4  A    between atoms: C_10  and  C_12
REMARK                            x       y       z     vdW  Elec       q    Type
REMARK                         _______ _______ _______ _____ _____    ______ ____
ROOT
ATOM      1  C   UNL     1       3.298   2.624  19.870  0.00  0.00    +0.000 A 
ATOM      2  C   UNL     1       2.749   2.647  21.170  0.00  0.00    +0.000 A 
ATOM      3  C   UNL     1       1.734   3.538  21.519  0.00  0.00    +0.000 A 
ATOM      4  C   UNL     1       1.232   4.414  20.573  0.00  0.00    +0.000 A 
ATOM      5  C   UNL     1       1.749   4.399  19.277  0.00  0.00    +0.000 A 
ATOM      6  C   UNL     1       2.810   3.539  18.918  0.00  0.00    +0.000 A 
ENDROOT
BRANCH   1   8
ATOM      7  O   UNL     1       5.297   1.550  20.524  0.00  0.00    +0.000 OA
ATOM      8  C   UNL     1       4.402   1.636  19.695  0.00  0.00    +0.000 C 
BRANCH   8   9
ATOM      9  O   UNL     1       4.281   0.747  18.694  0.00  0.00    +0.000 OA
ATOM     10  H   UNL     1       3.362   0.439  18.511  0.00  0.00    +0.000 HD
ENDBRANCH   8   9
ENDBRANCH   1   8
BRANCH   6  11
ATOM     11  C   UNL     1       3.312   3.614  17.519  0.00  0.00    +0.000 C 
ATOM     12  O   UNL     1       2.541   3.313  16.611  0.00  0.00    +0.000 OA
BRANCH  11  13
ATOM     13  C   UNL     1       4.655   4.164  17.176  0.00  0.00    +0.000 A 
ATOM     14  C   UNL     1       5.028   4.192  15.826  0.00  0.00    +0.000 A 
ATOM     15  C   UNL     1       6.213   4.819  15.433  0.00  0.00    +0.000 A 
ATOM     16  C   UNL     1       7.029   5.421  16.390  0.00  0.00    +0.000 A 
ATOM     17  C   UNL     1       6.682   5.353  17.738  0.00  0.00    +0.000 A 
ATOM     18 CL   UNL     1       7.674   6.120  18.915  0.00  0.00    +0.000 Cl
ATOM     19  C   UNL     1       5.516   4.701  18.142  0.00  0.00    +0.000 A 
ENDBRANCH  11  13
ENDBRANCH   6  11
TORSDOF 4
ENDMDL
MODEL 5
REMARK VINA RESULT:      -7.6      2.341      5.116
REMARK  Name = 
REMARK  4 active torsions:
REMARK  status: ('A' for Active; 'I' for Inactive)
REMARK    1  A    between atoms: C_2  and  O_3
REMARK    2  A    between atoms: C_2  and  C_4
REMARK    3  A    between atoms: C_9  and  C_10
REMARK    4  A    between atoms: C_10  and  C_12
REMARK                            x       y       z     vdW  Elec       q    Type
REMARK                         _______ _______ _______ _____ _____    ______ ____
ROOT
ATOM      1  C   UNL     1       3.416   2.976  19.962  0.00  0.00    +0.000 A 
ATOM      2  C   UNL     1       2.199   2.566  20.551  0.00  0.00    +0.000 A 
ATOM      3  C   UNL     1       1.208   3.485  20.896  0.00  0.00    +0.000 A 
ATOM      4  C   UNL     1       1.402   4.832  20.644  0.00  0.00    +0.000 A 
ATOM      5  C   UNL     1       2.590   5.259  20.051  0.00  0.00    +0.000 A 
ATOM      6  C   UNL     1       3.625   4.350  19.738  0.00  0.00    +0.000 A 
ENDROOT
BRANCH   1   8
ATOM      7  O   UNL     1       5.216   1.558  20.532  0.00  0.00    +0.000 OA
ATOM      8  C   UNL     1       4.370   1.859  19.703  0.00  0.00    +0.000 C 
BRANCH   8   9
ATOM      9  O   UNL     1       4.154   1.105  18.611  0.00  0.00    +0.000 OA
ATOM     10  H   UNL     1       3.407   0.464  18.681  0.00  0.00    +0.000 HD
ENDBRANCH   8   9
ENDBRANCH   1   8
BRANCH   6  11
ATOM     11  C   UNL     1       4.866   4.903  19.132  0.00  0.00    +0.000 C 
ATOM     12  O   UNL     1       5.870   4.977  19.836  0.00  0.00    +0.000 OA
BRANCH  11  13
ATOM     13  C   UNL     1       4.971   5.240  17.683  0.00  0.00    +0.000 A 
ATOM     14  C   UNL     1       4.707   6.561  17.295  0.00  0.00    +0.000 A 
ATOM     15  C   UNL     1       4.923   6.965  15.975  0.00  0.00    +0.000 A 
ATOM     16  C   UNL     1       5.403   6.051  15.039  0.00  0.00    +0.000 A 
ATOM     17  C   UNL     1       5.620   4.726  15.414  0.00  0.00    +0.000 A 
ATOM     18 CL   UNL     1       6.240   3.605  14.265  0.00  0.00    +0.000 Cl
ATOM     19  C   UNL     1       5.378   4.306  16.722  0.00  0.00    +0.000 A 
ENDBRANCH  11  13
ENDBRANCH   6  11
TORSDOF 4
ENDMDL
MODEL 6
REMARK VINA RESULT:      -7.4      1.096      1.534
REMARK  Name = 
REMARK  4 active torsions:
REMARK  status: ('A' for Active; 'I' for Inactive)
REMARK    1  A    between atoms: C_2  and  O_3
REMARK    2  A    between atoms: C_2  and  C_4
REMARK    3  A    between atoms: C_9  and  C_10
REMARK    4  A    between atoms: C_10  and  C_12
REMARK                            x       y       z     vdW  Elec       q    Type
REMARK                         _______ _______ _______ _____ _____    ______ ____
ROOT
ATOM      1  C   UNL     1       6.019   4.900  17.579  0.00  0.00    +0.000 A 
ATOM      2  C   UNL     1       7.077   4.494  16.736  0.00  0.00    +0.000 A 
ATOM      3  C   UNL     1       7.063   4.758  15.367  0.00  0.00    +0.000 A 
ATOM      4  C   UNL     1       6.001   5.449  14.810  0.00  0.00    +0.000 A 
ATOM      5  C   UNL     1       4.952   5.872  15.625  0.00  0.00    +0.000 A 
ATOM      6  C   UNL     1       4.924   5.573  17.005  0.00  0.00    +0.000 A 
ENDROOT
BRANCH   1   8
ATOM      7  O   UNL     1       6.713   5.249  19.809  0.00  0.00    +0.000 OA
ATOM      8  C   UNL     1       6.189   4.493  19.004  0.00  0.00    +0.000 C 
BRANCH   8   9
ATOM      9  O   UNL     1       5.600   3.349  19.392  0.00  0.00    +0.000 OA
ATOM     10  H   UNL     1       6.060   2.862  20.118  0.00  0.00    +0.000 HD
ENDBRANCH   8   9
ENDBRANCH   1   8
BRANCH   6  11
ATOM     11  C   UNL     1       3.749   6.044  17.787  0.00  0.00    +0.000 C 
ATOM     12  O   UNL     1       3.515   7.250  17.807  0.00  0.00    +0.000 OA
BRANCH  11  13
ATOM     13  C   UNL     1       2.782   5.108  18.428  0.00  0.00    +0.000 A 
ATOM     14  C   UNL     1       1.893   4.412  17.598  0.00  0.00    +0.000 A 
ATOM     15  C   UNL     1       1.061   3.422  18.126  0.00  0.00    +0.000 A 
ATOM     16  C   UNL     1       1.115   3.125  19.487  0.00  0.00    +0.000 A 
ATOM     17  C   UNL     1       1.965   3.849  20.321  0.00  0.00    +0.000 A 
ATOM     18 CL   UNL     1       2.052   3.462  21.995  0.00  0.00    +0.000 Cl
ATOM     19  C   UNL     1       2.777   4.860  19.806  0.00  0.00    +0.000 A 
ENDBRANCH  11  13
ENDBRANCH   6  11
TORSDOF 4
ENDMDL
MODEL 7
REMARK VINA RESULT:      -7.4      2.442      5.384
REMARK  Name = 
REMARK  4 active torsions:
REMARK  status: ('A' for Active; 'I' for Inactive)
REMARK    1  A    between atoms: C_2  and  O_3
REMARK    2  A    between atoms: C_2  and  C_4
REMARK    3  A    between atoms: C_9  and  C_10
REMARK    4  A    between atoms: C_10  and  C_12
REMARK                            x       y       z     vdW  Elec       q    Type
REMARK                         _______ _______ _______ _____ _____    ______ ____
ROOT
ATOM      1  C   UNL     1       2.605   3.054  19.123  0.00  0.00    +0.000 A 
ATOM      2  C   UNL     1       1.358   2.981  19.782  0.00  0.00    +0.000 A 
ATOM      3  C   UNL     1       0.936   3.980  20.660  0.00  0.00    +0.000 A 
ATOM      4  C   UNL     1       1.741   5.083  20.885  0.00  0.00    +0.000 A 
ATOM      5  C   UNL     1       2.970   5.183  20.234  0.00  0.00    +0.000 A 
ATOM      6  C   UNL     1       3.437   4.159  19.379  0.00  0.00    +0.000 A 
ENDROOT
BRANCH   1   8
ATOM      7  O   UNL     1       3.733   1.046  18.601  0.00  0.00    +0.000 OA
ATOM      8  C   UNL     1       2.903   1.875  18.258  0.00  0.00    +0.000 C 
BRANCH   8   9
ATOM      9  O   UNL     1       2.114   1.681  17.187  0.00  0.00    +0.000 OA
ATOM     10  H   UNL     1       1.624   0.825  17.173  0.00  0.00    +0.000 HD
ENDBRANCH   8   9
ENDBRANCH   1   8
BRANCH   6  11
ATOM     11  C   UNL     1       4.773   4.344  18.751  0.00  0.00    +0.000 C 
ATOM     12  O   UNL     1       5.760   3.944  19.363  0.00  0.00    +0.000 OA
BRANCH  11  13
ATOM     13  C   UNL     1       4.943   4.869  17.366  0.00  0.00    +0.000 A 
ATOM     14  C   UNL     1       4.770   6.244  17.158  0.00  0.00    +0.000 A 
ATOM     15  C   UNL     1       5.051   6.811  15.912  0.00  0.00    +0.000 A 
ATOM     16  C   UNL     1       5.507   6.005  14.871  0.00  0.00    +0.000 A 
ATOM     17  C   UNL     1       5.635   4.631  15.063  0.00  0.00    +0.000 A 
ATOM     18 CL   UNL     1       6.225   3.641  13.786  0.00  0.00    +0.000 Cl
ATOM     19  C   UNL     1       5.327   4.052  16.295  0.00  0.00    +0.000 A 
ENDBRANCH  11  13
ENDBRANCH   6  11
TORSDOF 4
ENDMDL
MODEL 8
REMARK VINA RESULT:      -7.3      2.470      5.293
REMARK  Name = 
REMARK  4 active torsions:
REMARK  status: ('A' for Active; 'I' for Inactive)
REMARK    1  A    between atoms: C_2  and  O_3
REMARK    2  A    between atoms: C_2  and  C_4
REMARK    3  A    between atoms: C_9  and  C_10
REMARK    4  A    between atoms: C_10  and  C_12
REMARK                            x       y       z     vdW  Elec       q    Type
REMARK                         _______ _______ _______ _____ _____    ______ ____
ROOT
ATOM      1  C   UNL     1       2.639   3.022  19.129  0.00  0.00    +0.000 A 
ATOM      2  C   UNL     1       2.147   2.288  20.231  0.00  0.00    +0.000 A 
ATOM      3  C   UNL     1       1.877   2.901  21.455  0.00  0.00    +0.000 A 
ATOM      4  C   UNL     1       2.074   4.263  21.601  0.00  0.00    +0.000 A 
ATOM      5  C   UNL     1       2.546   5.010  20.522  0.00  0.00    +0.000 A 
ATOM      6  C   UNL     1       2.872   4.401  19.290  0.00  0.00    +0.000 A 
ENDROOT
BRANCH   1   8
ATOM      7  O   UNL     1       2.198   2.283  16.930  0.00  0.00    +0.000 OA
ATOM      8  C   UNL     1       2.910   2.191  17.920  0.00  0.00    +0.000 C 
BRANCH   8   9
ATOM      9  O   UNL     1       4.047   1.475  17.906  0.00  0.00    +0.000 OA
ATOM     10  H   UNL     1       4.499   1.381  18.778  0.00  0.00    +0.000 HD
ENDBRANCH   8   9
ENDBRANCH   1   8
BRANCH   6  11
ATOM     11  C   UNL     1       3.394   5.277  18.207  0.00  0.00    +0.000 C 
ATOM     12  O   UNL     1       2.719   6.248  17.874  0.00  0.00    +0.000 OA
BRANCH  11  13
ATOM     13  C   UNL     1       4.749   5.098  17.611  0.00  0.00    +0.000 A 
ATOM     14  C   UNL     1       5.859   5.197  18.461  0.00  0.00    +0.000 A 
ATOM     15  C   UNL     1       7.139   4.904  17.987  0.00  0.00    +0.000 A 
ATOM     16  C   UNL     1       7.315   4.510  16.662  0.00  0.00    +0.000 A 
ATOM     17  C   UNL     1       6.218   4.456  15.804  0.00  0.00    +0.000 A 
ATOM     18 CL   UNL     1       6.432   3.942  14.177  0.00  0.00    +0.000 Cl
ATOM     19  C   UNL     1       4.940   4.778  16.261  0.00  0.00    +0.000 A 
ENDBRANCH  11  13
ENDBRANCH   6  11
TORSDOF 4
ENDMDL
MODEL 9
REMARK VINA RESULT:      -7.3      2.833      5.431
REMARK  Name = 
REMARK  4 active torsions:
REMARK  status: ('A' for Active; 'I' for Inactive)
REMARK    1  A    between atoms: C_2  and  O_3
REMARK    2  A    between atoms: C_2  and  C_4
REMARK    3  A    between atoms: C_9  and  C_10
REMARK    4  A    between atoms: C_10  and  C_12
REMARK                            x       y       z     vdW  Elec       q    Type
REMARK                         _______ _______ _______ _____ _____    ______ ____
ROOT
ATOM      1  C   UNL     1       1.852   5.314  20.109  0.00  0.00    +0.000 A 
ATOM      2  C   UNL     1       1.378   6.412  20.859  0.00  0.00    +0.000 A 
ATOM      3  C   UNL     1       1.527   7.724  20.409  0.00  0.00    +0.000 A 
ATOM      4  C   UNL     1       2.137   7.968  19.191  0.00  0.00    +0.000 A 
ATOM      5  C   UNL     1       2.600   6.897  18.426  0.00  0.00    +0.000 A 
ATOM      6  C   UNL     1       2.503   5.566  18.886  0.00  0.00    +0.000 A 
ENDROOT
BRANCH   1   8
ATOM      7  O   UNL     1       2.235   3.710  21.799  0.00  0.00    +0.000 OA
ATOM      8  C   UNL     1       1.642   3.992  20.768  0.00  0.00    +0.000 C 
BRANCH   8   9
ATOM      9  O   UNL     1       0.665   3.209  20.281  0.00  0.00    +0.000 OA
ATOM     10  H   UNL     1       0.956   2.326  19.950  0.00  0.00    +0.000 HD
ENDBRANCH   8   9
ENDBRANCH   1   8
BRANCH   6  11
ATOM     11  C   UNL     1       3.049   4.494  18.011  0.00  0.00    +0.000 C 
ATOM     12  O   UNL     1       2.259   3.699  17.509  0.00  0.00    +0.000 OA
BRANCH  11  13
ATOM     13  C   UNL     1       4.486   4.432  17.618  0.00  0.00    +0.000 A 
ATOM     14  C   UNL     1       4.794   4.027  16.312  0.00  0.00    +0.000 A 
ATOM     15  C   UNL     1       6.110   4.081  15.847  0.00  0.00    +0.000 A 
ATOM     16  C   UNL     1       7.123   4.542  16.686  0.00  0.00    +0.000 A 
ATOM     17  C   UNL     1       6.825   4.900  18.000  0.00  0.00    +0.000 A 
ATOM     18 CL   UNL     1       8.071   5.495  19.026  0.00  0.00    +0.000 Cl
ATOM     19  C   UNL     1       5.518   4.819  18.482  0.00  0.00    +0.000 A 
ENDBRANCH  11  13
ENDBRANCH   6  11
TORSDOF 4
ENDMDL
