MODEL 1
REMARK VINA RESULT:      -9.3      0.000      0.000
REMARK  Name = 
REMARK  6 active torsions:
REMARK  status: ('A' for Active; 'I' for Inactive)
REMARK    1  A    between atoms: C_2  and  C_22
REMARK    2  A    between atoms: N_3  and  C_4
REMARK    3  A    between atoms: C_4  and  C_5
REMARK    4  A    between atoms: C_6  and  C_7
REMARK    5  A    between atoms: C_7  and  N_8
REMARK    6  A    between atoms: N_11  and  C_12
REMARK                            x       y       z     vdW  Elec       q    Type
REMARK                         _______ _______ _______ _____ _____    ______ ____
ROOT
ATOM      1  C   UNL     1       8.297  10.835  17.798  0.00  0.00    +0.000 C 
ENDROOT
BRANCH   1   4
ATOM      2  O   UNL     1      11.061  11.328  17.956  0.00  0.00    +0.000 OA
ATOM      3  C   UNL     1      10.281  12.194  18.327  0.00  0.00    +0.000 C 
ATOM      4  N   UNL     1       8.912  12.022  18.335  0.00  0.00    +0.000 N 
ATOM      5  H   UNL     1       8.302  12.742  18.687  0.00  0.00    +0.000 HD
BRANCH   3   6
ATOM      6  C   UNL     1      10.767  13.502  18.841  0.00  0.00    +0.000 A 
ATOM      7  C   UNL     1      11.543  14.307  17.979  0.00  0.00    +0.000 A 
ATOM      8  C   UNL     1      11.975  15.586  18.360  0.00  0.00    +0.000 A 
ATOM      9  C   UNL     1      11.613  16.107  19.595  0.00  0.00    +0.000 A 
ATOM     10  C   UNL     1      10.842  15.318  20.438  0.00  0.00    +0.000 A 
ATOM     11  C   UNL     1      10.422  14.005  20.098  0.00  0.00    +0.000 A 
ATOM     12  C   UNL     1       9.688  13.469  21.243  0.00  0.00    +0.000 A 
ATOM     13  C   UNL     1       9.141  12.222  21.505  0.00  0.00    +0.000 A 
ATOM     14  C   UNL     1       8.463  12.008  22.712  0.00  0.00    +0.000 A 
ATOM     15  C   UNL     1       8.345  13.030  23.666  0.00  0.00    +0.000 A 
ATOM     16  C   UNL     1       8.919  14.275  23.435  0.00  0.00    +0.000 A 
ATOM     17  C   UNL     1       9.590  14.473  22.235  0.00  0.00    +0.000 A 
ATOM     18  C   UNL     1      10.314  15.721  21.799  0.00  0.00    +0.000 C 
ENDBRANCH   3   6
ENDBRANCH   1   4
BRANCH   1  19
ATOM     19  C   UNL     1       8.780   9.659  18.586  0.00  0.00    +0.000 C 
ATOM     20  C   UNL     1       8.407   8.379  18.410  0.00  0.00    +0.000 C 
BRANCH  20  21
ATOM     21  C   UNL     1       7.448   7.871  17.370  0.00  0.00    +0.000 C 
BRANCH  21  22
ATOM     22  N   UNL     1       7.521   6.416  17.185  0.00  0.00    +0.000 NA
ATOM     23  C   UNL     1       7.369   5.672  18.455  0.00  0.00    +0.000 C 
ATOM     24  C   UNL     1       5.956   5.697  19.079  0.00  0.00    +0.000 C 
ATOM     25  N   UNL     1       4.935   5.316  18.089  0.00  0.00    +0.000 N 
ATOM     26  C   UNL     1       5.038   6.005  16.788  0.00  0.00    +0.000 C 
ATOM     27  C   UNL     1       6.484   5.937  16.245  0.00  0.00    +0.000 C 
BRANCH  25  28
ATOM     28  C   UNL     1       3.971   4.343  18.344  0.00  0.00    +0.000 A 
ATOM     29  C   UNL     1       4.052   3.108  17.663  0.00  0.00    +0.000 A 
ATOM     30  C   UNL     1       3.155   2.059  17.877  0.00  0.00    +0.000 A 
ATOM     31  C   UNL     1       2.154   2.193  18.824  0.00  0.00    +0.000 A 
ATOM     32  C   UNL     1       2.028   3.390  19.527  0.00  0.00    +0.000 A 
ATOM     33 CL   UNL     1       0.756   3.462  20.705  0.00  0.00    +0.000 Cl
ATOM     34  C   UNL     1       2.902   4.471  19.278  0.00  0.00    +0.000 A 
ATOM     35 CL   UNL     1       2.544   5.996  20.050  0.00  0.00    +0.000 Cl
ENDBRANCH  25  28
ENDBRANCH  21  22
ENDBRANCH  20  21
ENDBRANCH   1  19
TORSDOF 6
ENDMDL
MODEL 2
REMARK VINA RESULT:      -9.1      7.595     11.497
REMARK  Name = 
REMARK  6 active torsions:
REMARK  status: ('A' for Active; 'I' for Inactive)
REMARK    1  A    between atoms: C_2  and  C_22
REMARK    2  A    between atoms: N_3  and  C_4
REMARK    3  A    between atoms: C_4  and  C_5
REMARK    4  A    between atoms: C_6  and  C_7
REMARK    5  A    between atoms: C_7  and  N_8
REMARK    6  A    between atoms: N_11  and  C_12
REMARK                            x       y       z     vdW  Elec       q    Type
REMARK                         _______ _______ _______ _____ _____    ______ ____
ROOT
ATOM      1  C   UNL     1       1.415   9.574  18.135  0.00  0.00    +0.000 C 
ENDROOT
BRANCH   1   4
ATOM      2  O   UNL     1       2.637   7.460  19.530  0.00  0.00    +0.000 OA
ATOM      3  C   UNL     1       2.764   7.522  18.315  0.00  0.00    +0.000 C 
ATOM      4  N   UNL     1       2.245   8.550  17.554  0.00  0.00    +0.000 N 
ATOM      5  H   UNL     1       2.405   8.590  16.561  0.00  0.00    +0.000 HD
BRANCH   3   6
ATOM      6  C   UNL     1       3.536   6.495  17.566  0.00  0.00    +0.000 A 
ATOM      7  C   UNL     1       4.503   6.938  16.638  0.00  0.00    +0.000 A 
ATOM      8  C   UNL     1       5.325   6.035  15.948  0.00  0.00    +0.000 A 
ATOM      9  C   UNL     1       5.227   4.672  16.193  0.00  0.00    +0.000 A 
ATOM     10  C   UNL     1       4.282   4.238  17.113  0.00  0.00    +0.000 A 
ATOM     11  C   UNL     1       3.408   5.123  17.798  0.00  0.00    +0.000 A 
ATOM     12  C   UNL     1       2.522   4.310  18.630  0.00  0.00    +0.000 A 
ATOM     13  C   UNL     1       1.432   4.626  19.426  0.00  0.00    +0.000 A 
ATOM     14  C   UNL     1       0.780   3.608  20.134  0.00  0.00    +0.000 A 
ATOM     15  C   UNL     1       1.202   2.273  20.036  0.00  0.00    +0.000 A 
ATOM     16  C   UNL     1       2.271   1.935  19.214  0.00  0.00    +0.000 A 
ATOM     17  C   UNL     1       2.907   2.953  18.516  0.00  0.00    +0.000 A 
ATOM     18  C   UNL     1       4.052   2.806  17.546  0.00  0.00    +0.000 C 
ENDBRANCH   3   6
ENDBRANCH   1   4
BRANCH   1  19
ATOM     19  C   UNL     1       2.209  10.841  18.200  0.00  0.00    +0.000 C 
ATOM     20  C   UNL     1       1.746  12.049  18.563  0.00  0.00    +0.000 C 
BRANCH  20  21
ATOM     21  C   UNL     1       0.342  12.365  18.999  0.00  0.00    +0.000 C 
BRANCH  21  22
ATOM     22  N   UNL     1       0.281  12.986  20.329  0.00  0.00    +0.000 NA
ATOM     23  C   UNL     1      -0.731  14.063  20.408  0.00  0.00    +0.000 C 
ATOM     24  C   UNL     1      -2.203  13.600  20.366  0.00  0.00    +0.000 C 
ATOM     25  N   UNL     1      -2.450  12.534  21.351  0.00  0.00    +0.000 N 
ATOM     26  C   UNL     1      -1.467  11.434  21.342  0.00  0.00    +0.000 C 
ATOM     27  C   UNL     1      -0.024  11.990  21.378  0.00  0.00    +0.000 C 
BRANCH  25  28
ATOM     28  C   UNL     1      -3.508  12.583  22.257  0.00  0.00    +0.000 A 
ATOM     29  C   UNL     1      -3.228  12.487  23.638  0.00  0.00    +0.000 A 
ATOM     30  C   UNL     1      -4.216  12.561  24.624  0.00  0.00    +0.000 A 
ATOM     31  C   UNL     1      -5.534  12.778  24.261  0.00  0.00    +0.000 A 
ATOM     32  C   UNL     1      -5.868  12.881  22.911  0.00  0.00    +0.000 A 
ATOM     33 CL   UNL     1      -7.541  13.169  22.550  0.00  0.00    +0.000 Cl
ATOM     34  C   UNL     1      -4.880  12.758  21.909  0.00  0.00    +0.000 A 
ATOM     35 CL   UNL     1      -5.414  12.691  20.248  0.00  0.00    +0.000 Cl
ENDBRANCH  25  28
ENDBRANCH  21  22
ENDBRANCH  20  21
ENDBRANCH   1  19
TORSDOF 6
ENDMDL
MODEL 3
REMARK VINA RESULT:      -9.1      7.735     11.550
REMARK  Name = 
REMARK  6 active torsions:
REMARK  status: ('A' for Active; 'I' for Inactive)
REMARK    1  A    between atoms: C_2  and  C_22
REMARK    2  A    between atoms: N_3  and  C_4
REMARK    3  A    between atoms: C_4  and  C_5
REMARK    4  A    between atoms: C_6  and  C_7
REMARK    5  A    between atoms: C_7  and  N_8
REMARK    6  A    between atoms: N_11  and  C_12
REMARK                            x       y       z     vdW  Elec       q    Type
REMARK                         _______ _______ _______ _____ _____    ______ ____
ROOT
ATOM      1  C   UNL     1       1.397   9.597  18.154  0.00  0.00    +0.000 C 
ENDROOT
BRANCH   1   4
ATOM      2  O   UNL     1       2.717   7.557  19.570  0.00  0.00    +0.000 OA
ATOM      3  C   UNL     1       2.766   7.559  18.348  0.00  0.00    +0.000 C 
ATOM      4  N   UNL     1       2.194   8.547  17.573  0.00  0.00    +0.000 N 
ATOM      5  H   UNL     1       2.290   8.538  16.570  0.00  0.00    +0.000 HD
BRANCH   3   6
ATOM      6  C   UNL     1       3.493   6.498  17.602  0.00  0.00    +0.000 A 
ATOM      7  C   UNL     1       4.435   6.898  16.629  0.00  0.00    +0.000 A 
ATOM      8  C   UNL     1       5.217   5.961  15.937  0.00  0.00    +0.000 A 
ATOM      9  C   UNL     1       5.104   4.607  16.224  0.00  0.00    +0.000 A 
ATOM     10  C   UNL     1       4.184   4.216  17.188  0.00  0.00    +0.000 A 
ATOM     11  C   UNL     1       3.350   5.136  17.877  0.00  0.00    +0.000 A 
ATOM     12  C   UNL     1       2.480   4.362  18.761  0.00  0.00    +0.000 A 
ATOM     13  C   UNL     1       1.424   4.719  19.585  0.00  0.00    +0.000 A 
ATOM     14  C   UNL     1       0.779   3.733  20.344  0.00  0.00    +0.000 A 
ATOM     15  C   UNL     1       1.175   2.389  20.269  0.00  0.00    +0.000 A 
ATOM     16  C   UNL     1       2.208   2.009  19.420  0.00  0.00    +0.000 A 
ATOM     17  C   UNL     1       2.837   2.995  18.673  0.00  0.00    +0.000 A 
ATOM     18  C   UNL     1       3.945   2.801  17.668  0.00  0.00    +0.000 C 
ENDBRANCH   3   6
ENDBRANCH   1   4
BRANCH   1  19
ATOM     19  C   UNL     1       2.151  10.883  18.028  0.00  0.00    +0.000 C 
ATOM     20  C   UNL     1       1.824  12.054  18.601  0.00  0.00    +0.000 C 
BRANCH  20  21
ATOM     21  C   UNL     1       0.647  12.300  19.504  0.00  0.00    +0.000 C 
BRANCH  21  22
ATOM     22  N   UNL     1      -0.411  13.091  18.862  0.00  0.00    +0.000 NA
ATOM     23  C   UNL     1      -1.564  12.263  18.439  0.00  0.00    +0.000 C 
ATOM     24  C   UNL     1      -2.436  11.701  19.582  0.00  0.00    +0.000 C 
ATOM     25  N   UNL     1      -2.833  12.766  20.517  0.00  0.00    +0.000 N 
ATOM     26  C   UNL     1      -1.736  13.644  20.967  0.00  0.00    +0.000 C 
ATOM     27  C   UNL     1      -0.913  14.153  19.760  0.00  0.00    +0.000 C 
BRANCH  25  28
ATOM     28  C   UNL     1      -4.155  12.960  20.913  0.00  0.00    +0.000 A 
ATOM     29  C   UNL     1      -5.102  13.371  19.950  0.00  0.00    +0.000 A 
ATOM     30  C   UNL     1      -6.456  13.556  20.242  0.00  0.00    +0.000 A 
ATOM     31  C   UNL     1      -6.926  13.296  21.517  0.00  0.00    +0.000 A 
ATOM     32  C   UNL     1      -6.035  12.887  22.508  0.00  0.00    +0.000 A 
ATOM     33 CL   UNL     1      -6.715  12.567  24.073  0.00  0.00    +0.000 Cl
ATOM     34  C   UNL     1      -4.658  12.745  22.230  0.00  0.00    +0.000 A 
ATOM     35 CL   UNL     1      -3.587  12.433  23.574  0.00  0.00    +0.000 Cl
ENDBRANCH  25  28
ENDBRANCH  21  22
ENDBRANCH  20  21
ENDBRANCH   1  19
TORSDOF 6
ENDMDL
MODEL 4
REMARK VINA RESULT:      -9.0      7.736     12.015
REMARK  Name = 
REMARK  6 active torsions:
REMARK  status: ('A' for Active; 'I' for Inactive)
REMARK    1  A    between atoms: C_2  and  C_22
REMARK    2  A    between atoms: N_3  and  C_4
REMARK    3  A    between atoms: C_4  and  C_5
REMARK    4  A    between atoms: C_6  and  C_7
REMARK    5  A    between atoms: C_7  and  N_8
REMARK    6  A    between atoms: N_11  and  C_12
REMARK                            x       y       z     vdW  Elec       q    Type
REMARK                         _______ _______ _______ _____ _____    ______ ____
ROOT
ATOM      1  C   UNL     1       2.087   9.228  18.334  0.00  0.00    +0.000 C 
ENDROOT
BRANCH   1   4
ATOM      2  O   UNL     1       2.196   7.729  20.710  0.00  0.00    +0.000 OA
ATOM      3  C   UNL     1       2.141   7.141  19.639  0.00  0.00    +0.000 C 
ATOM      4  N   UNL     1       2.137   7.791  18.423  0.00  0.00    +0.000 N 
ATOM      5  H   UNL     1       2.133   7.273  17.559  0.00  0.00    +0.000 HD
BRANCH   3   6
ATOM      6  C   UNL     1       2.114   5.656  19.574  0.00  0.00    +0.000 A 
ATOM      7  C   UNL     1       1.238   4.970  20.443  0.00  0.00    +0.000 A 
ATOM      8  C   UNL     1       1.097   3.576  20.391  0.00  0.00    +0.000 A 
ATOM      9  C   UNL     1       1.799   2.836  19.448  0.00  0.00    +0.000 A 
ATOM     10  C   UNL     1       2.652   3.513  18.588  0.00  0.00    +0.000 A 
ATOM     11  C   UNL     1       2.847   4.919  18.641  0.00  0.00    +0.000 A 
ATOM     12  C   UNL     1       3.850   5.261  17.634  0.00  0.00    +0.000 A 
ATOM     13  C   UNL     1       4.487   6.450  17.311  0.00  0.00    +0.000 A 
ATOM     14  C   UNL     1       5.411   6.471  16.259  0.00  0.00    +0.000 A 
ATOM     15  C   UNL     1       5.715   5.305  15.539  0.00  0.00    +0.000 A 
ATOM     16  C   UNL     1       5.113   4.098  15.874  0.00  0.00    +0.000 A 
ATOM     17  C   UNL     1       4.200   4.090  16.920  0.00  0.00    +0.000 A 
ATOM     18  C   UNL     1       3.466   2.894  17.471  0.00  0.00    +0.000 C 
ENDBRANCH   3   6
ENDBRANCH   1   4
BRANCH   1  19
ATOM     19  C   UNL     1       0.731   9.621  17.838  0.00  0.00    +0.000 C 
ATOM     20  C   UNL     1      -0.293  10.058  18.590  0.00  0.00    +0.000 C 
BRANCH  20  21
ATOM     21  C   UNL     1      -0.274  10.262  20.080  0.00  0.00    +0.000 C 
BRANCH  21  22
ATOM     22  N   UNL     1      -0.120  11.671  20.464  0.00  0.00    +0.000 NA
ATOM     23  C   UNL     1      -1.105  12.553  19.799  0.00  0.00    +0.000 C 
ATOM     24  C   UNL     1      -2.566  12.402  20.278  0.00  0.00    +0.000 C 
ATOM     25  N   UNL     1      -2.652  12.482  21.745  0.00  0.00    +0.000 N 
ATOM     26  C   UNL     1      -1.684  11.642  22.475  0.00  0.00    +0.000 C 
ATOM     27  C   UNL     1      -0.253  11.852  21.926  0.00  0.00    +0.000 C 
BRANCH  25  28
ATOM     28  C   UNL     1      -3.551  13.324  22.397  0.00  0.00    +0.000 A 
ATOM     29  C   UNL     1      -4.926  13.001  22.376  0.00  0.00    +0.000 A 
ATOM     30  C   UNL     1      -5.898  13.763  23.030  0.00  0.00    +0.000 A 
ATOM     31  C   UNL     1      -5.520  14.867  23.774  0.00  0.00    +0.000 A 
ATOM     32  C   UNL     1      -4.176  15.231  23.831  0.00  0.00    +0.000 A 
ATOM     33 CL   UNL     1      -3.793  16.619  24.801  0.00  0.00    +0.000 Cl
ATOM     34  C   UNL     1      -3.196  14.493  23.131  0.00  0.00    +0.000 A 
ATOM     35 CL   UNL     1      -1.573  15.138  23.088  0.00  0.00    +0.000 Cl
ENDBRANCH  25  28
ENDBRANCH  21  22
ENDBRANCH  20  21
ENDBRANCH   1  19
TORSDOF 6
ENDMDL
MODEL 5
REMARK VINA RESULT:      -9.0      7.348     11.225
REMARK  Name = 
REMARK  6 active torsions:
REMARK  status: ('A' for Active; 'I' for Inactive)
REMARK    1  A    between atoms: C_2  and  C_22
REMARK    2  A    between atoms: N_3  and  C_4
REMARK    3  A    between atoms: C_4  and  C_5
REMARK    4  A    between atoms: C_6  and  C_7
REMARK    5  A    between atoms: C_7  and  N_8
REMARK    6  A    between atoms: N_11  and  C_12
REMARK                            x       y       z     vdW  Elec       q    Type
REMARK                         _______ _______ _______ _____ _____    ______ ____
ROOT
ATOM      1  C   UNL     1       1.451   9.671  18.214  0.00  0.00    +0.000 C 
ENDROOT
BRANCH   1   4
ATOM      2  O   UNL     1       2.607   7.494  19.567  0.00  0.00    +0.000 OA
ATOM      3  C   UNL     1       2.749   7.583  18.355  0.00  0.00    +0.000 C 
ATOM      4  N   UNL     1       2.262   8.641  17.616  0.00  0.00    +0.000 N 
ATOM      5  H   UNL     1       2.434   8.702  16.625  0.00  0.00    +0.000 HD
BRANCH   3   6
ATOM      6  C   UNL     1       3.503   6.557  17.588  0.00  0.00    +0.000 A 
ATOM      7  C   UNL     1       4.447   7.000  16.636  0.00  0.00    +0.000 A 
ATOM      8  C   UNL     1       5.253   6.099  15.927  0.00  0.00    +0.000 A 
ATOM      9  C   UNL     1       5.163   4.735  16.175  0.00  0.00    +0.000 A 
ATOM     10  C   UNL     1       4.241   4.300  17.118  0.00  0.00    +0.000 A 
ATOM     11  C   UNL     1       3.383   5.185  17.824  0.00  0.00    +0.000 A 
ATOM     12  C   UNL     1       2.520   4.370  18.677  0.00  0.00    +0.000 A 
ATOM     13  C   UNL     1       1.449   4.685  19.500  0.00  0.00    +0.000 A 
ATOM     14  C   UNL     1       0.816   3.667  20.225  0.00  0.00    +0.000 A 
ATOM     15  C   UNL     1       1.237   2.333  20.117  0.00  0.00    +0.000 A 
ATOM     16  C   UNL     1       2.286   1.995  19.269  0.00  0.00    +0.000 A 
ATOM     17  C   UNL     1       2.903   3.014  18.555  0.00  0.00    +0.000 A 
ATOM     18  C   UNL     1       4.024   2.868  17.557  0.00  0.00    +0.000 C 
ENDBRANCH   3   6
ENDBRANCH   1   4
BRANCH   1  19
ATOM     19  C   UNL     1       2.126  10.988  17.993  0.00  0.00    +0.000 C 
ATOM     20  C   UNL     1       1.979  12.090  18.747  0.00  0.00    +0.000 C 
BRANCH  20  21
ATOM     21  C   UNL     1       1.124  12.214  19.978  0.00  0.00    +0.000 C 
BRANCH  21  22
ATOM     22  N   UNL     1       0.153  13.312  19.894  0.00  0.00    +0.000 NA
ATOM     23  C   UNL     1      -0.495  13.398  18.567  0.00  0.00    +0.000 C 
ATOM     24  C   UNL     1      -1.488  12.263  18.234  0.00  0.00    +0.000 C 
ATOM     25  N   UNL     1      -2.468  12.084  19.318  0.00  0.00    +0.000 N 
ATOM     26  C   UNL     1      -1.893  12.009  20.674  0.00  0.00    +0.000 C 
ATOM     27  C   UNL     1      -0.908  13.177  20.916  0.00  0.00    +0.000 C 
BRANCH  25  28
ATOM     28  C   UNL     1      -3.841  12.034  19.086  0.00  0.00    +0.000 A 
ATOM     29  C   UNL     1      -4.343  11.089  18.163  0.00  0.00    +0.000 A 
ATOM     30  C   UNL     1      -5.705  10.939  17.890  0.00  0.00    +0.000 A 
ATOM     31  C   UNL     1      -6.631  11.710  18.570  0.00  0.00    +0.000 A 
ATOM     32  C   UNL     1      -6.192  12.658  19.493  0.00  0.00    +0.000 A 
ATOM     33 CL   UNL     1      -7.424  13.568  20.310  0.00  0.00    +0.000 Cl
ATOM     34  C   UNL     1      -4.814  12.848  19.736  0.00  0.00    +0.000 A 
ATOM     35 CL   UNL     1      -4.347  14.193  20.748  0.00  0.00    +0.000 Cl
ENDBRANCH  25  28
ENDBRANCH  21  22
ENDBRANCH  20  21
ENDBRANCH   1  19
TORSDOF 6
ENDMDL
MODEL 6
REMARK VINA RESULT:      -8.8      5.578     11.798
REMARK  Name = 
REMARK  6 active torsions:
REMARK  status: ('A' for Active; 'I' for Inactive)
REMARK    1  A    between atoms: C_2  and  C_22
REMARK    2  A    between atoms: N_3  and  C_4
REMARK    3  A    between atoms: C_4  and  C_5
REMARK    4  A    between atoms: C_6  and  C_7
REMARK    5  A    between atoms: C_7  and  N_8
REMARK    6  A    between atoms: N_11  and  C_12
REMARK                            x       y       z     vdW  Elec       q    Type
REMARK                         _______ _______ _______ _____ _____    ______ ____
ROOT
ATOM      1  C   UNL     1       1.502   8.983  21.205  0.00  0.00    +0.000 C 
ENDROOT
BRANCH   1   4
ATOM      2  O   UNL     1       2.283   7.721  18.817  0.00  0.00    +0.000 OA
ATOM      3  C   UNL     1       2.032   7.034  19.797  0.00  0.00    +0.000 C 
ATOM      4  N   UNL     1       1.593   7.561  20.993  0.00  0.00    +0.000 N 
ATOM      5  H   UNL     1       1.356   6.961  21.767  0.00  0.00    +0.000 HD
BRANCH   3   6
ATOM      6  C   UNL     1       2.149   5.552  19.752  0.00  0.00    +0.000 A 
ATOM      7  C   UNL     1       1.396   4.799  20.678  0.00  0.00    +0.000 A 
ATOM      8  C   UNL     1       1.391   3.397  20.652  0.00  0.00    +0.000 A 
ATOM      9  C   UNL     1       2.110   2.713  19.679  0.00  0.00    +0.000 A 
ATOM     10  C   UNL     1       2.842   3.455  18.763  0.00  0.00    +0.000 A 
ATOM     11  C   UNL     1       2.899   4.874  18.788  0.00  0.00    +0.000 A 
ATOM     12  C   UNL     1       3.805   5.295  17.721  0.00  0.00    +0.000 A 
ATOM     13  C   UNL     1       4.301   6.535  17.347  0.00  0.00    +0.000 A 
ATOM     14  C   UNL     1       5.159   6.628  16.243  0.00  0.00    +0.000 A 
ATOM     15  C   UNL     1       5.537   5.485  15.522  0.00  0.00    +0.000 A 
ATOM     16  C   UNL     1       5.077   4.231  15.906  0.00  0.00    +0.000 A 
ATOM     17  C   UNL     1       4.229   4.152  17.002  0.00  0.00    +0.000 A 
ATOM     18  C   UNL     1       3.650   2.899  17.610  0.00  0.00    +0.000 C 
ENDBRANCH   3   6
ENDBRANCH   1   4
BRANCH   1  19
ATOM     19  C   UNL     1       0.142   9.435  20.778  0.00  0.00    +0.000 C 
ATOM     20  C   UNL     1      -0.136  10.523  20.038  0.00  0.00    +0.000 C 
BRANCH  20  21
ATOM     21  C   UNL     1       0.866  11.490  19.473  0.00  0.00    +0.000 C 
BRANCH  21  22
ATOM     22  N   UNL     1       0.563  12.888  19.803  0.00  0.00    +0.000 NA
ATOM     23  C   UNL     1       1.290  13.361  21.002  0.00  0.00    +0.000 C 
ATOM     24  C   UNL     1       2.813  13.550  20.829  0.00  0.00    +0.000 C 
ATOM     25  N   UNL     1       3.112  14.368  19.643  0.00  0.00    +0.000 N 
ATOM     26  C   UNL     1       2.406  13.966  18.411  0.00  0.00    +0.000 C 
ATOM     27  C   UNL     1       0.892  13.793  18.680  0.00  0.00    +0.000 C 
BRANCH  25  28
ATOM     28  C   UNL     1       3.963  15.470  19.689  0.00  0.00    +0.000 A 
ATOM     29  C   UNL     1       3.613  16.569  20.504  0.00  0.00    +0.000 A 
ATOM     30  C   UNL     1       4.418  17.703  20.643  0.00  0.00    +0.000 A 
ATOM     31  C   UNL     1       5.640  17.762  19.996  0.00  0.00    +0.000 A 
ATOM     32  C   UNL     1       6.037  16.704  19.179  0.00  0.00    +0.000 A 
ATOM     33 CL   UNL     1       7.591  16.858  18.421  0.00  0.00    +0.000 Cl
ATOM     34  C   UNL     1       5.205  15.579  18.996  0.00  0.00    +0.000 A 
ATOM     35 CL   UNL     1       5.685  14.402  17.798  0.00  0.00    +0.000 Cl
ENDBRANCH  25  28
ENDBRANCH  21  22
ENDBRANCH  20  21
ENDBRANCH   1  19
TORSDOF 6
ENDMDL
MODEL 7
REMARK VINA RESULT:      -8.8      8.081     12.070
REMARK  Name = 
REMARK  6 active torsions:
REMARK  status: ('A' for Active; 'I' for Inactive)
REMARK    1  A    between atoms: C_2  and  C_22
REMARK    2  A    between atoms: N_3  and  C_4
REMARK    3  A    between atoms: C_4  and  C_5
REMARK    4  A    between atoms: C_6  and  C_7
REMARK    5  A    between atoms: C_7  and  N_8
REMARK    6  A    between atoms: N_11  and  C_12
REMARK                            x       y       z     vdW  Elec       q    Type
REMARK                         _______ _______ _______ _____ _____    ______ ____
ROOT
ATOM      1  C   UNL     1       0.671   9.616  18.245  0.00  0.00    +0.000 C 
ENDROOT
BRANCH   1   4
ATOM      2  O   UNL     1       2.230   7.815  19.741  0.00  0.00    +0.000 OA
ATOM      3  C   UNL     1       2.338   7.825  18.522  0.00  0.00    +0.000 C 
ATOM      4  N   UNL     1       1.654   8.707  17.712  0.00  0.00    +0.000 N 
ATOM      5  H   UNL     1       1.799   8.713  16.715  0.00  0.00    +0.000 HD
BRANCH   3   6
ATOM      6  C   UNL     1       3.262   6.894  17.822  0.00  0.00    +0.000 A 
ATOM      7  C   UNL     1       4.179   7.440  16.897  0.00  0.00    +0.000 A 
ATOM      8  C   UNL     1       5.134   6.641  16.253  0.00  0.00    +0.000 A 
ATOM      9  C   UNL     1       5.222   5.285  16.541  0.00  0.00    +0.000 A 
ATOM     10  C   UNL     1       4.326   4.751  17.457  0.00  0.00    +0.000 A 
ATOM     11  C   UNL     1       3.322   5.526  18.097  0.00  0.00    +0.000 A 
ATOM     12  C   UNL     1       2.540   4.621  18.939  0.00  0.00    +0.000 A 
ATOM     13  C   UNL     1       1.399   4.805  19.704  0.00  0.00    +0.000 A 
ATOM     14  C   UNL     1       0.879   3.727  20.433  0.00  0.00    +0.000 A 
ATOM     15  C   UNL     1       1.486   2.463  20.387  0.00  0.00    +0.000 A 
ATOM     16  C   UNL     1       2.609   2.253  19.596  0.00  0.00    +0.000 A 
ATOM     17  C   UNL     1       3.113   3.328  18.877  0.00  0.00    +0.000 A 
ATOM     18  C   UNL     1       4.289   3.315  17.933  0.00  0.00    +0.000 C 
ENDBRANCH   3   6
ENDBRANCH   1   4
BRANCH   1  19
ATOM     19  C   UNL     1       1.376  10.853  18.703  0.00  0.00    +0.000 C 
ATOM     20  C   UNL     1       1.017  11.633  19.738  0.00  0.00    +0.000 C 
BRANCH  20  21
ATOM     21  C   UNL     1      -0.151  11.405  20.656  0.00  0.00    +0.000 C 
BRANCH  21  22
ATOM     22  N   UNL     1       0.018  12.043  21.968  0.00  0.00    +0.000 NA
ATOM     23  C   UNL     1       0.030  13.520  21.886  0.00  0.00    +0.000 C 
ATOM     24  C   UNL     1      -1.323  14.181  21.546  0.00  0.00    +0.000 C 
ATOM     25  N   UNL     1      -2.390  13.685  22.430  0.00  0.00    +0.000 N 
ATOM     26  C   UNL     1      -2.450  12.218  22.575  0.00  0.00    +0.000 C 
ATOM     27  C   UNL     1      -1.053  11.643  22.907  0.00  0.00    +0.000 C 
BRANCH  25  28
ATOM     28  C   UNL     1      -3.252  14.538  23.116  0.00  0.00    +0.000 A 
ATOM     29  C   UNL     1      -2.789  15.178  24.287  0.00  0.00    +0.000 A 
ATOM     30  C   UNL     1      -3.565  16.078  25.022  0.00  0.00    +0.000 A 
ATOM     31  C   UNL     1      -4.836  16.406  24.584  0.00  0.00    +0.000 A 
ATOM     32  C   UNL     1      -5.344  15.806  23.434  0.00  0.00    +0.000 A 
ATOM     33 CL   UNL     1      -6.939  16.290  22.951  0.00  0.00    +0.000 Cl
ATOM     34  C   UNL     1      -4.582  14.859  22.714  0.00  0.00    +0.000 A 
ATOM     35 CL   UNL     1      -5.371  14.005  21.411  0.00  0.00    +0.000 Cl
ENDBRANCH  25  28
ENDBRANCH  21  22
ENDBRANCH  20  21
ENDBRANCH   1  19
TORSDOF 6
ENDMDL
MODEL 8
REMARK VINA RESULT:      -8.8      7.438     11.376
REMARK  Name = 
REMARK  6 active torsions:
REMARK  status: ('A' for Active; 'I' for Inactive)
REMARK    1  A    between atoms: C_2  and  C_22
REMARK    2  A    between atoms: N_3  and  C_4
REMARK    3  A    between atoms: C_4  and  C_5
REMARK    4  A    between atoms: C_6  and  C_7
REMARK    5  A    between atoms: C_7  and  N_8
REMARK    6  A    between atoms: N_11  and  C_12
REMARK                            x       y       z     vdW  Elec       q    Type
REMARK                         _______ _______ _______ _____ _____    ______ ____
ROOT
ATOM      1  C   UNL     1       1.339   9.617  18.600  0.00  0.00    +0.000 C 
ENDROOT
BRANCH   1   4
ATOM      2  O   UNL     1       2.534   7.350  19.757  0.00  0.00    +0.000 OA
ATOM      3  C   UNL     1       2.688   7.558  18.562  0.00  0.00    +0.000 C 
ATOM      4  N   UNL     1       2.184   8.669  17.919  0.00  0.00    +0.000 N 
ATOM      5  H   UNL     1       2.365   8.829  16.941  0.00  0.00    +0.000 HD
BRANCH   3   6
ATOM      6  C   UNL     1       3.478   6.628  17.712  0.00  0.00    +0.000 A 
ATOM      7  C   UNL     1       4.422   7.183  16.821  0.00  0.00    +0.000 A 
ATOM      8  C   UNL     1       5.260   6.372  16.042  0.00  0.00    +0.000 A 
ATOM      9  C   UNL     1       5.200   4.989  16.157  0.00  0.00    +0.000 A 
ATOM     10  C   UNL     1       4.277   4.445  17.039  0.00  0.00    +0.000 A 
ATOM     11  C   UNL     1       3.388   5.237  17.813  0.00  0.00    +0.000 A 
ATOM     12  C   UNL     1       2.534   4.324  18.571  0.00  0.00    +0.000 A 
ATOM     13  C   UNL     1       1.445   4.534  19.404  0.00  0.00    +0.000 A 
ATOM     14  C   UNL     1       0.828   3.436  20.017  0.00  0.00    +0.000 A 
ATOM     15  C   UNL     1       1.283   2.129  19.789  0.00  0.00    +0.000 A 
ATOM     16  C   UNL     1       2.351   1.899  18.929  0.00  0.00    +0.000 A 
ATOM     17  C   UNL     1       2.953   2.995  18.325  0.00  0.00    +0.000 A 
ATOM     18  C   UNL     1       4.090   2.972  17.336  0.00  0.00    +0.000 C 
ENDBRANCH   3   6
ENDBRANCH   1   4
BRANCH   1  19
ATOM     19  C   UNL     1       1.772  10.996  18.213  0.00  0.00    +0.000 C 
ATOM     20  C   UNL     1       1.726  12.090  18.991  0.00  0.00    +0.000 C 
BRANCH  20  21
ATOM     21  C   UNL     1       1.250  12.143  20.417  0.00  0.00    +0.000 C 
BRANCH  21  22
ATOM     22  N   UNL     1       0.423  13.323  20.701  0.00  0.00    +0.000 NA
ATOM     23  C   UNL     1      -0.366  13.762  19.528  0.00  0.00    +0.000 C 
ATOM     24  C   UNL     1      -1.528  12.831  19.119  0.00  0.00    +0.000 C 
ATOM     25  N   UNL     1      -2.383  12.514  20.275  0.00  0.00    +0.000 N 
ATOM     26  C   UNL     1      -1.661  12.087  21.489  0.00  0.00    +0.000 C 
ATOM     27  C   UNL     1      -0.514  13.072  21.818  0.00  0.00    +0.000 C 
BRANCH  25  28
ATOM     28  C   UNL     1      -3.769  12.651  20.240  0.00  0.00    +0.000 A 
ATOM     29  C   UNL     1      -4.410  13.365  21.277  0.00  0.00    +0.000 A 
ATOM     30  C   UNL     1      -5.789  13.587  21.311  0.00  0.00    +0.000 A 
ATOM     31  C   UNL     1      -6.584  13.131  20.274  0.00  0.00    +0.000 A 
ATOM     32  C   UNL     1      -6.005  12.421  19.224  0.00  0.00    +0.000 A 
ATOM     33 CL   UNL     1      -7.075  11.903  17.960  0.00  0.00    +0.000 Cl
ATOM     34  C   UNL     1      -4.618  12.152  19.210  0.00  0.00    +0.000 A 
ATOM     35 CL   UNL     1      -4.013  11.082  17.969  0.00  0.00    +0.000 Cl
ENDBRANCH  25  28
ENDBRANCH  21  22
ENDBRANCH  20  21
ENDBRANCH   1  19
TORSDOF 6
ENDMDL
MODEL 9
REMARK VINA RESULT:      -8.7      2.189      2.393
REMARK  Name = 
REMARK  6 active torsions:
REMARK  status: ('A' for Active; 'I' for Inactive)
REMARK    1  A    between atoms: C_2  and  C_22
REMARK    2  A    between atoms: N_3  and  C_4
REMARK    3  A    between atoms: C_4  and  C_5
REMARK    4  A    between atoms: C_6  and  C_7
REMARK    5  A    between atoms: C_7  and  N_8
REMARK    6  A    between atoms: N_11  and  C_12
REMARK                            x       y       z     vdW  Elec       q    Type
REMARK                         _______ _______ _______ _____ _____    ______ ____
ROOT
ATOM      1  C   UNL     1       8.239  10.541  17.866  0.00  0.00    +0.000 C 
ENDROOT
BRANCH   1   4
ATOM      2  O   UNL     1       7.843  13.164  16.934  0.00  0.00    +0.000 OA
ATOM      3  C   UNL     1       8.701  12.957  17.781  0.00  0.00    +0.000 C 
ATOM      4  N   UNL     1       9.001  11.699  18.258  0.00  0.00    +0.000 N 
ATOM      5  H   UNL     1       9.743  11.562  18.926  0.00  0.00    +0.000 HD
BRANCH   3   6
ATOM      6  C   UNL     1       9.521  14.067  18.335  0.00  0.00    +0.000 A 
ATOM      7  C   UNL     1      10.925  13.978  18.215  0.00  0.00    +0.000 A 
ATOM      8  C   UNL     1      11.765  15.016  18.643  0.00  0.00    +0.000 A 
ATOM      9  C   UNL     1      11.224  16.183  19.167  0.00  0.00    +0.000 A 
ATOM     10  C   UNL     1       9.843  16.274  19.275  0.00  0.00    +0.000 A 
ATOM     11  C   UNL     1       8.968  15.224  18.888  0.00  0.00    +0.000 A 
ATOM     12  C   UNL     1       7.605  15.652  19.200  0.00  0.00    +0.000 A 
ATOM     13  C   UNL     1       6.380  15.007  19.125  0.00  0.00    +0.000 A 
ATOM     14  C   UNL     1       5.216  15.699  19.485  0.00  0.00    +0.000 A 
ATOM     15  C   UNL     1       5.273  17.027  19.936  0.00  0.00    +0.000 A 
ATOM     16  C   UNL     1       6.497  17.675  20.052  0.00  0.00    +0.000 A 
ATOM     17  C   UNL     1       7.643  16.978  19.694  0.00  0.00    +0.000 A 
ATOM     18  C   UNL     1       9.066  17.471  19.778  0.00  0.00    +0.000 C 
ENDBRANCH   3   6
ENDBRANCH   1   4
BRANCH   1  19
ATOM     19  C   UNL     1       8.797   9.349  18.578  0.00  0.00    +0.000 C 
ATOM     20  C   UNL     1       8.417   8.071  18.404  0.00  0.00    +0.000 C 
BRANCH  20  21
ATOM     21  C   UNL     1       7.371   7.582  17.442  0.00  0.00    +0.000 C 
BRANCH  21  22
ATOM     22  N   UNL     1       7.436   6.132  17.213  0.00  0.00    +0.000 NA
ATOM     23  C   UNL     1       7.338   5.353  18.467  0.00  0.00    +0.000 C 
ATOM     24  C   UNL     1       5.953   5.358  19.149  0.00  0.00    +0.000 C 
ATOM     25  N   UNL     1       4.891   5.004  18.193  0.00  0.00    +0.000 N 
ATOM     26  C   UNL     1       4.938   5.730  16.909  0.00  0.00    +0.000 C 
ATOM     27  C   UNL     1       6.361   5.679  16.304  0.00  0.00    +0.000 C 
BRANCH  25  28
ATOM     28  C   UNL     1       3.939   4.023  18.461  0.00  0.00    +0.000 A 
ATOM     29  C   UNL     1       3.964   2.825  17.712  0.00  0.00    +0.000 A 
ATOM     30  C   UNL     1       3.075   1.770  17.931  0.00  0.00    +0.000 A 
ATOM     31  C   UNL     1       2.141   1.858  18.949  0.00  0.00    +0.000 A 
ATOM     32  C   UNL     1       2.071   3.017  19.720  0.00  0.00    +0.000 A 
ATOM     33 CL   UNL     1       0.881   3.032  20.983  0.00  0.00    +0.000 Cl
ATOM     34  C   UNL     1       2.935   4.106  19.471  0.00  0.00    +0.000 A 
ATOM     35 CL   UNL     1       2.642   5.590  20.343  0.00  0.00    +0.000 Cl
ENDBRANCH  25  28
ENDBRANCH  21  22
ENDBRANCH  20  21
ENDBRANCH   1  19
TORSDOF 6
ENDMDL
