MODEL 1
REMARK VINA RESULT:      -7.6      0.000      0.000
REMARK  Name = 
REMARK  7 active torsions:
REMARK  status: ('A' for Active; 'I' for Inactive)
REMARK    1  A    between atoms: C_1  and  C_2
REMARK    2  A    between atoms: C_2  and  C_3
REMARK    3  A    between atoms: N_7  and  C_8
REMARK    4  A    between atoms: C_8  and  C_9
REMARK    5  A    between atoms: C_9  and  C_10
REMARK    6  A    between atoms: C_20  and  C_21
REMARK    7  A    between atoms: C_21  and  C_22
REMARK                            x       y       z     vdW  Elec       q    Type
REMARK                         _______ _______ _______ _____ _____    ______ ____
ROOT
ATOM      1  C   UNL     1       6.265   5.453  17.735  0.00  0.00    +0.000 A 
ATOM      2  N   UNL     1       6.246   5.001  19.005  0.00  0.00    +0.000 NA
ATOM      3  N   UNL     1       5.530   3.879  19.300  0.00  0.00    +0.000 NA
ATOM      4  C   UNL     1       4.847   3.240  18.332  0.00  0.00    +0.000 A 
ATOM      5  N   UNL     1       4.085   2.136  18.708  0.00  0.00    +0.000 N 
ATOM      6  N   UNL     1       4.854   3.650  17.057  0.00  0.00    +0.000 NA
ATOM      7  C   UNL     1       5.564   4.761  16.757  0.00  0.00    +0.000 A 
ATOM      8  H   UNL     1       3.939   2.222  19.709  0.00  0.00    +0.000 HD
ENDROOT
BRANCH   1  10
ATOM      9  C   UNL     1       8.069   6.965  18.552  0.00  0.00    +0.000 C 
ATOM     10  C   UNL     1       6.995   6.742  17.497  0.00  0.00    +0.000 C 
ENDBRANCH   1  10
BRANCH   7  11
ATOM     11  C   UNL     1       5.551   5.220  15.318  0.00  0.00    +0.000 C 
ATOM     12  C   UNL     1       6.053   4.187  14.316  0.00  0.00    +0.000 C 
ENDBRANCH   7  11
BRANCH   5  13
ATOM     13  C   UNL     1       2.877   1.922  17.918  0.00  0.00    +0.000 C 
BRANCH  13  14
ATOM     14  C   UNL     1       1.637   2.422  18.669  0.00  0.00    +0.000 C 
BRANCH  14  15
ATOM     15  C   UNL     1       1.721   3.891  19.016  0.00  0.00    +0.000 A 
ATOM     16  C   UNL     1       1.627   4.305  20.363  0.00  0.00    +0.000 A 
ATOM     17  C   UNL     1       1.727   5.654  20.711  0.00  0.00    +0.000 A 
ATOM     18  C   UNL     1       1.928   6.565  19.698  0.00  0.00    +0.000 A 
ATOM     19  C   UNL     1       2.004   6.178  18.369  0.00  0.00    +0.000 A 
ATOM     20  C   UNL     1       1.891   4.848  18.004  0.00  0.00    +0.000 A 
ATOM     21  C   UNL     1       2.153   7.383  17.523  0.00  0.00    +0.000 C 
ATOM     22  C   UNL     1       2.552   8.385  18.608  0.00  0.00    +0.000 C 
ATOM     23  O   UNL     1       2.059   7.917  19.886  0.00  0.00    +0.000 OA
ENDBRANCH  14  15
ENDBRANCH  13  14
ENDBRANCH   5  13
TORSDOF 5
ENDMDL
MODEL 2
REMARK VINA RESULT:      -7.6      1.217      1.857
REMARK  Name = 
REMARK  7 active torsions:
REMARK  status: ('A' for Active; 'I' for Inactive)
REMARK    1  A    between atoms: C_1  and  C_2
REMARK    2  A    between atoms: C_2  and  C_3
REMARK    3  A    between atoms: N_7  and  C_8
REMARK    4  A    between atoms: C_8  and  C_9
REMARK    5  A    between atoms: C_9  and  C_10
REMARK    6  A    between atoms: C_20  and  C_21
REMARK    7  A    between atoms: C_21  and  C_22
REMARK                            x       y       z     vdW  Elec       q    Type
REMARK                         _______ _______ _______ _____ _____    ______ ____
ROOT
ATOM      1  C   UNL     1       7.024   6.246  17.671  0.00  0.00    +0.000 A 
ATOM      2  N   UNL     1       7.169   6.024  18.993  0.00  0.00    +0.000 NA
ATOM      3  N   UNL     1       6.502   4.984  19.569  0.00  0.00    +0.000 NA
ATOM      4  C   UNL     1       5.706   4.196  18.822  0.00  0.00    +0.000 A 
ATOM      5  N   UNL     1       5.003   3.189  19.479  0.00  0.00    +0.000 N 
ATOM      6  N   UNL     1       5.548   4.377  17.504  0.00  0.00    +0.000 NA
ATOM      7  C   UNL     1       6.209   5.407  16.927  0.00  0.00    +0.000 A 
ATOM      8  H   UNL     1       4.985   3.450  20.459  0.00  0.00    +0.000 HD
ENDROOT
BRANCH   1  10
ATOM      9  C   UNL     1       8.243   8.343  18.241  0.00  0.00    +0.000 C 
ATOM     10  C   UNL     1       7.711   7.461  17.120  0.00  0.00    +0.000 C 
ENDBRANCH   1  10
BRANCH   7  11
ATOM     11  C   UNL     1       6.010   5.607  15.443  0.00  0.00    +0.000 C 
ATOM     12  C   UNL     1       5.473   4.387  14.702  0.00  0.00    +0.000 C 
ENDBRANCH   7  11
BRANCH   5  13
ATOM     13  C   UNL     1       3.705   2.860  18.897  0.00  0.00    +0.000 C 
BRANCH  13  14
ATOM     14  C   UNL     1       2.565   3.432  19.749  0.00  0.00    +0.000 C 
BRANCH  14  15
ATOM     15  C   UNL     1       2.363   4.914  19.530  0.00  0.00    +0.000 A 
ATOM     16  C   UNL     1       2.575   5.474  18.252  0.00  0.00    +0.000 A 
ATOM     17  C   UNL     1       2.369   6.836  18.019  0.00  0.00    +0.000 A 
ATOM     18  C   UNL     1       1.946   7.611  19.076  0.00  0.00    +0.000 A 
ATOM     19  C   UNL     1       1.751   7.081  20.342  0.00  0.00    +0.000 A 
ATOM     20  C   UNL     1       1.964   5.738  20.594  0.00  0.00    +0.000 A 
ATOM     21  C   UNL     1       1.366   8.169  21.267  0.00  0.00    +0.000 C 
ATOM     22  C   UNL     1       0.995   9.236  20.235  0.00  0.00    +0.000 C 
ATOM     23  O   UNL     1       1.690   8.956  18.997  0.00  0.00    +0.000 OA
ENDBRANCH  14  15
ENDBRANCH  13  14
ENDBRANCH   5  13
TORSDOF 5
ENDMDL
MODEL 3
REMARK VINA RESULT:      -7.4      0.979      1.096
REMARK  Name = 
REMARK  7 active torsions:
REMARK  status: ('A' for Active; 'I' for Inactive)
REMARK    1  A    between atoms: C_1  and  C_2
REMARK    2  A    between atoms: C_2  and  C_3
REMARK    3  A    between atoms: N_7  and  C_8
REMARK    4  A    between atoms: C_8  and  C_9
REMARK    5  A    between atoms: C_9  and  C_10
REMARK    6  A    between atoms: C_20  and  C_21
REMARK    7  A    between atoms: C_21  and  C_22
REMARK                            x       y       z     vdW  Elec       q    Type
REMARK                         _______ _______ _______ _____ _____    ______ ____
ROOT
ATOM      1  C   UNL     1       7.085   6.224  17.641  0.00  0.00    +0.000 A 
ATOM      2  N   UNL     1       7.043   6.130  18.985  0.00  0.00    +0.000 NA
ATOM      3  N   UNL     1       6.385   5.083  19.558  0.00  0.00    +0.000 NA
ATOM      4  C   UNL     1       5.780   4.162  18.784  0.00  0.00    +0.000 A 
ATOM      5  N   UNL     1       5.070   3.152  19.428  0.00  0.00    +0.000 N 
ATOM      6  N   UNL     1       5.812   4.214  17.446  0.00  0.00    +0.000 NA
ATOM      7  C   UNL     1       6.466   5.250  16.872  0.00  0.00    +0.000 A 
ATOM      8  H   UNL     1       4.881   3.493  20.366  0.00  0.00    +0.000 HD
ENDROOT
BRANCH   1  10
ATOM      9  C   UNL     1       8.192   8.388  18.189  0.00  0.00    +0.000 C 
ATOM     10  C   UNL     1       7.746   7.448  17.078  0.00  0.00    +0.000 C 
ENDBRANCH   1  10
BRANCH   7  11
ATOM     11  C   UNL     1       6.481   5.302  15.362  0.00  0.00    +0.000 C 
ATOM     12  C   UNL     1       5.411   4.454  14.685  0.00  0.00    +0.000 C 
ENDBRANCH   7  11
BRANCH   5  13
ATOM     13  C   UNL     1       3.908   2.651  18.700  0.00  0.00    +0.000 C 
BRANCH  13  14
ATOM     14  C   UNL     1       2.610   3.002  19.437  0.00  0.00    +0.000 C 
BRANCH  14  15
ATOM     15  C   UNL     1       2.353   4.490  19.486  0.00  0.00    +0.000 A 
ATOM     16  C   UNL     1       1.967   5.100  20.700  0.00  0.00    +0.000 A 
ATOM     17  C   UNL     1       1.748   6.478  20.776  0.00  0.00    +0.000 A 
ATOM     18  C   UNL     1       1.929   7.221  19.631  0.00  0.00    +0.000 A 
ATOM     19  C   UNL     1       2.290   6.636  18.427  0.00  0.00    +0.000 A 
ATOM     20  C   UNL     1       2.495   5.272  18.329  0.00  0.00    +0.000 A 
ATOM     21  C   UNL     1       2.338   7.679  17.379  0.00  0.00    +0.000 C 
ATOM     22  C   UNL     1       2.358   8.917  18.278  0.00  0.00    +0.000 C 
ATOM     23  O   UNL     1       1.765   8.580  19.556  0.00  0.00    +0.000 OA
ENDBRANCH  14  15
ENDBRANCH  13  14
ENDBRANCH   5  13
TORSDOF 5
ENDMDL
MODEL 4
REMARK VINA RESULT:      -7.2      3.152      5.621
REMARK  Name = 
REMARK  7 active torsions:
REMARK  status: ('A' for Active; 'I' for Inactive)
REMARK    1  A    between atoms: C_1  and  C_2
REMARK    2  A    between atoms: C_2  and  C_3
REMARK    3  A    between atoms: N_7  and  C_8
REMARK    4  A    between atoms: C_8  and  C_9
REMARK    5  A    between atoms: C_9  and  C_10
REMARK    6  A    between atoms: C_20  and  C_21
REMARK    7  A    between atoms: C_21  and  C_22
REMARK                            x       y       z     vdW  Elec       q    Type
REMARK                         _______ _______ _______ _____ _____    ______ ____
ROOT
ATOM      1  C   UNL     1       4.011   3.992  19.056  0.00  0.00    +0.000 A 
ATOM      2  N   UNL     1       4.704   4.480  18.007  0.00  0.00    +0.000 NA
ATOM      3  N   UNL     1       4.456   5.751  17.581  0.00  0.00    +0.000 NA
ATOM      4  C   UNL     1       3.525   6.501  18.200  0.00  0.00    +0.000 A 
ATOM      5  N   UNL     1       3.274   7.768  17.679  0.00  0.00    +0.000 N 
ATOM      6  N   UNL     1       2.827   6.056  19.254  0.00  0.00    +0.000 NA
ATOM      7  C   UNL     1       3.070   4.796  19.682  0.00  0.00    +0.000 A 
ATOM      8  H   UNL     1       3.624   7.756  16.726  0.00  0.00    +0.000 HD
ENDROOT
BRANCH   1  10
ATOM      9  C   UNL     1       3.533   1.619  18.465  0.00  0.00    +0.000 C 
ATOM     10  C   UNL     1       4.266   2.558  19.414  0.00  0.00    +0.000 C 
ENDBRANCH   1  10
BRANCH   7  11
ATOM     11  C   UNL     1       2.265   4.303  20.862  0.00  0.00    +0.000 C 
ATOM     12  C   UNL     1       0.945   3.634  20.496  0.00  0.00    +0.000 C 
ENDBRANCH   7  11
BRANCH   5  13
ATOM     13  C   UNL     1       1.901   8.239  17.834  0.00  0.00    +0.000 C 
BRANCH  13  14
ATOM     14  C   UNL     1       1.853   9.770  17.894  0.00  0.00    +0.000 C 
BRANCH  14  15
ATOM     15  C   UNL     1       1.287  10.283  19.199  0.00  0.00    +0.000 A 
ATOM     16  C   UNL     1       1.200  11.672  19.433  0.00  0.00    +0.000 A 
ATOM     17  C   UNL     1       0.657  12.171  20.619  0.00  0.00    +0.000 A 
ATOM     18  C   UNL     1       0.203  11.262  21.549  0.00  0.00    +0.000 A 
ATOM     19  C   UNL     1       0.297   9.894  21.344  0.00  0.00    +0.000 A 
ATOM     20  C   UNL     1       0.846   9.383  20.181  0.00  0.00    +0.000 A 
ATOM     21  C   UNL     1      -0.209   9.190  22.542  0.00  0.00    +0.000 C 
ATOM     22  C   UNL     1      -0.944  10.355  23.207  0.00  0.00    +0.000 C 
ATOM     23  O   UNL     1      -0.365  11.600  22.750  0.00  0.00    +0.000 OA
ENDBRANCH  14  15
ENDBRANCH  13  14
ENDBRANCH   5  13
TORSDOF 5
ENDMDL
MODEL 5
REMARK VINA RESULT:      -7.2      1.408      1.871
REMARK  Name = 
REMARK  7 active torsions:
REMARK  status: ('A' for Active; 'I' for Inactive)
REMARK    1  A    between atoms: C_1  and  C_2
REMARK    2  A    between atoms: C_2  and  C_3
REMARK    3  A    between atoms: N_7  and  C_8
REMARK    4  A    between atoms: C_8  and  C_9
REMARK    5  A    between atoms: C_9  and  C_10
REMARK    6  A    between atoms: C_20  and  C_21
REMARK    7  A    between atoms: C_21  and  C_22
REMARK                            x       y       z     vdW  Elec       q    Type
REMARK                         _______ _______ _______ _____ _____    ______ ____
ROOT
ATOM      1  C   UNL     1       6.936   6.391  17.751  0.00  0.00    +0.000 A 
ATOM      2  N   UNL     1       7.267   6.038  19.009  0.00  0.00    +0.000 NA
ATOM      3  N   UNL     1       6.485   5.142  19.675  0.00  0.00    +0.000 NA
ATOM      4  C   UNL     1       5.393   4.626  19.079  0.00  0.00    +0.000 A 
ATOM      5  N   UNL     1       4.599   3.764  19.832  0.00  0.00    +0.000 N 
ATOM      6  N   UNL     1       5.041   4.942  17.826  0.00  0.00    +0.000 NA
ATOM      7  C   UNL     1       5.814   5.829  17.160  0.00  0.00    +0.000 A 
ATOM      8  H   UNL     1       4.831   3.944  20.804  0.00  0.00    +0.000 HD
ENDROOT
BRANCH   1  10
ATOM      9  C   UNL     1       8.171   8.524  18.119  0.00  0.00    +0.000 C 
ATOM     10  C   UNL     1       7.785   7.450  17.111  0.00  0.00    +0.000 C 
ENDBRANCH   1  10
BRANCH   7  11
ATOM     11  C   UNL     1       5.396   6.187  15.753  0.00  0.00    +0.000 C 
ATOM     12  C   UNL     1       5.564   5.065  14.734  0.00  0.00    +0.000 C 
ENDBRANCH   7  11
BRANCH   5  13
ATOM     13  C   UNL     1       3.176   3.798  19.514  0.00  0.00    +0.000 C 
BRANCH  13  14
ATOM     14  C   UNL     1       2.385   4.504  20.621  0.00  0.00    +0.000 C 
BRANCH  14  15
ATOM     15  C   UNL     1       2.048   5.936  20.272  0.00  0.00    +0.000 A 
ATOM     16  C   UNL     1       1.379   6.752  21.210  0.00  0.00    +0.000 A 
ATOM     17  C   UNL     1       1.079   8.085  20.920  0.00  0.00    +0.000 A 
ATOM     18  C   UNL     1       1.465   8.578  19.694  0.00  0.00    +0.000 A 
ATOM     19  C   UNL     1       2.107   7.786  18.754  0.00  0.00    +0.000 A 
ATOM     20  C   UNL     1       2.397   6.459  19.018  0.00  0.00    +0.000 A 
ATOM     21  C   UNL     1       2.327   8.578  17.524  0.00  0.00    +0.000 C 
ATOM     22  C   UNL     1       2.089   9.976  18.098  0.00  0.00    +0.000 C 
ATOM     23  O   UNL     1       1.253   9.867  19.275  0.00  0.00    +0.000 OA
ENDBRANCH  14  15
ENDBRANCH  13  14
ENDBRANCH   5  13
TORSDOF 5
ENDMDL
MODEL 6
REMARK VINA RESULT:      -7.1      2.914      5.313
REMARK  Name = 
REMARK  7 active torsions:
REMARK  status: ('A' for Active; 'I' for Inactive)
REMARK    1  A    between atoms: C_1  and  C_2
REMARK    2  A    between atoms: C_2  and  C_3
REMARK    3  A    between atoms: N_7  and  C_8
REMARK    4  A    between atoms: C_8  and  C_9
REMARK    5  A    between atoms: C_9  and  C_10
REMARK    6  A    between atoms: C_20  and  C_21
REMARK    7  A    between atoms: C_21  and  C_22
REMARK                            x       y       z     vdW  Elec       q    Type
REMARK                         _______ _______ _______ _____ _____    ______ ____
ROOT
ATOM      1  C   UNL     1       1.447   8.642  19.819  0.00  0.00    +0.000 A 
ATOM      2  N   UNL     1       0.973   8.091  20.955  0.00  0.00    +0.000 NA
ATOM      3  N   UNL     1       1.267   6.791  21.236  0.00  0.00    +0.000 NA
ATOM      4  C   UNL     1       2.016   6.068  20.382  0.00  0.00    +0.000 A 
ATOM      5  N   UNL     1       2.230   4.728  20.693  0.00  0.00    +0.000 N 
ATOM      6  N   UNL     1       2.516   6.584  19.250  0.00  0.00    +0.000 NA
ATOM      7  C   UNL     1       2.229   7.875  18.967  0.00  0.00    +0.000 A 
ATOM      8  H   UNL     1       1.503   4.472  21.354  0.00  0.00    +0.000 HD
ENDROOT
BRANCH   1  10
ATOM      9  C   UNL     1      -0.325  10.061  18.790  0.00  0.00    +0.000 C 
ATOM     10  C   UNL     1       1.009  10.046  19.526  0.00  0.00    +0.000 C 
ENDBRANCH   1  10
BRANCH   7  11
ATOM     11  C   UNL     1       2.787   8.439  17.682  0.00  0.00    +0.000 C 
ATOM     12  C   UNL     1       3.885   7.597  17.042  0.00  0.00    +0.000 C 
ENDBRANCH   7  11
BRANCH   5  13
ATOM     13  C   UNL     1       2.367   3.840  19.543  0.00  0.00    +0.000 C 
BRANCH  13  14
ATOM     14  C   UNL     1       3.757   3.192  19.516  0.00  0.00    +0.000 C 
BRANCH  14  15
ATOM     15  C   UNL     1       4.702   3.882  18.560  0.00  0.00    +0.000 A 
ATOM     16  C   UNL     1       5.720   4.724  19.058  0.00  0.00    +0.000 A 
ATOM     17  C   UNL     1       6.622   5.352  18.196  0.00  0.00    +0.000 A 
ATOM     18  C   UNL     1       6.490   5.117  16.846  0.00  0.00    +0.000 A 
ATOM     19  C   UNL     1       5.485   4.308  16.338  0.00  0.00    +0.000 A 
ATOM     20  C   UNL     1       4.573   3.690  17.176  0.00  0.00    +0.000 A 
ATOM     21  C   UNL     1       5.565   4.308  14.861  0.00  0.00    +0.000 C 
ATOM     22  C   UNL     1       6.974   4.883  14.701  0.00  0.00    +0.000 C 
ATOM     23  O   UNL     1       7.306   5.651  15.883  0.00  0.00    +0.000 OA
ENDBRANCH  14  15
ENDBRANCH  13  14
ENDBRANCH   5  13
TORSDOF 5
ENDMDL
MODEL 7
REMARK VINA RESULT:      -7.1      2.524      5.288
REMARK  Name = 
REMARK  7 active torsions:
REMARK  status: ('A' for Active; 'I' for Inactive)
REMARK    1  A    between atoms: C_1  and  C_2
REMARK    2  A    between atoms: C_2  and  C_3
REMARK    3  A    between atoms: N_7  and  C_8
REMARK    4  A    between atoms: C_8  and  C_9
REMARK    5  A    between atoms: C_9  and  C_10
REMARK    6  A    between atoms: C_20  and  C_21
REMARK    7  A    between atoms: C_21  and  C_22
REMARK                            x       y       z     vdW  Elec       q    Type
REMARK                         _______ _______ _______ _____ _____    ______ ____
ROOT
ATOM      1  C   UNL     1       1.633   7.425  20.391  0.00  0.00    +0.000 A 
ATOM      2  N   UNL     1       1.326   6.364  21.164  0.00  0.00    +0.000 NA
ATOM      3  N   UNL     1       1.666   5.113  20.742  0.00  0.00    +0.000 NA
ATOM      4  C   UNL     1       2.294   4.946  19.564  0.00  0.00    +0.000 A 
ATOM      5  N   UNL     1       2.559   3.641  19.158  0.00  0.00    +0.000 N 
ATOM      6  N   UNL     1       2.629   5.977  18.775  0.00  0.00    +0.000 NA
ATOM      7  C   UNL     1       2.295   7.220  19.189  0.00  0.00    +0.000 A 
ATOM      8  H   UNL     1       1.933   3.047  19.693  0.00  0.00    +0.000 HD
ENDROOT
BRANCH   1  10
ATOM      9  C   UNL     1      -0.208   8.639  21.551  0.00  0.00    +0.000 C 
ATOM     10  C   UNL     1       1.149   8.761  20.870  0.00  0.00    +0.000 C 
ENDBRANCH   1  10
BRANCH   7  11
ATOM     11  C   UNL     1       2.665   8.370  18.282  0.00  0.00    +0.000 C 
ATOM     12  C   UNL     1       1.480   9.075  17.633  0.00  0.00    +0.000 C 
ENDBRANCH   7  11
BRANCH   5  13
ATOM     13  C   UNL     1       2.542   3.426  17.715  0.00  0.00    +0.000 C 
BRANCH  13  14
ATOM     14  C   UNL     1       3.919   2.973  17.214  0.00  0.00    +0.000 C 
BRANCH  14  15
ATOM     15  C   UNL     1       4.901   4.116  17.099  0.00  0.00    +0.000 A 
ATOM     16  C   UNL     1       4.885   4.948  15.959  0.00  0.00    +0.000 A 
ATOM     17  C   UNL     1       5.765   6.026  15.841  0.00  0.00    +0.000 A 
ATOM     18  C   UNL     1       6.642   6.255  16.877  0.00  0.00    +0.000 A 
ATOM     19  C   UNL     1       6.684   5.437  17.996  0.00  0.00    +0.000 A 
ATOM     20  C   UNL     1       5.831   4.355  18.122  0.00  0.00    +0.000 A 
ATOM     21  C   UNL     1       7.769   5.897  18.891  0.00  0.00    +0.000 C 
ATOM     22  C   UNL     1       7.999   7.284  18.288  0.00  0.00    +0.000 C 
ATOM     23  O   UNL     1       7.553   7.279  16.911  0.00  0.00    +0.000 OA
ENDBRANCH  14  15
ENDBRANCH  13  14
ENDBRANCH   5  13
TORSDOF 5
ENDMDL
MODEL 8
REMARK VINA RESULT:      -7.1      3.226      6.383
REMARK  Name = 
REMARK  7 active torsions:
REMARK  status: ('A' for Active; 'I' for Inactive)
REMARK    1  A    between atoms: C_1  and  C_2
REMARK    2  A    between atoms: C_2  and  C_3
REMARK    3  A    between atoms: N_7  and  C_8
REMARK    4  A    between atoms: C_8  and  C_9
REMARK    5  A    between atoms: C_9  and  C_10
REMARK    6  A    between atoms: C_20  and  C_21
REMARK    7  A    between atoms: C_21  and  C_22
REMARK                            x       y       z     vdW  Elec       q    Type
REMARK                         _______ _______ _______ _____ _____    ______ ____
ROOT
ATOM      1  C   UNL     1       1.486   9.486  18.946  0.00  0.00    +0.000 A 
ATOM      2  N   UNL     1       1.888   9.053  17.734  0.00  0.00    +0.000 NA
ATOM      3  N   UNL     1       2.339   7.773  17.603  0.00  0.00    +0.000 NA
ATOM      4  C   UNL     1       2.386   6.960  18.675  0.00  0.00    +0.000 A 
ATOM      5  N   UNL     1       2.914   5.685  18.490  0.00  0.00    +0.000 N 
ATOM      6  N   UNL     1       1.981   7.351  19.891  0.00  0.00    +0.000 NA
ATOM      7  C   UNL     1       1.531   8.619  20.028  0.00  0.00    +0.000 A 
ATOM      8  H   UNL     1       3.462   5.728  17.636  0.00  0.00    +0.000 HD
ENDROOT
BRANCH   1  10
ATOM      9  C   UNL     1      -0.382  11.117  18.698  0.00  0.00    +0.000 C 
ATOM     10  C   UNL     1       1.090  10.930  19.039  0.00  0.00    +0.000 C 
ENDBRANCH   1  10
BRANCH   7  11
ATOM     11  C   UNL     1       1.093   9.049  21.408  0.00  0.00    +0.000 C 
ATOM     12  C   UNL     1      -0.341   8.677  21.765  0.00  0.00    +0.000 C 
ENDBRANCH   7  11
BRANCH   5  13
ATOM     13  C   UNL     1       3.606   5.128  19.648  0.00  0.00    +0.000 C 
BRANCH  13  14
ATOM     14  C   UNL     1       4.635   4.077  19.215  0.00  0.00    +0.000 C 
BRANCH  14  15
ATOM     15  C   UNL     1       5.429   4.504  18.003  0.00  0.00    +0.000 A 
ATOM     16  C   UNL     1       6.514   5.396  18.148  0.00  0.00    +0.000 A 
ATOM     17  C   UNL     1       7.279   5.786  17.046  0.00  0.00    +0.000 A 
ATOM     18  C   UNL     1       6.945   5.266  15.816  0.00  0.00    +0.000 A 
ATOM     19  C   UNL     1       5.872   4.403  15.652  0.00  0.00    +0.000 A 
ATOM     20  C   UNL     1       5.093   4.019  16.729  0.00  0.00    +0.000 A 
ATOM     21  C   UNL     1       5.729   4.077  14.216  0.00  0.00    +0.000 C 
ATOM     22  C   UNL     1       7.101   4.549  13.730  0.00  0.00    +0.000 C 
ATOM     23  O   UNL     1       7.610   5.544  14.650  0.00  0.00    +0.000 OA
ENDBRANCH  14  15
ENDBRANCH  13  14
ENDBRANCH   5  13
TORSDOF 5
ENDMDL
MODEL 9
REMARK VINA RESULT:      -7.1      2.130      3.482
REMARK  Name = 
REMARK  7 active torsions:
REMARK  status: ('A' for Active; 'I' for Inactive)
REMARK    1  A    between atoms: C_1  and  C_2
REMARK    2  A    between atoms: C_2  and  C_3
REMARK    3  A    between atoms: N_7  and  C_8
REMARK    4  A    between atoms: C_8  and  C_9
REMARK    5  A    between atoms: C_9  and  C_10
REMARK    6  A    between atoms: C_20  and  C_21
REMARK    7  A    between atoms: C_21  and  C_22
REMARK                            x       y       z     vdW  Elec       q    Type
REMARK                         _______ _______ _______ _____ _____    ______ ____
ROOT
ATOM      1  C   UNL     1       7.121   4.767  13.465  0.00  0.00    +0.000 A 
ATOM      2  N   UNL     1       7.799   5.180  14.555  0.00  0.00    +0.000 NA
ATOM      3  N   UNL     1       7.335   4.846  15.792  0.00  0.00    +0.000 NA
ATOM      4  C   UNL     1       6.209   4.118  15.917  0.00  0.00    +0.000 A 
ATOM      5  N   UNL     1       5.752   3.862  17.207  0.00  0.00    +0.000 N 
ATOM      6  N   UNL     1       5.517   3.678  14.858  0.00  0.00    +0.000 NA
ATOM      7  C   UNL     1       5.974   4.005  13.628  0.00  0.00    +0.000 A 
ATOM      8  H   UNL     1       6.191   4.555  17.805  0.00  0.00    +0.000 HD
ENDROOT
BRANCH   1  10
ATOM      9  C   UNL     1       8.740   6.277  12.322  0.00  0.00    +0.000 C 
ATOM     10  C   UNL     1       7.634   5.247  12.140  0.00  0.00    +0.000 C 
ENDBRANCH   1  10
BRANCH   7  11
ATOM     11  C   UNL     1       5.174   3.514  12.444  0.00  0.00    +0.000 C 
ATOM     12  C   UNL     1       5.760   2.293  11.743  0.00  0.00    +0.000 C 
ENDBRANCH   7  11
BRANCH   5  13
ATOM     13  C   UNL     1       4.302   3.754  17.339  0.00  0.00    +0.000 C 
BRANCH  13  14
ATOM     14  C   UNL     1       3.850   4.171  18.744  0.00  0.00    +0.000 C 
BRANCH  14  15
ATOM     15  C   UNL     1       3.297   5.577  18.784  0.00  0.00    +0.000 A 
ATOM     16  C   UNL     1       3.496   6.445  17.689  0.00  0.00    +0.000 A 
ATOM     17  C   UNL     1       2.973   7.740  17.692  0.00  0.00    +0.000 A 
ATOM     18  C   UNL     1       2.249   8.138  18.793  0.00  0.00    +0.000 A 
ATOM     19  C   UNL     1       2.059   7.305  19.885  0.00  0.00    +0.000 A 
ATOM     20  C   UNL     1       2.583   6.025  19.906  0.00  0.00    +0.000 A 
ATOM     21  C   UNL     1       1.306   8.037  20.927  0.00  0.00    +0.000 C 
ATOM     22  C   UNL     1       0.788   9.196  20.072  0.00  0.00    +0.000 C 
ATOM     23  O   UNL     1       1.665   9.370  18.933  0.00  0.00    +0.000 OA
ENDBRANCH  14  15
ENDBRANCH  13  14
ENDBRANCH   5  13
TORSDOF 5
ENDMDL
