MODEL 1
REMARK VINA RESULT:      -4.6      0.000      0.000
REMARK  Name = 
REMARK  4 active torsions:
REMARK  status: ('A' for Active; 'I' for Inactive)
REMARK    1  A    between atoms: C_1  and  N_2
REMARK    2  A    between atoms: N_2  and  C_3
REMARK    3  A    between atoms: C_3  and  C_4
REMARK    4  A    between atoms: C_8  and  C_9
REMARK                            x       y       z     vdW  Elec       q    Type
REMARK                         _______ _______ _______ _____ _____    ______ ____
ROOT
ATOM      1  C   UNL     1       5.946   4.842  17.084  0.00  0.00    +0.000 A 
ATOM      2  C   UNL     1       6.640   5.890  17.660  0.00  0.00    +0.000 A 
ATOM      3  N   UNL     1       7.470   6.383  16.700  0.00  0.00    +0.000 N 
ATOM      4  N   UNL     1       7.369   5.746  15.527  0.00  0.00    +0.000 NA
ATOM      5  C   UNL     1       6.447   4.798  15.749  0.00  0.00    +0.000 A 
ATOM      6  C   UNL     1       6.076   3.874  14.648  0.00  0.00    +0.000 C 
ATOM      7  H   UNL     1       8.121   7.157  16.771  0.00  0.00    +0.000 HD
ENDROOT
BRANCH   1   8
ATOM      8  C   UNL     1       4.882   4.017  17.726  0.00  0.00    +0.000 C 
BRANCH   8  10
ATOM      9  C   UNL     1       4.354   2.644  19.624  0.00  0.00    +0.000 C 
ATOM     10  N   UNL     1       5.355   3.507  19.010  0.00  0.00    +0.000 NA
ATOM     11  H   UNL     1       6.207   2.971  18.864  0.00  0.00    +0.000 HD
ENDBRANCH   8  10
ENDBRANCH   1   8
TORSDOF 2
ENDMDL
MODEL 2
REMARK VINA RESULT:      -4.6      1.004      1.037
REMARK  Name = 
REMARK  4 active torsions:
REMARK  status: ('A' for Active; 'I' for Inactive)
REMARK    1  A    between atoms: C_1  and  N_2
REMARK    2  A    between atoms: N_2  and  C_3
REMARK    3  A    between atoms: C_3  and  C_4
REMARK    4  A    between atoms: C_8  and  C_9
REMARK                            x       y       z     vdW  Elec       q    Type
REMARK                         _______ _______ _______ _____ _____    ______ ____
ROOT
ATOM      1  C   UNL     1       5.774   4.755  16.123  0.00  0.00    +0.000 A 
ATOM      2  C   UNL     1       6.531   5.674  16.826  0.00  0.00    +0.000 A 
ATOM      3  N   UNL     1       7.542   6.060  16.001  0.00  0.00    +0.000 N 
ATOM      4  N   UNL     1       7.505   5.472  14.799  0.00  0.00    +0.000 NA
ATOM      5  C   UNL     1       6.435   4.667  14.861  0.00  0.00    +0.000 A 
ATOM      6  C   UNL     1       6.082   3.835  13.684  0.00  0.00    +0.000 C 
ATOM      7  H   UNL     1       8.284   6.726  16.186  0.00  0.00    +0.000 HD
ENDROOT
BRANCH   1   8
ATOM      8  C   UNL     1       4.527   4.084  16.589  0.00  0.00    +0.000 C 
BRANCH   8  10
ATOM      9  C   UNL     1       4.243   3.550  18.913  0.00  0.00    +0.000 C 
ATOM     10  N   UNL     1       4.841   3.132  17.652  0.00  0.00    +0.000 NA
ATOM     11  H   UNL     1       4.476   2.217  17.401  0.00  0.00    +0.000 HD
ENDBRANCH   8  10
ENDBRANCH   1   8
TORSDOF 2
ENDMDL
MODEL 3
REMARK VINA RESULT:      -4.6      1.047      2.115
REMARK  Name = 
REMARK  4 active torsions:
REMARK  status: ('A' for Active; 'I' for Inactive)
REMARK    1  A    between atoms: C_1  and  N_2
REMARK    2  A    between atoms: N_2  and  C_3
REMARK    3  A    between atoms: C_3  and  C_4
REMARK    4  A    between atoms: C_8  and  C_9
REMARK                            x       y       z     vdW  Elec       q    Type
REMARK                         _______ _______ _______ _____ _____    ______ ____
ROOT
ATOM      1  C   UNL     1       6.260   5.100  17.517  0.00  0.00    +0.000 A 
ATOM      2  C   UNL     1       6.124   4.225  16.455  0.00  0.00    +0.000 A 
ATOM      3  N   UNL     1       6.857   4.738  15.430  0.00  0.00    +0.000 N 
ATOM      4  N   UNL     1       7.476   5.885  15.736  0.00  0.00    +0.000 NA
ATOM      5  C   UNL     1       7.115   6.122  17.005  0.00  0.00    +0.000 A 
ATOM      6  C   UNL     1       7.617   7.340  17.689  0.00  0.00    +0.000 C 
ATOM      7  H   UNL     1       6.989   4.356  14.500  0.00  0.00    +0.000 HD
ENDROOT
BRANCH   1   8
ATOM      8  C   UNL     1       5.681   4.943  18.882  0.00  0.00    +0.000 C 
BRANCH   8  10
ATOM      9  C   UNL     1       4.201   3.163  19.520  0.00  0.00    +0.000 C 
ATOM     10  N   UNL     1       5.580   3.525  19.219  0.00  0.00    +0.000 NA
ATOM     11  H   UNL     1       5.902   2.969  18.431  0.00  0.00    +0.000 HD
ENDBRANCH   8  10
ENDBRANCH   1   8
TORSDOF 2
ENDMDL
MODEL 4
REMARK VINA RESULT:      -4.5      2.567      4.750
REMARK  Name = 
REMARK  4 active torsions:
REMARK  status: ('A' for Active; 'I' for Inactive)
REMARK    1  A    between atoms: C_1  and  N_2
REMARK    2  A    between atoms: N_2  and  C_3
REMARK    3  A    between atoms: C_3  and  C_4
REMARK    4  A    between atoms: C_8  and  C_9
REMARK                            x       y       z     vdW  Elec       q    Type
REMARK                         _______ _______ _______ _____ _____    ______ ____
ROOT
ATOM      1  C   UNL     1       3.620   3.157  17.799  0.00  0.00    +0.000 A 
ATOM      2  C   UNL     1       3.398   1.804  17.975  0.00  0.00    +0.000 A 
ATOM      3  N   UNL     1       2.068   1.656  18.228  0.00  0.00    +0.000 N 
ATOM      4  N   UNL     1       1.392   2.811  18.222  0.00  0.00    +0.000 NA
ATOM      5  C   UNL     1       2.328   3.737  17.969  0.00  0.00    +0.000 A 
ATOM      6  C   UNL     1       1.934   5.166  17.895  0.00  0.00    +0.000 C 
ATOM      7  H   UNL     1       1.554   0.800  18.401  0.00  0.00    +0.000 HD
ENDROOT
BRANCH   1   8
ATOM      8  C   UNL     1       4.915   3.810  17.450  0.00  0.00    +0.000 C 
BRANCH   8  10
ATOM      9  C   UNL     1       5.761   5.188  19.225  0.00  0.00    +0.000 C 
ATOM     10  N   UNL     1       5.780   3.860  18.626  0.00  0.00    +0.000 NA
ATOM     11  H   UNL     1       5.453   3.184  19.312  0.00  0.00    +0.000 HD
ENDBRANCH   8  10
ENDBRANCH   1   8
TORSDOF 2
ENDMDL
MODEL 5
REMARK VINA RESULT:      -4.5      3.233      5.797
REMARK  Name = 
REMARK  4 active torsions:
REMARK  status: ('A' for Active; 'I' for Inactive)
REMARK    1  A    between atoms: C_1  and  N_2
REMARK    2  A    between atoms: N_2  and  C_3
REMARK    3  A    between atoms: C_3  and  C_4
REMARK    4  A    between atoms: C_8  and  C_9
REMARK                            x       y       z     vdW  Elec       q    Type
REMARK                         _______ _______ _______ _____ _____    ______ ____
ROOT
ATOM      1  C   UNL     1       3.160   2.353  19.509  0.00  0.00    +0.000 A 
ATOM      2  C   UNL     1       2.746   1.967  18.247  0.00  0.00    +0.000 A 
ATOM      3  N   UNL     1       1.386   2.025  18.248  0.00  0.00    +0.000 N 
ATOM      4  N   UNL     1       0.868   2.430  19.414  0.00  0.00    +0.000 NA
ATOM      5  C   UNL     1       1.940   2.627  20.195  0.00  0.00    +0.000 A 
ATOM      6  C   UNL     1       1.745   3.084  21.594  0.00  0.00    +0.000 C 
ATOM      7  H   UNL     1       0.748   1.813  17.488  0.00  0.00    +0.000 HD
ENDROOT
BRANCH   1   8
ATOM      8  C   UNL     1       4.567   2.497  19.980  0.00  0.00    +0.000 C 
BRANCH   8  10
ATOM      9  C   UNL     1       5.015   4.736  19.238  0.00  0.00    +0.000 C 
ATOM     10  N   UNL     1       5.323   3.325  19.044  0.00  0.00    +0.000 NA
ATOM     11  H   UNL     1       6.318   3.180  19.196  0.00  0.00    +0.000 HD
ENDBRANCH   8  10
ENDBRANCH   1   8
TORSDOF 2
ENDMDL
MODEL 6
REMARK VINA RESULT:      -4.5      3.312      5.602
REMARK  Name = 
REMARK  4 active torsions:
REMARK  status: ('A' for Active; 'I' for Inactive)
REMARK    1  A    between atoms: C_1  and  N_2
REMARK    2  A    between atoms: N_2  and  C_3
REMARK    3  A    between atoms: C_3  and  C_4
REMARK    4  A    between atoms: C_8  and  C_9
REMARK                            x       y       z     vdW  Elec       q    Type
REMARK                         _______ _______ _______ _____ _____    ______ ____
ROOT
ATOM      1  C   UNL     1       2.661   2.756  19.736  0.00  0.00    +0.000 A 
ATOM      2  C   UNL     1       2.233   2.516  21.028  0.00  0.00    +0.000 A 
ATOM      3  N   UNL     1       1.062   3.193  21.184  0.00  0.00    +0.000 N 
ATOM      4  N   UNL     1       0.678   3.856  20.086  0.00  0.00    +0.000 NA
ATOM      5  C   UNL     1       1.648   3.604  19.196  0.00  0.00    +0.000 A 
ATOM      6  C   UNL     1       1.559   4.196  17.838  0.00  0.00    +0.000 C 
ATOM      7  H   UNL     1       0.467   3.238  22.004  0.00  0.00    +0.000 HD
ENDROOT
BRANCH   1   8
ATOM      8  C   UNL     1       3.873   2.189  19.078  0.00  0.00    +0.000 C 
BRANCH   8  10
ATOM      9  C   UNL     1       5.246   4.143  18.834  0.00  0.00    +0.000 C 
ATOM     10  N   UNL     1       5.067   2.886  19.549  0.00  0.00    +0.000 NA
ATOM     11  H   UNL     1       4.971   3.081  20.542  0.00  0.00    +0.000 HD
ENDBRANCH   8  10
ENDBRANCH   1   8
TORSDOF 2
ENDMDL
MODEL 7
REMARK VINA RESULT:      -4.4      1.759      3.773
REMARK  Name = 
REMARK  4 active torsions:
REMARK  status: ('A' for Active; 'I' for Inactive)
REMARK    1  A    between atoms: C_1  and  N_2
REMARK    2  A    between atoms: N_2  and  C_3
REMARK    3  A    between atoms: C_3  and  C_4
REMARK    4  A    between atoms: C_8  and  C_9
REMARK                            x       y       z     vdW  Elec       q    Type
REMARK                         _______ _______ _______ _____ _____    ______ ____
ROOT
ATOM      1  C   UNL     1       6.010   4.494  16.381  0.00  0.00    +0.000 A 
ATOM      2  C   UNL     1       7.264   4.540  16.963  0.00  0.00    +0.000 A 
ATOM      3  N   UNL     1       7.080   4.355  18.299  0.00  0.00    +0.000 N 
ATOM      4  N   UNL     1       5.799   4.180  18.644  0.00  0.00    +0.000 NA
ATOM      5  C   UNL     1       5.133   4.269  17.484  0.00  0.00    +0.000 A 
ATOM      6  C   UNL     1       3.656   4.129  17.481  0.00  0.00    +0.000 C 
ATOM      7  H   UNL     1       7.782   4.326  19.031  0.00  0.00    +0.000 HD
ENDROOT
BRANCH   1   8
ATOM      8  C   UNL     1       5.698   4.596  14.926  0.00  0.00    +0.000 C 
BRANCH   8  10
ATOM      9  C   UNL     1       6.234   3.687  12.769  0.00  0.00    +0.000 C 
ATOM     10  N   UNL     1       6.300   3.474  14.209  0.00  0.00    +0.000 NA
ATOM     11  H   UNL     1       7.275   3.384  14.485  0.00  0.00    +0.000 HD
ENDBRANCH   8  10
ENDBRANCH   1   8
TORSDOF 2
ENDMDL
MODEL 8
REMARK VINA RESULT:      -4.4      2.433      5.334
REMARK  Name = 
REMARK  4 active torsions:
REMARK  status: ('A' for Active; 'I' for Inactive)
REMARK    1  A    between atoms: C_1  and  N_2
REMARK    2  A    between atoms: N_2  and  C_3
REMARK    3  A    between atoms: C_3  and  C_4
REMARK    4  A    between atoms: C_8  and  C_9
REMARK                            x       y       z     vdW  Elec       q    Type
REMARK                         _______ _______ _______ _____ _____    ______ ____
ROOT
ATOM      1  C   UNL     1       3.561   3.256  19.021  0.00  0.00    +0.000 A 
ATOM      2  C   UNL     1       3.312   2.583  17.839  0.00  0.00    +0.000 A 
ATOM      3  N   UNL     1       2.231   1.787  18.063  0.00  0.00    +0.000 N 
ATOM      4  N   UNL     1       1.738   1.890  19.303  0.00  0.00    +0.000 NA
ATOM      5  C   UNL     1       2.545   2.778  19.902  0.00  0.00    +0.000 A 
ATOM      6  C   UNL     1       2.300   3.141  21.320  0.00  0.00    +0.000 C 
ATOM      7  H   UNL     1       1.769   1.158  17.415  0.00  0.00    +0.000 HD
ENDROOT
BRANCH   1   8
ATOM      8  C   UNL     1       4.616   4.282  19.258  0.00  0.00    +0.000 C 
BRANCH   8  10
ATOM      9  C   UNL     1       6.543   4.710  17.890  0.00  0.00    +0.000 C 
ATOM     10  N   UNL     1       5.912   3.775  18.813  0.00  0.00    +0.000 NA
ATOM     11  H   UNL     1       6.517   3.648  19.620  0.00  0.00    +0.000 HD
ENDBRANCH   8  10
ENDBRANCH   1   8
TORSDOF 2
ENDMDL
MODEL 9
REMARK VINA RESULT:      -4.4      1.156      2.215
REMARK  Name = 
REMARK  4 active torsions:
REMARK  status: ('A' for Active; 'I' for Inactive)
REMARK    1  A    between atoms: C_1  and  N_2
REMARK    2  A    between atoms: N_2  and  C_3
REMARK    3  A    between atoms: C_3  and  C_4
REMARK    4  A    between atoms: C_8  and  C_9
REMARK                            x       y       z     vdW  Elec       q    Type
REMARK                         _______ _______ _______ _____ _____    ______ ____
ROOT
ATOM      1  C   UNL     1       5.597   4.652  15.852  0.00  0.00    +0.000 A 
ATOM      2  C   UNL     1       5.729   4.196  14.553  0.00  0.00    +0.000 A 
ATOM      3  N   UNL     1       6.911   4.685  14.086  0.00  0.00    +0.000 N 
ATOM      4  N   UNL     1       7.576   5.423  14.984  0.00  0.00    +0.000 NA
ATOM      5  C   UNL     1       6.782   5.418  16.064  0.00  0.00    +0.000 A 
ATOM      6  C   UNL     1       7.203   6.158  17.279  0.00  0.00    +0.000 C 
ATOM      7  H   UNL     1       7.331   4.546  13.174  0.00  0.00    +0.000 HD
ENDROOT
BRANCH   1   8
ATOM      8  C   UNL     1       4.487   4.340  16.797  0.00  0.00    +0.000 C 
BRANCH   8  10
ATOM      9  C   UNL     1       4.757   3.775  19.115  0.00  0.00    +0.000 C 
ATOM     10  N   UNL     1       4.914   3.311  17.743  0.00  0.00    +0.000 NA
ATOM     11  H   UNL     1       4.347   2.478  17.609  0.00  0.00    +0.000 HD
ENDBRANCH   8  10
ENDBRANCH   1   8
TORSDOF 2
ENDMDL
