MODEL 1
REMARK VINA RESULT:      -7.1      0.000      0.000
REMARK  Name = 
REMARK  5 active torsions:
REMARK  status: ('A' for Active; 'I' for Inactive)
REMARK    1  A    between atoms: C_1  and  O_2
REMARK    2  A    between atoms: O_2  and  C_3
REMARK    3  A    between atoms: C_3  and  C_4
REMARK    4  A    between atoms: C_15  and  C_16
REMARK    5  A    between atoms: C_18  and  N_19
REMARK                            x       y       z     vdW  Elec       q    Type
REMARK                         _______ _______ _______ _____ _____    ______ ____
ROOT
ATOM      1  C   UNL     1       5.427   5.063  15.699  0.00  0.00    +0.000 A 
ATOM      2  N   UNL     1       5.875   6.219  15.168  0.00  0.00    +0.000 NA
ATOM      3  N   UNL     1       5.303   7.175  15.916  0.00  0.00    +0.000 N 
ATOM      4  C   UNL     1       4.520   6.674  16.905  0.00  0.00    +0.000 A 
ATOM      5  C   UNL     1       4.571   5.301  16.812  0.00  0.00    +0.000 A 
ATOM      6  C   UNL     1       3.827   4.428  17.799  0.00  0.00    +0.000 C 
ATOM      7  C   UNL     1       4.872   3.798  18.770  0.00  0.00    +0.000 C 
ATOM      8  C   UNL     1       4.347   2.781  19.775  0.00  0.00    +0.000 C 
ATOM      9  S   UNL     1       3.592   1.350  18.961  0.00  0.00    +0.000 S 
ATOM     10  C   UNL     1       2.422   2.169  17.844  0.00  0.00    +0.000 C 
ATOM     11  C   UNL     1       3.031   3.322  17.043  0.00  0.00    +0.000 C 
ATOM     12  C   UNL     1       2.896   5.390  18.607  0.00  0.00    +0.000 C 
ATOM     13  C   UNL     1       2.957   6.743  18.605  0.00  0.00    +0.000 C 
ATOM     14  O   UNL     1       3.842   7.427  17.759  0.00  0.00    +0.000 OA
ATOM     15  H   UNL     1       5.479   8.149  15.689  0.00  0.00    +0.000 HD
ENDROOT
BRANCH  13  16
ATOM     16  N   UNL     1       2.190   7.574  19.385  0.00  0.00    +0.000 N 
ATOM     17  H   UNL     1       2.241   8.569  19.185  0.00  0.00    +0.000 HD
ATOM     18  H   UNL     1       2.251   7.352  20.375  0.00  0.00    +0.000 HD
ENDBRANCH  13  16
BRANCH  12  19
ATOM     19  C   UNL     1       1.845   4.690  19.454  0.00  0.00    +0.000 C 
ATOM     20  N   UNL     1       0.974   4.111  20.156  0.00  0.00    +0.000 NA
ENDBRANCH  12  19
BRANCH   1  21
ATOM     21  C   UNL     1       5.842   3.763  15.080  0.00  0.00    +0.000 C 
BRANCH  21  23
ATOM     22  C   UNL     1       5.959   3.480  12.721  0.00  0.00    +0.000 C 
ATOM     23  O   UNL     1       6.640   3.913  13.894  0.00  0.00    +0.000 OA
ENDBRANCH  21  23
ENDBRANCH   1  21
TORSDOF 4
ENDMDL
MODEL 2
REMARK VINA RESULT:      -6.5      0.980      1.228
REMARK  Name = 
REMARK  5 active torsions:
REMARK  status: ('A' for Active; 'I' for Inactive)
REMARK    1  A    between atoms: C_1  and  O_2
REMARK    2  A    between atoms: O_2  and  C_3
REMARK    3  A    between atoms: C_3  and  C_4
REMARK    4  A    between atoms: C_15  and  C_16
REMARK    5  A    between atoms: C_18  and  N_19
REMARK                            x       y       z     vdW  Elec       q    Type
REMARK                         _______ _______ _______ _____ _____    ______ ____
ROOT
ATOM      1  C   UNL     1       4.909   5.586  16.118  0.00  0.00    +0.000 A 
ATOM      2  N   UNL     1       5.206   6.851  15.756  0.00  0.00    +0.000 NA
ATOM      3  N   UNL     1       4.620   7.614  16.692  0.00  0.00    +0.000 N 
ATOM      4  C   UNL     1       3.972   6.886  17.636  0.00  0.00    +0.000 A 
ATOM      5  C   UNL     1       4.135   5.557  17.312  0.00  0.00    +0.000 A 
ATOM      6  C   UNL     1       3.558   4.468  18.191  0.00  0.00    +0.000 C 
ATOM      7  C   UNL     1       4.734   3.799  18.966  0.00  0.00    +0.000 C 
ATOM      8  C   UNL     1       4.389   2.587  19.822  0.00  0.00    +0.000 C 
ATOM      9  S   UNL     1       3.694   1.235  18.836  0.00  0.00    +0.000 S 
ATOM     10  C   UNL     1       2.365   2.101  17.957  0.00  0.00    +0.000 C 
ATOM     11  C   UNL     1       2.800   3.421  17.318  0.00  0.00    +0.000 C 
ATOM     12  C   UNL     1       2.619   5.190  19.211  0.00  0.00    +0.000 C 
ATOM     13  C   UNL     1       2.562   6.526  19.431  0.00  0.00    +0.000 C 
ATOM     14  O   UNL     1       3.307   7.421  18.650  0.00  0.00    +0.000 OA
ATOM     15  H   UNL     1       4.690   8.624  16.618  0.00  0.00    +0.000 HD
ENDROOT
BRANCH  13  16
ATOM     16  N   UNL     1       1.795   7.140  20.390  0.00  0.00    +0.000 N 
ATOM     17  H   UNL     1       2.155   7.134  21.340  0.00  0.00    +0.000 HD
ATOM     18  H   UNL     1       0.810   6.895  20.325  0.00  0.00    +0.000 HD
ENDBRANCH  13  16
BRANCH  12  19
ATOM     19  C   UNL     1       1.711   4.262  20.002  0.00  0.00    +0.000 C 
ATOM     20  N   UNL     1       0.959   3.493  20.659  0.00  0.00    +0.000 NA
ENDBRANCH  12  19
BRANCH   1  21
ATOM     21  C   UNL     1       5.381   4.449  15.263  0.00  0.00    +0.000 C 
BRANCH  21  23
ATOM     22  C   UNL     1       7.385   4.368  16.541  0.00  0.00    +0.000 C 
ATOM     23  O   UNL     1       6.810   4.293  15.241  0.00  0.00    +0.000 OA
ENDBRANCH  21  23
ENDBRANCH   1  21
TORSDOF 4
ENDMDL
MODEL 3
REMARK VINA RESULT:      -6.4      2.956      5.896
REMARK  Name = 
REMARK  5 active torsions:
REMARK  status: ('A' for Active; 'I' for Inactive)
REMARK    1  A    between atoms: C_1  and  O_2
REMARK    2  A    between atoms: O_2  and  C_3
REMARK    3  A    between atoms: C_3  and  C_4
REMARK    4  A    between atoms: C_15  and  C_16
REMARK    5  A    between atoms: C_18  and  N_19
REMARK                            x       y       z     vdW  Elec       q    Type
REMARK                         _______ _______ _______ _____ _____    ______ ____
ROOT
ATOM      1  C   UNL     1       2.130   5.947  20.055  0.00  0.00    +0.000 A 
ATOM      2  N   UNL     1       1.182   5.338  20.797  0.00  0.00    +0.000 NA
ATOM      3  N   UNL     1       1.346   4.031  20.542  0.00  0.00    +0.000 N 
ATOM      4  C   UNL     1       2.362   3.785  19.677  0.00  0.00    +0.000 A 
ATOM      5  C   UNL     1       2.911   5.001  19.333  0.00  0.00    +0.000 A 
ATOM      6  C   UNL     1       4.100   5.079  18.400  0.00  0.00    +0.000 C 
ATOM      7  C   UNL     1       5.358   5.433  19.250  0.00  0.00    +0.000 C 
ATOM      8  C   UNL     1       6.652   5.683  18.486  0.00  0.00    +0.000 C 
ATOM      9  S   UNL     1       6.503   7.072  17.333  0.00  0.00    +0.000 S 
ATOM     10  C   UNL     1       5.015   6.594  16.413  0.00  0.00    +0.000 C 
ATOM     11  C   UNL     1       3.848   6.157  17.302  0.00  0.00    +0.000 C 
ATOM     12  C   UNL     1       4.273   3.644  17.803  0.00  0.00    +0.000 C 
ATOM     13  C   UNL     1       3.663   2.520  18.246  0.00  0.00    +0.000 C 
ATOM     14  O   UNL     1       2.700   2.572  19.264  0.00  0.00    +0.000 OA
ATOM     15  H   UNL     1       0.721   3.362  20.981  0.00  0.00    +0.000 HD
ENDROOT
BRANCH  13  16
ATOM     16  N   UNL     1       3.889   1.252  17.769  0.00  0.00    +0.000 N 
ATOM     17  H   UNL     1       4.845   1.021  17.514  0.00  0.00    +0.000 HD
ATOM     18  H   UNL     1       3.201   0.962  17.079  0.00  0.00    +0.000 HD
ENDBRANCH  13  16
BRANCH  12  19
ATOM     19  C   UNL     1       5.226   3.562  16.621  0.00  0.00    +0.000 C 
ATOM     20  N   UNL     1       6.017   3.493  15.642  0.00  0.00    +0.000 NA
ENDBRANCH  12  19
BRANCH   1  21
ATOM     21  C   UNL     1       2.220   7.443  20.066  0.00  0.00    +0.000 C 
BRANCH  21  23
ATOM     22  C   UNL     1       0.745   9.246  20.551  0.00  0.00    +0.000 C 
ATOM     23  O   UNL     1       1.375   8.069  21.046  0.00  0.00    +0.000 OA
ENDBRANCH  21  23
ENDBRANCH   1  21
TORSDOF 4
ENDMDL
MODEL 4
REMARK VINA RESULT:      -6.3      3.303      4.892
REMARK  Name = 
REMARK  5 active torsions:
REMARK  status: ('A' for Active; 'I' for Inactive)
REMARK    1  A    between atoms: C_1  and  O_2
REMARK    2  A    between atoms: O_2  and  C_3
REMARK    3  A    between atoms: C_3  and  C_4
REMARK    4  A    between atoms: C_15  and  C_16
REMARK    5  A    between atoms: C_18  and  N_19
REMARK                            x       y       z     vdW  Elec       q    Type
REMARK                         _______ _______ _______ _____ _____    ______ ____
ROOT
ATOM      1  C   UNL     1       2.393   7.454  19.163  0.00  0.00    +0.000 A 
ATOM      2  N   UNL     1       1.639   8.074  20.093  0.00  0.00    +0.000 NA
ATOM      3  N   UNL     1       1.431   7.140  21.034  0.00  0.00    +0.000 N 
ATOM      4  C   UNL     1       2.030   5.957  20.743  0.00  0.00    +0.000 A 
ATOM      5  C   UNL     1       2.676   6.110  19.536  0.00  0.00    +0.000 A 
ATOM      6  C   UNL     1       3.479   4.975  18.937  0.00  0.00    +0.000 C 
ATOM      7  C   UNL     1       4.991   5.314  19.103  0.00  0.00    +0.000 C 
ATOM      8  C   UNL     1       5.983   4.356  18.455  0.00  0.00    +0.000 C 
ATOM      9  S   UNL     1       5.755   4.256  16.660  0.00  0.00    +0.000 S 
ATOM     10  C   UNL     1       3.982   3.890  16.560  0.00  0.00    +0.000 C 
ATOM     11  C   UNL     1       3.110   4.796  17.433  0.00  0.00    +0.000 C 
ATOM     12  C   UNL     1       3.141   3.711  19.792  0.00  0.00    +0.000 C 
ATOM     13  C   UNL     1       2.490   3.705  20.980  0.00  0.00    +0.000 C 
ATOM     14  O   UNL     1       1.951   4.883  21.516  0.00  0.00    +0.000 OA
ATOM     15  H   UNL     1       0.861   7.371  21.841  0.00  0.00    +0.000 HD
ENDROOT
BRANCH  13  16
ATOM     16  N   UNL     1       2.276   2.596  21.762  0.00  0.00    +0.000 N 
ATOM     17  H   UNL     1       2.329   2.727  22.768  0.00  0.00    +0.000 HD
ATOM     18  H   UNL     1       2.776   1.776  21.429  0.00  0.00    +0.000 HD
ENDBRANCH  13  16
BRANCH  12  19
ATOM     19  C   UNL     1       3.611   2.396  19.190  0.00  0.00    +0.000 C 
ATOM     20  N   UNL     1       4.002   1.307  18.691  0.00  0.00    +0.000 NA
ENDBRANCH  12  19
BRANCH   1  21
ATOM     21  C   UNL     1       2.793   8.201  17.927  0.00  0.00    +0.000 C 
BRANCH  21  23
ATOM     22  C   UNL     1       2.111  10.480  17.903  0.00  0.00    +0.000 C 
ATOM     23  O   UNL     1       1.812   9.154  17.481  0.00  0.00    +0.000 OA
ENDBRANCH  21  23
ENDBRANCH   1  21
TORSDOF 4
ENDMDL
MODEL 5
REMARK VINA RESULT:      -6.1      2.778      5.210
REMARK  Name = 
REMARK  5 active torsions:
REMARK  status: ('A' for Active; 'I' for Inactive)
REMARK    1  A    between atoms: C_1  and  O_2
REMARK    2  A    between atoms: O_2  and  C_3
REMARK    3  A    between atoms: C_3  and  C_4
REMARK    4  A    between atoms: C_15  and  C_16
REMARK    5  A    between atoms: C_18  and  N_19
REMARK                            x       y       z     vdW  Elec       q    Type
REMARK                         _______ _______ _______ _____ _____    ______ ____
ROOT
ATOM      1  C   UNL     1       3.676   2.534  20.862  0.00  0.00    +0.000 A 
ATOM      2  N   UNL     1       2.830   2.408  21.904  0.00  0.00    +0.000 NA
ATOM      3  N   UNL     1       2.094   3.530  21.875  0.00  0.00    +0.000 N 
ATOM      4  C   UNL     1       2.431   4.356  20.852  0.00  0.00    +0.000 A 
ATOM      5  C   UNL     1       3.455   3.750  20.157  0.00  0.00    +0.000 A 
ATOM      6  C   UNL     1       4.045   4.400  18.924  0.00  0.00    +0.000 C 
ATOM      7  C   UNL     1       3.541   3.614  17.676  0.00  0.00    +0.000 C 
ATOM      8  C   UNL     1       4.117   4.027  16.327  0.00  0.00    +0.000 C 
ATOM      9  S   UNL     1       5.916   3.828  16.268  0.00  0.00    +0.000 S 
ATOM     10  C   UNL     1       6.411   4.741  17.755  0.00  0.00    +0.000 C 
ATOM     11  C   UNL     1       5.602   4.381  19.003  0.00  0.00    +0.000 C 
ATOM     12  C   UNL     1       3.464   5.851  18.882  0.00  0.00    +0.000 C 
ATOM     13  C   UNL     1       2.440   6.319  19.634  0.00  0.00    +0.000 C 
ATOM     14  O   UNL     1       1.853   5.528  20.632  0.00  0.00    +0.000 OA
ATOM     15  H   UNL     1       1.388   3.674  22.590  0.00  0.00    +0.000 HD
ENDROOT
BRANCH  13  16
ATOM     16  N   UNL     1       1.883   7.570  19.526  0.00  0.00    +0.000 N 
ATOM     17  H   UNL     1       2.360   8.328  20.006  0.00  0.00    +0.000 HD
ATOM     18  H   UNL     1       0.876   7.567  19.666  0.00  0.00    +0.000 HD
ENDBRANCH  13  16
BRANCH  12  19
ATOM     19  C   UNL     1       4.149   6.778  17.889  0.00  0.00    +0.000 C 
ATOM     20  N   UNL     1       4.716   7.546  17.068  0.00  0.00    +0.000 NA
ENDBRANCH  12  19
BRANCH   1  21
ATOM     21  C   UNL     1       4.690   1.459  20.607  0.00  0.00    +0.000 C 
BRANCH  21  23
ATOM     22  C   UNL     1       5.986   0.005  21.972  0.00  0.00    +0.000 C 
ATOM     23  O   UNL     1       5.696   1.355  21.629  0.00  0.00    +0.000 OA
ENDBRANCH  21  23
ENDBRANCH   1  21
TORSDOF 4
ENDMDL
MODEL 6
REMARK VINA RESULT:      -5.9      1.971      4.816
REMARK  Name = 
REMARK  5 active torsions:
REMARK  status: ('A' for Active; 'I' for Inactive)
REMARK    1  A    between atoms: C_1  and  O_2
REMARK    2  A    between atoms: O_2  and  C_3
REMARK    3  A    between atoms: C_3  and  C_4
REMARK    4  A    between atoms: C_15  and  C_16
REMARK    5  A    between atoms: C_18  and  N_19
REMARK                            x       y       z     vdW  Elec       q    Type
REMARK                         _______ _______ _______ _____ _____    ______ ____
ROOT
ATOM      1  C   UNL     1       2.161   6.680  19.779  0.00  0.00    +0.000 A 
ATOM      2  N   UNL     1       1.834   7.988  19.765  0.00  0.00    +0.000 NA
ATOM      3  N   UNL     1       2.395   8.462  18.642  0.00  0.00    +0.000 N 
ATOM      4  C   UNL     1       3.055   7.507  17.939  0.00  0.00    +0.000 A 
ATOM      5  C   UNL     1       2.928   6.325  18.634  0.00  0.00    +0.000 A 
ATOM      6  C   UNL     1       3.526   5.042  18.099  0.00  0.00    +0.000 C 
ATOM      7  C   UNL     1       2.363   4.152  17.564  0.00  0.00    +0.000 C 
ATOM      8  C   UNL     1       2.733   2.753  17.089  0.00  0.00    +0.000 C 
ATOM      9  S   UNL     1       3.467   1.758  18.413  0.00  0.00    +0.000 S 
ATOM     10  C   UNL     1       4.780   2.870  18.988  0.00  0.00    +0.000 C 
ATOM     11  C   UNL     1       4.316   4.308  19.225  0.00  0.00    +0.000 C 
ATOM     12  C   UNL     1       4.441   5.461  16.901  0.00  0.00    +0.000 C 
ATOM     13  C   UNL     1       4.463   6.677  16.306  0.00  0.00    +0.000 C 
ATOM     14  O   UNL     1       3.701   7.742  16.806  0.00  0.00    +0.000 OA
ATOM     15  H   UNL     1       2.300   9.448  18.422  0.00  0.00    +0.000 HD
ENDROOT
BRANCH  13  16
ATOM     16  N   UNL     1       5.208   7.006  15.200  0.00  0.00    +0.000 N 
ATOM     17  H   UNL     1       4.949   6.564  14.323  0.00  0.00    +0.000 HD
ATOM     18  H   UNL     1       6.209   6.997  15.382  0.00  0.00    +0.000 HD
ENDBRANCH  13  16
BRANCH  12  19
ATOM     19  C   UNL     1       5.367   4.365  16.399  0.00  0.00    +0.000 C 
ATOM     20  N   UNL     1       6.136   3.457  15.982  0.00  0.00    +0.000 NA
ENDBRANCH  12  19
BRANCH   1  21
ATOM     21  C   UNL     1       1.722   5.827  20.932  0.00  0.00    +0.000 C 
BRANCH  21  23
ATOM     22  C   UNL     1       1.458   3.477  21.190  0.00  0.00    +0.000 C 
ATOM     23  O   UNL     1       0.990   4.654  20.540  0.00  0.00    +0.000 OA
ENDBRANCH  21  23
ENDBRANCH   1  21
TORSDOF 4
ENDMDL
MODEL 7
REMARK VINA RESULT:      -5.8      2.315      4.848
REMARK  Name = 
REMARK  5 active torsions:
REMARK  status: ('A' for Active; 'I' for Inactive)
REMARK    1  A    between atoms: C_1  and  O_2
REMARK    2  A    between atoms: O_2  and  C_3
REMARK    3  A    between atoms: C_3  and  C_4
REMARK    4  A    between atoms: C_15  and  C_16
REMARK    5  A    between atoms: C_18  and  N_19
REMARK                            x       y       z     vdW  Elec       q    Type
REMARK                         _______ _______ _______ _____ _____    ______ ____
ROOT
ATOM      1  C   UNL     1       2.775   7.308  18.569  0.00  0.00    +0.000 A 
ATOM      2  N   UNL     1       3.324   8.266  17.794  0.00  0.00    +0.000 NA
ATOM      3  N   UNL     1       4.122   7.596  16.949  0.00  0.00    +0.000 N 
ATOM      4  C   UNL     1       4.095   6.254  17.149  0.00  0.00    +0.000 A 
ATOM      5  C   UNL     1       3.226   6.013  18.190  0.00  0.00    +0.000 A 
ATOM      6  C   UNL     1       2.938   4.599  18.649  0.00  0.00    +0.000 C 
ATOM      7  C   UNL     1       1.508   4.216  18.162  0.00  0.00    +0.000 C 
ATOM      8  C   UNL     1       0.966   2.869  18.624  0.00  0.00    +0.000 C 
ATOM      9  S   UNL     1       0.852   2.765  20.429  0.00  0.00    +0.000 S 
ATOM     10  C   UNL     1       2.534   3.248  20.905  0.00  0.00    +0.000 C 
ATOM     11  C   UNL     1       3.042   4.509  20.202  0.00  0.00    +0.000 C 
ATOM     12  C   UNL     1       3.985   3.690  17.925  0.00  0.00    +0.000 C 
ATOM     13  C   UNL     1       4.786   4.063  16.898  0.00  0.00    +0.000 C 
ATOM     14  O   UNL     1       4.813   5.390  16.446  0.00  0.00    +0.000 OA
ATOM     15  H   UNL     1       4.668   8.116  16.270  0.00  0.00    +0.000 HD
ENDROOT
BRANCH  13  16
ATOM     16  N   UNL     1       5.639   3.232  16.215  0.00  0.00    +0.000 N 
ATOM     17  H   UNL     1       5.287   2.310  15.973  0.00  0.00    +0.000 HD
ATOM     18  H   UNL     1       6.577   3.222  16.607  0.00  0.00    +0.000 HD
ENDBRANCH  13  16
BRANCH  12  19
ATOM     19  C   UNL     1       4.068   2.270  18.461  0.00  0.00    +0.000 C 
ATOM     20  N   UNL     1       4.137   1.093  18.906  0.00  0.00    +0.000 NA
ENDBRANCH  12  19
BRANCH   1  21
ATOM     21  C   UNL     1       1.838   7.704  19.670  0.00  0.00    +0.000 C 
BRANCH  21  23
ATOM     22  C   UNL     1       0.590   9.456  20.687  0.00  0.00    +0.000 C 
ATOM     23  O   UNL     1       1.312   9.036  19.534  0.00  0.00    +0.000 OA
ENDBRANCH  21  23
ENDBRANCH   1  21
TORSDOF 4
ENDMDL
MODEL 8
REMARK VINA RESULT:      -5.6     10.372     12.176
REMARK  Name = 
REMARK  5 active torsions:
REMARK  status: ('A' for Active; 'I' for Inactive)
REMARK    1  A    between atoms: C_1  and  O_2
REMARK    2  A    between atoms: O_2  and  C_3
REMARK    3  A    between atoms: C_3  and  C_4
REMARK    4  A    between atoms: C_15  and  C_16
REMARK    5  A    between atoms: C_18  and  N_19
REMARK                            x       y       z     vdW  Elec       q    Type
REMARK                         _______ _______ _______ _____ _____    ______ ____
ROOT
ATOM      1  C   UNL     1      10.996  12.962  17.644  0.00  0.00    +0.000 A 
ATOM      2  N   UNL     1      12.069  12.857  16.833  0.00  0.00    +0.000 NA
ATOM      3  N   UNL     1      12.332  14.120  16.462  0.00  0.00    +0.000 N 
ATOM      4  C   UNL     1      11.478  15.021  17.010  0.00  0.00    +0.000 A 
ATOM      5  C   UNL     1      10.591  14.318  17.795  0.00  0.00    +0.000 A 
ATOM      6  C   UNL     1       9.517  15.036  18.584  0.00  0.00    +0.000 C 
ATOM      7  C   UNL     1       9.928  15.018  20.088  0.00  0.00    +0.000 C 
ATOM      8  C   UNL     1       8.920  15.583  21.080  0.00  0.00    +0.000 C 
ATOM      9  S   UNL     1       7.353  14.676  21.048  0.00  0.00    +0.000 S 
ATOM     10  C   UNL     1       6.967  14.723  19.277  0.00  0.00    +0.000 C 
ATOM     11  C   UNL     1       8.140  14.335  18.375  0.00  0.00    +0.000 C 
ATOM     12  C   UNL     1       9.521  16.514  18.071  0.00  0.00    +0.000 C 
ATOM     13  C   UNL     1      10.473  17.082  17.293  0.00  0.00    +0.000 C 
ATOM     14  O   UNL     1      11.533  16.324  16.775  0.00  0.00    +0.000 OA
ATOM     15  H   UNL     1      13.100  14.294  15.821  0.00  0.00    +0.000 HD
ENDROOT
BRANCH  13  16
ATOM     16  N   UNL     1      10.509  18.403  16.921  0.00  0.00    +0.000 N 
ATOM     17  H   UNL     1       9.838  19.024  17.364  0.00  0.00    +0.000 HD
ATOM     18  H   UNL     1      10.577  18.527  15.914  0.00  0.00    +0.000 HD
ENDBRANCH  13  16
BRANCH  12  19
ATOM     19  C   UNL     1       8.327  17.342  18.518  0.00  0.00    +0.000 C 
ATOM     20  N   UNL     1       7.338  18.029  18.889  0.00  0.00    +0.000 NA
ENDBRANCH  12  19
BRANCH   1  21
ATOM     21  C   UNL     1      10.394  11.720  18.228  0.00  0.00    +0.000 C 
BRANCH  21  23
ATOM     22  C   UNL     1       9.475  11.314  20.384  0.00  0.00    +0.000 C 
ATOM     23  O   UNL     1      10.659  11.550  19.631  0.00  0.00    +0.000 OA
ENDBRANCH  21  23
ENDBRANCH   1  21
TORSDOF 4
ENDMDL
MODEL 9
REMARK VINA RESULT:      -5.6     10.385     12.092
REMARK  Name = 
REMARK  5 active torsions:
REMARK  status: ('A' for Active; 'I' for Inactive)
REMARK    1  A    between atoms: C_1  and  O_2
REMARK    2  A    between atoms: O_2  and  C_3
REMARK    3  A    between atoms: C_3  and  C_4
REMARK    4  A    between atoms: C_15  and  C_16
REMARK    5  A    between atoms: C_18  and  N_19
REMARK                            x       y       z     vdW  Elec       q    Type
REMARK                         _______ _______ _______ _____ _____    ______ ____
ROOT
ATOM      1  C   UNL     1      11.811  14.169  17.509  0.00  0.00    +0.000 A 
ATOM      2  N   UNL     1      12.330  13.191  16.738  0.00  0.00    +0.000 NA
ATOM      3  N   UNL     1      11.906  12.053  17.310  0.00  0.00    +0.000 N 
ATOM      4  C   UNL     1      11.133  12.269  18.404  0.00  0.00    +0.000 A 
ATOM      5  C   UNL     1      11.034  13.632  18.574  0.00  0.00    +0.000 A 
ATOM      6  C   UNL     1      10.204  14.216  19.697  0.00  0.00    +0.000 C 
ATOM      7  C   UNL     1       8.901  14.807  19.078  0.00  0.00    +0.000 C 
ATOM      8  C   UNL     1       7.973  15.558  20.024  0.00  0.00    +0.000 C 
ATOM      9  S   UNL     1       8.785  16.992  20.775  0.00  0.00    +0.000 S 
ATOM     10  C   UNL     1      10.288  16.225  21.440  0.00  0.00    +0.000 C 
ATOM     11  C   UNL     1      11.015  15.318  20.445  0.00  0.00    +0.000 C 
ATOM     12  C   UNL     1       9.830  13.014  20.625  0.00  0.00    +0.000 C 
ATOM     13  C   UNL     1       9.983  11.702  20.326  0.00  0.00    +0.000 C 
ATOM     14  O   UNL     1      10.614  11.298  19.142  0.00  0.00    +0.000 OA
ATOM     15  H   UNL     1      12.192  11.165  16.910  0.00  0.00    +0.000 HD
ENDROOT
BRANCH  13  16
ATOM     16  N   UNL     1       9.571  10.655  21.115  0.00  0.00    +0.000 N 
ATOM     17  H   UNL     1      10.125  10.457  21.942  0.00  0.00    +0.000 HD
ATOM     18  H   UNL     1       9.329   9.828  20.576  0.00  0.00    +0.000 HD
ENDBRANCH  13  16
BRANCH  12  19
ATOM     19  C   UNL     1       9.244  13.413  21.970  0.00  0.00    +0.000 C 
ATOM     20  N   UNL     1       8.758  13.742  23.086  0.00  0.00    +0.000 NA
ENDBRANCH  12  19
BRANCH   1  21
ATOM     21  C   UNL     1      12.115  15.600  17.180  0.00  0.00    +0.000 C 
BRANCH  21  23
ATOM     22  C   UNL     1      10.766  17.552  17.341  0.00  0.00    +0.000 C 
ATOM     23  O   UNL     1      10.991  16.326  16.655  0.00  0.00    +0.000 OA
ENDBRANCH  21  23
ENDBRANCH   1  21
TORSDOF 4
ENDMDL
