MODEL 1
REMARK VINA RESULT:      -8.0      0.000      0.000
REMARK  Name = 
REMARK  7 active torsions:
REMARK  status: ('A' for Active; 'I' for Inactive)
REMARK    1  A    between atoms: C_2  and  C_3
REMARK    2  A    between atoms: C_3  and  S_4
REMARK    3  A    between atoms: S_4  and  C_5
REMARK    4  A    between atoms: N_14  and  C_15
REMARK    5  A    between atoms: C_15  and  C_16
REMARK    6  A    between atoms: N_20  and  C_21
REMARK    7  A    between atoms: C_21  and  C_22
REMARK                            x       y       z     vdW  Elec       q    Type
REMARK                         _______ _______ _______ _____ _____    ______ ____
ROOT
ATOM      1  O   UNL     1       0.571   7.997  21.255  0.00  0.00    +0.000 OA
ATOM      2  C   UNL     1       1.377   7.907  20.328  0.00  0.00    +0.000 C 
ATOM      3  N   UNL     1       2.137   6.772  20.126  0.00  0.00    +0.000 N 
ATOM      4  H   UNL     1       2.787   6.761  19.351  0.00  0.00    +0.000 HD
ENDROOT
BRANCH   2   5
ATOM      5  C   UNL     1       1.578   8.993  19.280  0.00  0.00    +0.000 C 
BRANCH   5   6
ATOM      6  S   UNL     1       1.008  10.620  19.865  0.00  0.00    +0.000 S 
BRANCH   6   7
ATOM      7  C   UNL     1      -0.510  10.714  19.000  0.00  0.00    +0.000 A 
ATOM      8  N   UNL     1      -0.680  10.061  17.874  0.00  0.00    +0.000 NA
ATOM      9  C   UNL     1      -1.914  10.385  17.339  0.00  0.00    +0.000 A 
ATOM     10  C   UNL     1      -2.421   9.922  16.109  0.00  0.00    +0.000 A 
ATOM     11  C   UNL     1      -3.673  10.356  15.666  0.00  0.00    +0.000 A 
ATOM     12  C   UNL     1      -4.428  11.234  16.438  0.00  0.00    +0.000 A 
ATOM     13  C   UNL     1      -3.954  11.697  17.670  0.00  0.00    +0.000 A 
ATOM     14  C   UNL     1      -2.689  11.262  18.101  0.00  0.00    +0.000 A 
ATOM     15  S   UNL     1      -1.828  11.658  19.539  0.00  0.00    +0.000 S 
ENDBRANCH   6   7
ENDBRANCH   5   6
ENDBRANCH   2   5
BRANCH   3  16
ATOM     16  C   UNL     1       2.063   5.592  20.980  0.00  0.00    +0.000 C 
BRANCH  16  17
ATOM     17  C   UNL     1       1.251   4.463  20.316  0.00  0.00    +0.000 C 
ATOM     18  C   UNL     1       1.357   3.138  21.086  0.00  0.00    +0.000 C 
ATOM     19  C   UNL     1       2.763   2.556  20.971  0.00  0.00    +0.000 C 
ATOM     20  C   UNL     1       3.220   2.446  19.512  0.00  0.00    +0.000 C 
ATOM     21  N   UNL     1       3.079   3.707  18.766  0.00  0.00    +0.000 NA
ATOM     22  C   UNL     1       1.693   4.217  18.859  0.00  0.00    +0.000 C 
BRANCH  21  23
ATOM     23  C   UNL     1       3.441   3.538  17.339  0.00  0.00    +0.000 C 
BRANCH  23  24
ATOM     24  C   UNL     1       4.648   4.325  16.878  0.00  0.00    +0.000 A 
ATOM     25  C   UNL     1       5.548   3.816  15.943  0.00  0.00    +0.000 A 
ATOM     26  C   UNL     1       6.686   4.546  15.604  0.00  0.00    +0.000 A 
ATOM     27  C   UNL     1       6.874   5.782  16.202  0.00  0.00    +0.000 A 
ATOM     28  N   UNL     1       6.016   6.321  17.094  0.00  0.00    +0.000 NA
ATOM     29  C   UNL     1       4.927   5.582  17.412  0.00  0.00    +0.000 A 
ENDBRANCH  23  24
ENDBRANCH  21  23
ENDBRANCH  16  17
ENDBRANCH   3  16
TORSDOF 7
ENDMDL
MODEL 2
REMARK VINA RESULT:      -7.9      6.401     10.078
REMARK  Name = 
REMARK  7 active torsions:
REMARK  status: ('A' for Active; 'I' for Inactive)
REMARK    1  A    between atoms: C_2  and  C_3
REMARK    2  A    between atoms: C_3  and  S_4
REMARK    3  A    between atoms: S_4  and  C_5
REMARK    4  A    between atoms: N_14  and  C_15
REMARK    5  A    between atoms: C_15  and  C_16
REMARK    6  A    between atoms: N_20  and  C_21
REMARK    7  A    between atoms: C_21  and  C_22
REMARK                            x       y       z     vdW  Elec       q    Type
REMARK                         _______ _______ _______ _____ _____    ______ ____
ROOT
ATOM      1  O   UNL     1       7.263   7.688  16.952  0.00  0.00    +0.000 OA
ATOM      2  C   UNL     1       7.864   7.539  18.015  0.00  0.00    +0.000 C 
ATOM      3  N   UNL     1       8.504   8.587  18.649  0.00  0.00    +0.000 N 
ATOM      4  H   UNL     1       8.988   8.400  19.517  0.00  0.00    +0.000 HD
ENDROOT
BRANCH   2   5
ATOM      5  C   UNL     1       7.918   6.220  18.775  0.00  0.00    +0.000 C 
BRANCH   5   6
ATOM      6  S   UNL     1       7.484   4.805  17.714  0.00  0.00    +0.000 S 
BRANCH   6   7
ATOM      7  C   UNL     1       5.806   4.613  18.174  0.00  0.00    +0.000 A 
ATOM      8  N   UNL     1       5.473   3.836  19.177  0.00  0.00    +0.000 NA
ATOM      9  C   UNL     1       4.094   3.770  19.267  0.00  0.00    +0.000 A 
ATOM     10  C   UNL     1       3.368   2.988  20.187  0.00  0.00    +0.000 A 
ATOM     11  C   UNL     1       1.972   2.985  20.146  0.00  0.00    +0.000 A 
ATOM     12  C   UNL     1       1.292   3.758  19.210  0.00  0.00    +0.000 A 
ATOM     13  C   UNL     1       1.989   4.555  18.295  0.00  0.00    +0.000 A 
ATOM     14  C   UNL     1       3.393   4.544  18.338  0.00  0.00    +0.000 A 
ATOM     15  S   UNL     1       4.525   5.386  17.350  0.00  0.00    +0.000 S 
ENDBRANCH   6   7
ENDBRANCH   5   6
ENDBRANCH   2   5
BRANCH   3  16
ATOM     16  C   UNL     1       8.531   9.947  18.122  0.00  0.00    +0.000 C 
BRANCH  16  17
ATOM     17  C   UNL     1       9.835  10.675  18.504  0.00  0.00    +0.000 C 
ATOM     18  C   UNL     1      10.056  10.716  20.023  0.00  0.00    +0.000 C 
ATOM     19  C   UNL     1       9.036  11.630  20.695  0.00  0.00    +0.000 C 
ATOM     20  C   UNL     1       9.002  13.021  20.052  0.00  0.00    +0.000 C 
ATOM     21  N   UNL     1       8.831  12.977  18.590  0.00  0.00    +0.000 NA
ATOM     22  C   UNL     1       9.865  12.121  17.968  0.00  0.00    +0.000 C 
BRANCH  21  23
ATOM     23  C   UNL     1       8.896  14.332  17.994  0.00  0.00    +0.000 C 
BRANCH  23  24
ATOM     24  C   UNL     1       7.721  15.233  18.298  0.00  0.00    +0.000 A 
ATOM     25  C   UNL     1       6.402  14.797  18.165  0.00  0.00    +0.000 A 
ATOM     26  C   UNL     1       5.351  15.684  18.384  0.00  0.00    +0.000 A 
ATOM     27  C   UNL     1       5.657  16.985  18.754  0.00  0.00    +0.000 A 
ATOM     28  N   UNL     1       6.917  17.440  18.916  0.00  0.00    +0.000 NA
ATOM     29  C   UNL     1       7.917  16.558  18.683  0.00  0.00    +0.000 A 
ENDBRANCH  23  24
ENDBRANCH  21  23
ENDBRANCH  16  17
ENDBRANCH   3  16
TORSDOF 7
ENDMDL
MODEL 3
REMARK VINA RESULT:      -7.8      6.108      9.951
REMARK  Name = 
REMARK  7 active torsions:
REMARK  status: ('A' for Active; 'I' for Inactive)
REMARK    1  A    between atoms: C_2  and  C_3
REMARK    2  A    between atoms: C_3  and  S_4
REMARK    3  A    between atoms: S_4  and  C_5
REMARK    4  A    between atoms: N_14  and  C_15
REMARK    5  A    between atoms: C_15  and  C_16
REMARK    6  A    between atoms: N_20  and  C_21
REMARK    7  A    between atoms: C_21  and  C_22
REMARK                            x       y       z     vdW  Elec       q    Type
REMARK                         _______ _______ _______ _____ _____    ______ ____
ROOT
ATOM      1  O   UNL     1       8.473   6.982  18.926  0.00  0.00    +0.000 OA
ATOM      2  C   UNL     1       7.878   7.682  18.107  0.00  0.00    +0.000 C 
ATOM      3  N   UNL     1       8.121   9.036  17.985  0.00  0.00    +0.000 N 
ATOM      4  H   UNL     1       7.594   9.559  17.299  0.00  0.00    +0.000 HD
ENDROOT
BRANCH   2   5
ATOM      5  C   UNL     1       6.868   7.134  17.108  0.00  0.00    +0.000 C 
BRANCH   5   6
ATOM      6  S   UNL     1       6.873   5.313  17.062  0.00  0.00    +0.000 S 
BRANCH   6   7
ATOM      7  C   UNL     1       5.481   5.001  18.075  0.00  0.00    +0.000 A 
ATOM      8  N   UNL     1       5.420   3.917  18.812  0.00  0.00    +0.000 NA
ATOM      9  C   UNL     1       4.184   3.853  19.430  0.00  0.00    +0.000 A 
ATOM     10  C   UNL     1       3.732   2.803  20.254  0.00  0.00    +0.000 A 
ATOM     11  C   UNL     1       2.443   2.845  20.788  0.00  0.00    +0.000 A 
ATOM     12  C   UNL     1       1.604   3.923  20.522  0.00  0.00    +0.000 A 
ATOM     13  C   UNL     1       2.033   4.985  19.720  0.00  0.00    +0.000 A 
ATOM     14  C   UNL     1       3.329   4.928  19.179  0.00  0.00    +0.000 A 
ATOM     15  S   UNL     1       4.135   6.051  18.151  0.00  0.00    +0.000 S 
ENDBRANCH   6   7
ENDBRANCH   5   6
ENDBRANCH   2   5
BRANCH   3  16
ATOM     16  C   UNL     1       9.088   9.756  18.807  0.00  0.00    +0.000 C 
BRANCH  16  17
ATOM     17  C   UNL     1       9.233  11.222  18.355  0.00  0.00    +0.000 C 
ATOM     18  C   UNL     1      10.621  11.517  17.770  0.00  0.00    +0.000 C 
ATOM     19  C   UNL     1      11.691  11.467  18.857  0.00  0.00    +0.000 C 
ATOM     20  C   UNL     1      11.336  12.362  20.051  0.00  0.00    +0.000 C 
ATOM     21  N   UNL     1       9.988  12.104  20.585  0.00  0.00    +0.000 NA
ATOM     22  C   UNL     1       8.973  12.208  19.513  0.00  0.00    +0.000 C 
BRANCH  21  23
ATOM     23  C   UNL     1       9.645  13.049  21.674  0.00  0.00    +0.000 C 
BRANCH  23  24
ATOM     24  C   UNL     1       8.382  12.725  22.440  0.00  0.00    +0.000 A 
ATOM     25  C   UNL     1       7.234  13.511  22.339  0.00  0.00    +0.000 A 
ATOM     26  C   UNL     1       6.119  13.217  23.120  0.00  0.00    +0.000 A 
ATOM     27  C   UNL     1       6.183  12.123  23.969  0.00  0.00    +0.000 A 
ATOM     28  N   UNL     1       7.265  11.324  24.080  0.00  0.00    +0.000 NA
ATOM     29  C   UNL     1       8.337  11.643  23.317  0.00  0.00    +0.000 A 
ENDBRANCH  23  24
ENDBRANCH  21  23
ENDBRANCH  16  17
ENDBRANCH   3  16
TORSDOF 7
ENDMDL
MODEL 4
REMARK VINA RESULT:      -7.7      1.469      3.891
REMARK  Name = 
REMARK  7 active torsions:
REMARK  status: ('A' for Active; 'I' for Inactive)
REMARK    1  A    between atoms: C_2  and  C_3
REMARK    2  A    between atoms: C_3  and  S_4
REMARK    3  A    between atoms: S_4  and  C_5
REMARK    4  A    between atoms: N_14  and  C_15
REMARK    5  A    between atoms: C_15  and  C_16
REMARK    6  A    between atoms: N_20  and  C_21
REMARK    7  A    between atoms: C_21  and  C_22
REMARK                            x       y       z     vdW  Elec       q    Type
REMARK                         _______ _______ _______ _____ _____    ______ ____
ROOT
ATOM      1  O   UNL     1       2.258   9.743  17.590  0.00  0.00    +0.000 OA
ATOM      2  C   UNL     1       1.968   8.909  18.448  0.00  0.00    +0.000 C 
ATOM      3  N   UNL     1       2.408   7.602  18.378  0.00  0.00    +0.000 N 
ATOM      4  H   UNL     1       2.131   6.961  19.109  0.00  0.00    +0.000 HD
ENDROOT
BRANCH   2   5
ATOM      5  C   UNL     1       1.157   9.232  19.696  0.00  0.00    +0.000 C 
BRANCH   5   6
ATOM      6  S   UNL     1       0.808  11.013  19.841  0.00  0.00    +0.000 S 
BRANCH   6   7
ATOM      7  C   UNL     1      -0.763  11.056  19.071  0.00  0.00    +0.000 A 
ATOM      8  N   UNL     1      -0.965  10.441  17.930  0.00  0.00    +0.000 NA
ATOM      9  C   UNL     1      -2.246  10.714  17.484  0.00  0.00    +0.000 A 
ATOM     10  C   UNL     1      -2.802  10.274  16.266  0.00  0.00    +0.000 A 
ATOM     11  C   UNL     1      -4.100  10.653  15.917  0.00  0.00    +0.000 A 
ATOM     12  C   UNL     1      -4.852  11.455  16.770  0.00  0.00    +0.000 A 
ATOM     13  C   UNL     1      -4.330  11.894  17.991  0.00  0.00    +0.000 A 
ATOM     14  C   UNL     1      -3.020  11.515  18.328  0.00  0.00    +0.000 A 
ATOM     15  S   UNL     1      -2.094  11.901  19.728  0.00  0.00    +0.000 S 
ENDBRANCH   6   7
ENDBRANCH   5   6
ENDBRANCH   2   5
BRANCH   3  16
ATOM     16  C   UNL     1       3.242   7.092  17.294  0.00  0.00    +0.000 C 
BRANCH  16  17
ATOM     17  C   UNL     1       4.626   6.649  17.807  0.00  0.00    +0.000 C 
ATOM     18  C   UNL     1       5.669   6.579  16.681  0.00  0.00    +0.000 C 
ATOM     19  C   UNL     1       5.360   5.430  15.726  0.00  0.00    +0.000 C 
ATOM     20  C   UNL     1       5.181   4.101  16.468  0.00  0.00    +0.000 C 
ATOM     21  N   UNL     1       4.211   4.182  17.573  0.00  0.00    +0.000 NA
ATOM     22  C   UNL     1       4.569   5.274  18.504  0.00  0.00    +0.000 C 
BRANCH  21  23
ATOM     23  C   UNL     1       4.134   2.906  18.324  0.00  0.00    +0.000 C 
BRANCH  23  24
ATOM     24  C   UNL     1       3.109   2.868  19.435  0.00  0.00    +0.000 A 
ATOM     25  C   UNL     1       1.759   3.129  19.203  0.00  0.00    +0.000 A 
ATOM     26  C   UNL     1       0.863   3.156  20.270  0.00  0.00    +0.000 A 
ATOM     27  C   UNL     1       1.349   2.896  21.542  0.00  0.00    +0.000 A 
ATOM     28  N   UNL     1       2.643   2.616  21.806  0.00  0.00    +0.000 NA
ATOM     29  C   UNL     1       3.491   2.611  20.750  0.00  0.00    +0.000 A 
ENDBRANCH  23  24
ENDBRANCH  21  23
ENDBRANCH  16  17
ENDBRANCH   3  16
TORSDOF 7
ENDMDL
MODEL 5
REMARK VINA RESULT:      -7.7      1.278      1.460
REMARK  Name = 
REMARK  7 active torsions:
REMARK  status: ('A' for Active; 'I' for Inactive)
REMARK    1  A    between atoms: C_2  and  C_3
REMARK    2  A    between atoms: C_3  and  S_4
REMARK    3  A    between atoms: S_4  and  C_5
REMARK    4  A    between atoms: N_14  and  C_15
REMARK    5  A    between atoms: C_15  and  C_16
REMARK    6  A    between atoms: N_20  and  C_21
REMARK    7  A    between atoms: C_21  and  C_22
REMARK                            x       y       z     vdW  Elec       q    Type
REMARK                         _______ _______ _______ _____ _____    ______ ____
ROOT
ATOM      1  O   UNL     1       3.304   7.452  17.692  0.00  0.00    +0.000 OA
ATOM      2  C   UNL     1       2.483   8.040  18.396  0.00  0.00    +0.000 C 
ATOM      3  N   UNL     1       2.017   7.504  19.581  0.00  0.00    +0.000 N 
ATOM      4  H   UNL     1       1.337   8.031  20.112  0.00  0.00    +0.000 HD
ENDROOT
BRANCH   2   5
ATOM      5  C   UNL     1       1.942   9.428  18.080  0.00  0.00    +0.000 C 
BRANCH   5   6
ATOM      6  S   UNL     1       1.061  10.155  19.498  0.00  0.00    +0.000 S 
BRANCH   6   7
ATOM      7  C   UNL     1      -0.501  10.419  18.755  0.00  0.00    +0.000 A 
ATOM      8  N   UNL     1      -0.793   9.869  17.600  0.00  0.00    +0.000 NA
ATOM      9  C   UNL     1      -2.034  10.316  17.181  0.00  0.00    +0.000 A 
ATOM     10  C   UNL     1      -2.655   9.986  15.961  0.00  0.00    +0.000 A 
ATOM     11  C   UNL     1      -3.899  10.537  15.643  0.00  0.00    +0.000 A 
ATOM     12  C   UNL     1      -4.533  11.402  16.529  0.00  0.00    +0.000 A 
ATOM     13  C   UNL     1      -3.945  11.734  17.754  0.00  0.00    +0.000 A 
ATOM     14  C   UNL     1      -2.689  11.182  18.059  0.00  0.00    +0.000 A 
ATOM     15  S   UNL     1      -1.706  11.407  19.456  0.00  0.00    +0.000 S 
ENDBRANCH   6   7
ENDBRANCH   5   6
ENDBRANCH   2   5
BRANCH   3  16
ATOM     16  C   UNL     1       2.444   6.209  20.100  0.00  0.00    +0.000 C 
BRANCH  16  17
ATOM     17  C   UNL     1       1.564   5.065  19.559  0.00  0.00    +0.000 C 
ATOM     18  C   UNL     1       1.242   4.019  20.635  0.00  0.00    +0.000 C 
ATOM     19  C   UNL     1       2.492   3.232  21.019  0.00  0.00    +0.000 C 
ATOM     20  C   UNL     1       3.196   2.641  19.793  0.00  0.00    +0.000 C 
ATOM     21  N   UNL     1       3.467   3.639  18.745  0.00  0.00    +0.000 NA
ATOM     22  C   UNL     1       2.225   4.347  18.364  0.00  0.00    +0.000 C 
BRANCH  21  23
ATOM     23  C   UNL     1       4.062   3.014  17.539  0.00  0.00    +0.000 C 
BRANCH  23  24
ATOM     24  C   UNL     1       5.197   3.784  16.902  0.00  0.00    +0.000 A 
ATOM     25  C   UNL     1       5.867   4.804  17.577  0.00  0.00    +0.000 A 
ATOM     26  C   UNL     1       6.857   5.535  16.923  0.00  0.00    +0.000 A 
ATOM     27  C   UNL     1       7.160   5.204  15.612  0.00  0.00    +0.000 A 
ATOM     28  N   UNL     1       6.552   4.210  14.932  0.00  0.00    +0.000 NA
ATOM     29  C   UNL     1       5.586   3.526  15.589  0.00  0.00    +0.000 A 
ENDBRANCH  23  24
ENDBRANCH  21  23
ENDBRANCH  16  17
ENDBRANCH   3  16
TORSDOF 7
ENDMDL
MODEL 6
REMARK VINA RESULT:      -7.6      6.569     10.013
REMARK  Name = 
REMARK  7 active torsions:
REMARK  status: ('A' for Active; 'I' for Inactive)
REMARK    1  A    between atoms: C_2  and  C_3
REMARK    2  A    between atoms: C_3  and  S_4
REMARK    3  A    between atoms: S_4  and  C_5
REMARK    4  A    between atoms: N_14  and  C_15
REMARK    5  A    between atoms: C_15  and  C_16
REMARK    6  A    between atoms: N_20  and  C_21
REMARK    7  A    between atoms: C_21  and  C_22
REMARK                            x       y       z     vdW  Elec       q    Type
REMARK                         _______ _______ _______ _____ _____    ______ ____
ROOT
ATOM      1  O   UNL     1       8.493   6.998  19.031  0.00  0.00    +0.000 OA
ATOM      2  C   UNL     1       7.935   7.601  18.114  0.00  0.00    +0.000 C 
ATOM      3  N   UNL     1       8.122   8.953  17.907  0.00  0.00    +0.000 N 
ATOM      4  H   UNL     1       7.631   9.395  17.141  0.00  0.00    +0.000 HD
ENDROOT
BRANCH   2   5
ATOM      5  C   UNL     1       7.041   6.926  17.083  0.00  0.00    +0.000 C 
BRANCH   5   6
ATOM      6  S   UNL     1       7.070   5.112  17.239  0.00  0.00    +0.000 S 
BRANCH   6   7
ATOM      7  C   UNL     1       5.413   4.844  17.734  0.00  0.00    +0.000 A 
ATOM      8  N   UNL     1       4.971   5.319  18.875  0.00  0.00    +0.000 NA
ATOM      9  C   UNL     1       3.674   4.883  19.080  0.00  0.00    +0.000 A 
ATOM     10  C   UNL     1       2.893   5.143  20.223  0.00  0.00    +0.000 A 
ATOM     11  C   UNL     1       1.605   4.611  20.321  0.00  0.00    +0.000 A 
ATOM     12  C   UNL     1       1.084   3.834  19.291  0.00  0.00    +0.000 A 
ATOM     13  C   UNL     1       1.833   3.572  18.139  0.00  0.00    +0.000 A 
ATOM     14  C   UNL     1       3.131   4.104  18.055  0.00  0.00    +0.000 A 
ATOM     15  S   UNL     1       4.298   3.950  16.797  0.00  0.00    +0.000 S 
ENDBRANCH   6   7
ENDBRANCH   5   6
ENDBRANCH   2   5
BRANCH   3  16
ATOM     16  C   UNL     1       8.981   9.784  18.745  0.00  0.00    +0.000 C 
BRANCH  16  17
ATOM     17  C   UNL     1       9.254  11.153  18.092  0.00  0.00    +0.000 C 
ATOM     18  C   UNL     1      10.741  11.360  17.773  0.00  0.00    +0.000 C 
ATOM     19  C   UNL     1      11.556  11.510  19.054  0.00  0.00    +0.000 C 
ATOM     20  C   UNL     1      10.980  12.591  19.976  0.00  0.00    +0.000 C 
ATOM     21  N   UNL     1       9.544  12.412  20.248  0.00  0.00    +0.000 NA
ATOM     22  C   UNL     1       8.780  12.319  18.984  0.00  0.00    +0.000 C 
BRANCH  21  23
ATOM     23  C   UNL     1       9.002  13.525  21.064  0.00  0.00    +0.000 C 
BRANCH  23  24
ATOM     24  C   UNL     1       8.703  13.186  22.507  0.00  0.00    +0.000 A 
ATOM     25  C   UNL     1       8.329  11.901  22.902  0.00  0.00    +0.000 A 
ATOM     26  C   UNL     1       7.991  11.653  24.230  0.00  0.00    +0.000 A 
ATOM     27  C   UNL     1       8.059  12.703  25.132  0.00  0.00    +0.000 A 
ATOM     28  N   UNL     1       8.438  13.955  24.796  0.00  0.00    +0.000 NA
ATOM     29  C   UNL     1       8.748  14.167  23.495  0.00  0.00    +0.000 A 
ENDBRANCH  23  24
ENDBRANCH  21  23
ENDBRANCH  16  17
ENDBRANCH   3  16
TORSDOF 7
ENDMDL
MODEL 7
REMARK VINA RESULT:      -7.6      6.234      9.808
REMARK  Name = 
REMARK  7 active torsions:
REMARK  status: ('A' for Active; 'I' for Inactive)
REMARK    1  A    between atoms: C_2  and  C_3
REMARK    2  A    between atoms: C_3  and  S_4
REMARK    3  A    between atoms: S_4  and  C_5
REMARK    4  A    between atoms: N_14  and  C_15
REMARK    5  A    between atoms: C_15  and  C_16
REMARK    6  A    between atoms: N_20  and  C_21
REMARK    7  A    between atoms: C_21  and  C_22
REMARK                            x       y       z     vdW  Elec       q    Type
REMARK                         _______ _______ _______ _____ _____    ______ ____
ROOT
ATOM      1  O   UNL     1       8.420   7.122  18.835  0.00  0.00    +0.000 OA
ATOM      2  C   UNL     1       7.838   7.859  18.039  0.00  0.00    +0.000 C 
ATOM      3  N   UNL     1       8.124   9.207  17.947  0.00  0.00    +0.000 N 
ATOM      4  H   UNL     1       7.607   9.763  17.279  0.00  0.00    +0.000 HD
ENDROOT
BRANCH   2   5
ATOM      5  C   UNL     1       6.801   7.367  17.039  0.00  0.00    +0.000 C 
BRANCH   5   6
ATOM      6  S   UNL     1       6.756   5.549  16.942  0.00  0.00    +0.000 S 
BRANCH   6   7
ATOM      7  C   UNL     1       5.341   5.250  17.928  0.00  0.00    +0.000 A 
ATOM      8  N   UNL     1       4.505   6.221  18.210  0.00  0.00    +0.000 NA
ATOM      9  C   UNL     1       3.540   5.754  19.084  0.00  0.00    +0.000 A 
ATOM     10  C   UNL     1       2.507   6.525  19.653  0.00  0.00    +0.000 A 
ATOM     11  C   UNL     1       1.616   5.936  20.553  0.00  0.00    +0.000 A 
ATOM     12  C   UNL     1       1.734   4.589  20.883  0.00  0.00    +0.000 A 
ATOM     13  C   UNL     1       2.741   3.798  20.320  0.00  0.00    +0.000 A 
ATOM     14  C   UNL     1       3.638   4.403  19.424  0.00  0.00    +0.000 A 
ATOM     15  S   UNL     1       4.980   3.716  18.589  0.00  0.00    +0.000 S 
ENDBRANCH   6   7
ENDBRANCH   5   6
ENDBRANCH   2   5
BRANCH   3  16
ATOM     16  C   UNL     1       9.122   9.876  18.774  0.00  0.00    +0.000 C 
BRANCH  16  17
ATOM     17  C   UNL     1       9.352  11.330  18.317  0.00  0.00    +0.000 C 
ATOM     18  C   UNL     1      10.797  11.574  17.857  0.00  0.00    +0.000 C 
ATOM     19  C   UNL     1      11.761  11.511  19.037  0.00  0.00    +0.000 C 
ATOM     20  C   UNL     1      11.328  12.435  20.180  0.00  0.00    +0.000 C 
ATOM     21  N   UNL     1       9.930  12.227  20.593  0.00  0.00    +0.000 NA
ATOM     22  C   UNL     1       9.019  12.343  19.433  0.00  0.00    +0.000 C 
BRANCH  21  23
ATOM     23  C   UNL     1       9.519  13.199  21.634  0.00  0.00    +0.000 C 
BRANCH  23  24
ATOM     24  C   UNL     1       8.304  12.808  22.444  0.00  0.00    +0.000 A 
ATOM     25  C   UNL     1       7.122  13.547  22.407  0.00  0.00    +0.000 A 
ATOM     26  C   UNL     1       6.054  13.191  23.227  0.00  0.00    +0.000 A 
ATOM     27  C   UNL     1       6.198  12.085  24.050  0.00  0.00    +0.000 A 
ATOM     28  N   UNL     1       7.315  11.330  24.099  0.00  0.00    +0.000 NA
ATOM     29  C   UNL     1       8.341  11.709  23.300  0.00  0.00    +0.000 A 
ENDBRANCH  23  24
ENDBRANCH  21  23
ENDBRANCH  16  17
ENDBRANCH   3  16
TORSDOF 7
ENDMDL
MODEL 8
REMARK VINA RESULT:      -7.5      1.256      1.706
REMARK  Name = 
REMARK  7 active torsions:
REMARK  status: ('A' for Active; 'I' for Inactive)
REMARK    1  A    between atoms: C_2  and  C_3
REMARK    2  A    between atoms: C_3  and  S_4
REMARK    3  A    between atoms: S_4  and  C_5
REMARK    4  A    between atoms: N_14  and  C_15
REMARK    5  A    between atoms: C_15  and  C_16
REMARK    6  A    between atoms: N_20  and  C_21
REMARK    7  A    between atoms: C_21  and  C_22
REMARK                            x       y       z     vdW  Elec       q    Type
REMARK                         _______ _______ _______ _____ _____    ______ ____
ROOT
ATOM      1  O   UNL     1       1.231   8.431  22.144  0.00  0.00    +0.000 OA
ATOM      2  C   UNL     1       1.476   8.437  20.937  0.00  0.00    +0.000 C 
ATOM      3  N   UNL     1       1.823   7.289  20.254  0.00  0.00    +0.000 N 
ATOM      4  H   UNL     1       2.021   7.359  19.265  0.00  0.00    +0.000 HD
ENDROOT
BRANCH   2   5
ATOM      5  C   UNL     1       1.366   9.679  20.062  0.00  0.00    +0.000 C 
BRANCH   5   6
ATOM      6  S   UNL     1       0.206  10.900  20.755  0.00  0.00    +0.000 S 
BRANCH   6   7
ATOM      7  C   UNL     1      -0.939  10.983  19.434  0.00  0.00    +0.000 A 
ATOM      8  N   UNL     1      -2.086  11.602  19.582  0.00  0.00    +0.000 NA
ATOM      9  C   UNL     1      -2.848  11.433  18.440  0.00  0.00    +0.000 A 
ATOM     10  C   UNL     1      -4.161  11.907  18.252  0.00  0.00    +0.000 A 
ATOM     11  C   UNL     1      -4.834  11.634  17.058  0.00  0.00    +0.000 A 
ATOM     12  C   UNL     1      -4.212  10.907  16.049  0.00  0.00    +0.000 A 
ATOM     13  C   UNL     1      -2.903  10.438  16.203  0.00  0.00    +0.000 A 
ATOM     14  C   UNL     1      -2.239  10.709  17.412  0.00  0.00    +0.000 A 
ATOM     15  S   UNL     1      -0.653  10.259  17.913  0.00  0.00    +0.000 S 
ENDBRANCH   6   7
ENDBRANCH   5   6
ENDBRANCH   2   5
BRANCH   3  16
ATOM     16  C   UNL     1       1.935   5.979  20.888  0.00  0.00    +0.000 C 
BRANCH  16  17
ATOM     17  C   UNL     1       1.458   4.854  19.949  0.00  0.00    +0.000 C 
ATOM     18  C   UNL     1       1.204   3.538  20.699  0.00  0.00    +0.000 C 
ATOM     19  C   UNL     1       2.515   2.933  21.193  0.00  0.00    +0.000 C 
ATOM     20  C   UNL     1       3.544   2.797  20.065  0.00  0.00    +0.000 C 
ATOM     21  N   UNL     1       3.756   4.050  19.322  0.00  0.00    +0.000 NA
ATOM     22  C   UNL     1       2.470   4.582  18.817  0.00  0.00    +0.000 C 
BRANCH  21  23
ATOM     23  C   UNL     1       4.684   3.857  18.183  0.00  0.00    +0.000 C 
BRANCH  23  24
ATOM     24  C   UNL     1       5.663   4.984  17.945  0.00  0.00    +0.000 A 
ATOM     25  C   UNL     1       6.786   5.170  18.751  0.00  0.00    +0.000 A 
ATOM     26  C   UNL     1       7.620   6.266  18.540  0.00  0.00    +0.000 A 
ATOM     27  C   UNL     1       7.311   7.136  17.507  0.00  0.00    +0.000 A 
ATOM     28  N   UNL     1       6.248   6.980  16.689  0.00  0.00    +0.000 NA
ATOM     29  C   UNL     1       5.450   5.913  16.928  0.00  0.00    +0.000 A 
ENDBRANCH  23  24
ENDBRANCH  21  23
ENDBRANCH  16  17
ENDBRANCH   3  16
TORSDOF 7
ENDMDL
MODEL 9
REMARK VINA RESULT:      -7.3      1.910      4.278
REMARK  Name = 
REMARK  7 active torsions:
REMARK  status: ('A' for Active; 'I' for Inactive)
REMARK    1  A    between atoms: C_2  and  C_3
REMARK    2  A    between atoms: C_3  and  S_4
REMARK    3  A    between atoms: S_4  and  C_5
REMARK    4  A    between atoms: N_14  and  C_15
REMARK    5  A    between atoms: C_15  and  C_16
REMARK    6  A    between atoms: N_20  and  C_21
REMARK    7  A    between atoms: C_21  and  C_22
REMARK                            x       y       z     vdW  Elec       q    Type
REMARK                         _______ _______ _______ _____ _____    ______ ____
ROOT
ATOM      1  O   UNL     1       1.617   9.485  17.255  0.00  0.00    +0.000 OA
ATOM      2  C   UNL     1       1.731   8.946  18.356  0.00  0.00    +0.000 C 
ATOM      3  N   UNL     1       2.522   7.830  18.546  0.00  0.00    +0.000 N 
ATOM      4  H   UNL     1       2.570   7.426  19.472  0.00  0.00    +0.000 HD
ENDROOT
BRANCH   2   5
ATOM      5  C   UNL     1       1.075   9.473  19.625  0.00  0.00    +0.000 C 
BRANCH   5   6
ATOM      6  S   UNL     1       1.091  11.292  19.695  0.00  0.00    +0.000 S 
BRANCH   6   7
ATOM      7  C   UNL     1      -0.614  11.599  19.446  0.00  0.00    +0.000 A 
ATOM      8  N   UNL     1      -1.301  12.299  20.318  0.00  0.00    +0.000 NA
ATOM      9  C   UNL     1      -2.635  12.306  19.949  0.00  0.00    +0.000 A 
ATOM     10  C   UNL     1      -3.683  12.908  20.674  0.00  0.00    +0.000 A 
ATOM     11  C   UNL     1      -4.996  12.810  20.207  0.00  0.00    +0.000 A 
ATOM     12  C   UNL     1      -5.274  12.132  19.025  0.00  0.00    +0.000 A 
ATOM     13  C   UNL     1      -4.251  11.538  18.279  0.00  0.00    +0.000 A 
ATOM     14  C   UNL     1      -2.935  11.634  18.762  0.00  0.00    +0.000 A 
ATOM     15  S   UNL     1      -1.476  11.002  18.098  0.00  0.00    +0.000 S 
ENDBRANCH   6   7
ENDBRANCH   5   6
ENDBRANCH   2   5
BRANCH   3  16
ATOM     16  C   UNL     1       3.283   7.192  17.477  0.00  0.00    +0.000 C 
BRANCH  16  17
ATOM     17  C   UNL     1       4.612   6.610  17.998  0.00  0.00    +0.000 C 
ATOM     18  C   UNL     1       5.699   6.581  16.915  0.00  0.00    +0.000 C 
ATOM     19  C   UNL     1       5.365   5.555  15.836  0.00  0.00    +0.000 C 
ATOM     20  C   UNL     1       5.069   4.174  16.432  0.00  0.00    +0.000 C 
ATOM     21  N   UNL     1       4.055   4.210  17.499  0.00  0.00    +0.000 NA
ATOM     22  C   UNL     1       4.436   5.180  18.550  0.00  0.00    +0.000 C 
BRANCH  21  23
ATOM     23  C   UNL     1       3.864   2.875  18.114  0.00  0.00    +0.000 C 
BRANCH  23  24
ATOM     24  C   UNL     1       2.987   2.847  19.345  0.00  0.00    +0.000 A 
ATOM     25  C   UNL     1       1.635   3.187  19.298  0.00  0.00    +0.000 A 
ATOM     26  C   UNL     1       0.885   3.219  20.471  0.00  0.00    +0.000 A 
ATOM     27  C   UNL     1       1.512   2.885  21.661  0.00  0.00    +0.000 A 
ATOM     28  N   UNL     1       2.811   2.528  21.747  0.00  0.00    +0.000 NA
ATOM     29  C   UNL     1       3.517   2.519  20.592  0.00  0.00    +0.000 A 
ENDBRANCH  23  24
ENDBRANCH  21  23
ENDBRANCH  16  17
ENDBRANCH   3  16
TORSDOF 7
ENDMDL
