MODEL 1
REMARK VINA RESULT:      -6.6      0.000      0.000
REMARK  Name = 
REMARK  5 active torsions:
REMARK  status: ('A' for Active; 'I' for Inactive)
REMARK    1  A    between atoms: C_1  and  C_2
REMARK    2  A    between atoms: C_2  and  C_3
REMARK    3  A    between atoms: C_2  and  C_4
REMARK    4  A    between atoms: C_9  and  C_10
REMARK    5  A    between atoms: N_12  and  C_13
REMARK                            x       y       z     vdW  Elec       q    Type
REMARK                         _______ _______ _______ _____ _____    ______ ____
ROOT
ATOM      1  C   UNL     1       6.495   4.058  13.004  0.00  0.00    +0.000 C 
ATOM      2  O   UNL     1       7.279   4.806  12.412  0.00  0.00    +0.000 OA
ATOM      3  N   UNL     1       6.070   4.334  14.310  0.00  0.00    +0.000 N 
ATOM      4  C   UNL     1       6.437   5.618  14.921  0.00  0.00    +0.000 C 
ATOM      5  C   UNL     1       7.006   5.438  16.330  0.00  0.00    +0.000 C 
ATOM      6  C   UNL     1       6.103   4.597  17.245  0.00  0.00    +0.000 C 
ATOM      7  C   UNL     1       5.713   3.295  16.530  0.00  0.00    +0.000 C 
ATOM      8  C   UNL     1       5.158   3.518  15.120  0.00  0.00    +0.000 C 
ENDROOT
BRANCH   6   9
ATOM      9  C   UNL     1       4.916   5.344  17.806  0.00  0.00    +0.000 A 
ATOM     10  N   UNL     1       4.583   6.563  17.342  0.00  0.00    +0.000 NA
ATOM     11  N   UNL     1       3.485   6.913  18.036  0.00  0.00    +0.000 N 
ATOM     12  C   UNL     1       2.832   8.174  17.788  0.00  0.00    +0.000 C 
ATOM     13  C   UNL     1       3.109   5.963  18.928  0.00  0.00    +0.000 A 
ATOM     14  C   UNL     1       4.011   4.925  18.803  0.00  0.00    +0.000 A 
ATOM     15  C   UNL     1       3.885   3.703  19.652  0.00  0.00    +0.000 C 
ATOM     16  O   UNL     1       2.605   3.629  20.326  0.00  0.00    +0.000 OA
ATOM     17  C   UNL     1       2.207   4.881  20.921  0.00  0.00    +0.000 C 
ATOM     18  C   UNL     1       1.950   5.966  19.853  0.00  0.00    +0.000 C 
ENDBRANCH   6   9
BRANCH   1  20
ATOM     19  C   UNL     1       4.635   3.292  11.531  0.00  0.00    +0.000 C 
ATOM     20  C   UNL     1       5.892   2.844  12.272  0.00  0.00    +0.000 C 
ATOM     21  C   UNL     1       6.832   2.164  11.266  0.00  0.00    +0.000 C 
ENDBRANCH   1  20
TORSDOF 2
ENDMDL
MODEL 2
REMARK VINA RESULT:      -6.6      1.096      1.202
REMARK  Name = 
REMARK  5 active torsions:
REMARK  status: ('A' for Active; 'I' for Inactive)
REMARK    1  A    between atoms: C_1  and  C_2
REMARK    2  A    between atoms: C_2  and  C_3
REMARK    3  A    between atoms: C_2  and  C_4
REMARK    4  A    between atoms: C_9  and  C_10
REMARK    5  A    between atoms: N_12  and  C_13
REMARK                            x       y       z     vdW  Elec       q    Type
REMARK                         _______ _______ _______ _____ _____    ______ ____
ROOT
ATOM      1  C   UNL     1       6.650   4.713  13.995  0.00  0.00    +0.000 C 
ATOM      2  O   UNL     1       7.361   5.638  13.589  0.00  0.00    +0.000 OA
ATOM      3  N   UNL     1       6.104   4.727  15.285  0.00  0.00    +0.000 N 
ATOM      4  C   UNL     1       6.247   5.936  16.106  0.00  0.00    +0.000 C 
ATOM      5  C   UNL     1       6.739   5.611  17.518  0.00  0.00    +0.000 C 
ATOM      6  C   UNL     1       5.902   4.530  18.219  0.00  0.00    +0.000 C 
ATOM      7  C   UNL     1       5.746   3.317  17.290  0.00  0.00    +0.000 C 
ATOM      8  C   UNL     1       5.262   3.684  15.884  0.00  0.00    +0.000 C 
ENDROOT
BRANCH   6   9
ATOM      9  C   UNL     1       4.588   5.023  18.776  0.00  0.00    +0.000 A 
ATOM     10  N   UNL     1       4.179   6.289  18.567  0.00  0.00    +0.000 NA
ATOM     11  N   UNL     1       2.980   6.372  19.173  0.00  0.00    +0.000 N 
ATOM     12  C   UNL     1       2.227   7.602  19.139  0.00  0.00    +0.000 C 
ATOM     13  C   UNL     1       2.614   5.208  19.763  0.00  0.00    +0.000 A 
ATOM     14  C   UNL     1       3.630   4.305  19.520  0.00  0.00    +0.000 A 
ATOM     15  C   UNL     1       3.544   2.908  20.039  0.00  0.00    +0.000 C 
ATOM     16  O   UNL     1       2.213   2.572  20.503  0.00  0.00    +0.000 OA
ATOM     17  C   UNL     1       1.621   3.607  21.314  0.00  0.00    +0.000 C 
ATOM     18  C   UNL     1       1.367   4.896  20.502  0.00  0.00    +0.000 C 
ENDBRANCH   6   9
BRANCH   1  20
ATOM     19  C   UNL     1       4.873   3.819  12.492  0.00  0.00    +0.000 C 
ATOM     20  C   UNL     1       6.273   3.562  13.044  0.00  0.00    +0.000 C 
ATOM     21  C   UNL     1       7.231   3.360  11.861  0.00  0.00    +0.000 C 
ENDBRANCH   1  20
TORSDOF 2
ENDMDL
MODEL 3
REMARK VINA RESULT:      -6.3      2.772      7.441
REMARK  Name = 
REMARK  5 active torsions:
REMARK  status: ('A' for Active; 'I' for Inactive)
REMARK    1  A    between atoms: C_1  and  C_2
REMARK    2  A    between atoms: C_2  and  C_3
REMARK    3  A    between atoms: C_2  and  C_4
REMARK    4  A    between atoms: C_9  and  C_10
REMARK    5  A    between atoms: N_12  and  C_13
REMARK                            x       y       z     vdW  Elec       q    Type
REMARK                         _______ _______ _______ _____ _____    ______ ____
ROOT
ATOM      1  C   UNL     1       0.994   9.043  19.766  0.00  0.00    +0.000 C 
ATOM      2  O   UNL     1       0.493   9.746  18.883  0.00  0.00    +0.000 OA
ATOM      3  N   UNL     1       1.856   7.984  19.452  0.00  0.00    +0.000 N 
ATOM      4  C   UNL     1       2.298   7.814  18.062  0.00  0.00    +0.000 C 
ATOM      5  C   UNL     1       2.146   6.366  17.588  0.00  0.00    +0.000 C 
ATOM      6  C   UNL     1       2.800   5.347  18.534  0.00  0.00    +0.000 C 
ATOM      7  C   UNL     1       2.339   5.612  19.975  0.00  0.00    +0.000 C 
ATOM      8  C   UNL     1       2.498   7.072  20.407  0.00  0.00    +0.000 C 
ENDROOT
BRANCH   6   9
ATOM      9  C   UNL     1       4.301   5.247  18.400  0.00  0.00    +0.000 A 
ATOM     10  N   UNL     1       5.109   5.561  19.431  0.00  0.00    +0.000 NA
ATOM     11  N   UNL     1       6.356   5.337  18.976  0.00  0.00    +0.000 N 
ATOM     12  C   UNL     1       7.497   5.556  19.830  0.00  0.00    +0.000 C 
ATOM     13  C   UNL     1       6.370   4.896  17.694  0.00  0.00    +0.000 A 
ATOM     14  C   UNL     1       5.053   4.818  17.288  0.00  0.00    +0.000 A 
ATOM     15  C   UNL     1       4.709   4.361  15.909  0.00  0.00    +0.000 C 
ATOM     16  O   UNL     1       5.835   3.750  15.233  0.00  0.00    +0.000 OA
ATOM     17  C   UNL     1       7.059   4.498  15.387  0.00  0.00    +0.000 C 
ATOM     18  C   UNL     1       7.534   4.521  16.855  0.00  0.00    +0.000 C 
ENDBRANCH   6   9
BRANCH   1  20
ATOM     19  C   UNL     1       0.525  10.886  21.378  0.00  0.00    +0.000 C 
ATOM     20  C   UNL     1       0.747   9.381  21.248  0.00  0.00    +0.000 C 
ATOM     21  C   UNL     1      -0.448   8.657  21.886  0.00  0.00    +0.000 C 
ENDBRANCH   1  20
TORSDOF 2
ENDMDL
MODEL 4
REMARK VINA RESULT:      -6.1      1.105      1.362
REMARK  Name = 
REMARK  5 active torsions:
REMARK  status: ('A' for Active; 'I' for Inactive)
REMARK    1  A    between atoms: C_1  and  C_2
REMARK    2  A    between atoms: C_2  and  C_3
REMARK    3  A    between atoms: C_2  and  C_4
REMARK    4  A    between atoms: C_9  and  C_10
REMARK    5  A    between atoms: N_12  and  C_13
REMARK                            x       y       z     vdW  Elec       q    Type
REMARK                         _______ _______ _______ _____ _____    ______ ____
ROOT
ATOM      1  C   UNL     1       7.486   5.217  13.680  0.00  0.00    +0.000 C 
ATOM      2  O   UNL     1       8.569   5.810  13.728  0.00  0.00    +0.000 OA
ATOM      3  N   UNL     1       6.714   5.016  14.831  0.00  0.00    +0.000 N 
ATOM      4  C   UNL     1       7.124   5.662  16.085  0.00  0.00    +0.000 C 
ATOM      5  C   UNL     1       7.125   4.680  17.259  0.00  0.00    +0.000 C 
ATOM      6  C   UNL     1       5.804   3.911  17.408  0.00  0.00    +0.000 C 
ATOM      7  C   UNL     1       5.405   3.305  16.054  0.00  0.00    +0.000 C 
ATOM      8  C   UNL     1       5.426   4.316  14.904  0.00  0.00    +0.000 C 
ENDROOT
BRANCH   6   9
ATOM      9  C   UNL     1       4.691   4.702  18.054  0.00  0.00    +0.000 A 
ATOM     10  N   UNL     1       4.405   5.953  17.646  0.00  0.00    +0.000 NA
ATOM     11  N   UNL     1       3.365   6.338  18.408  0.00  0.00    +0.000 N 
ATOM     12  C   UNL     1       2.772   7.641  18.234  0.00  0.00    +0.000 C 
ATOM     13  C   UNL     1       2.982   5.380  19.288  0.00  0.00    +0.000 A 
ATOM     14  C   UNL     1       3.816   4.299  19.083  0.00  0.00    +0.000 A 
ATOM     15  C   UNL     1       3.665   3.058  19.898  0.00  0.00    +0.000 C 
ATOM     16  O   UNL     1       2.419   3.031  20.636  0.00  0.00    +0.000 OA
ATOM     17  C   UNL     1       2.123   4.281  21.290  0.00  0.00    +0.000 C 
ATOM     18  C   UNL     1       1.874   5.415  20.272  0.00  0.00    +0.000 C 
ENDBRANCH   6   9
BRANCH   1  20
ATOM     19  C   UNL     1       7.613   5.554  11.213  0.00  0.00    +0.000 C 
ATOM     20  C   UNL     1       6.918   4.767  12.321  0.00  0.00    +0.000 C 
ATOM     21  C   UNL     1       7.072   3.268  12.021  0.00  0.00    +0.000 C 
ENDBRANCH   1  20
TORSDOF 2
ENDMDL
MODEL 5
REMARK VINA RESULT:      -5.8      4.988      8.253
REMARK  Name = 
REMARK  5 active torsions:
REMARK  status: ('A' for Active; 'I' for Inactive)
REMARK    1  A    between atoms: C_1  and  C_2
REMARK    2  A    between atoms: C_2  and  C_3
REMARK    3  A    between atoms: C_2  and  C_4
REMARK    4  A    between atoms: C_9  and  C_10
REMARK    5  A    between atoms: N_12  and  C_13
REMARK                            x       y       z     vdW  Elec       q    Type
REMARK                         _______ _______ _______ _____ _____    ______ ____
ROOT
ATOM      1  C   UNL     1       2.371   6.548  19.682  0.00  0.00    +0.000 C 
ATOM      2  O   UNL     1       2.106   5.938  20.722  0.00  0.00    +0.000 OA
ATOM      3  N   UNL     1       1.967   7.876  19.493  0.00  0.00    +0.000 N 
ATOM      4  C   UNL     1       1.362   8.603  20.617  0.00  0.00    +0.000 C 
ATOM      5  C   UNL     1       0.073   9.319  20.206  0.00  0.00    +0.000 C 
ATOM      6  C   UNL     1       0.244  10.208  18.965  0.00  0.00    +0.000 C 
ATOM      7  C   UNL     1       0.928   9.407  17.847  0.00  0.00    +0.000 C 
ATOM      8  C   UNL     1       2.207   8.698  18.301  0.00  0.00    +0.000 C 
ENDROOT
BRANCH   6   9
ATOM      9  C   UNL     1       0.911  11.536  19.236  0.00  0.00    +0.000 A 
ATOM     10  N   UNL     1       1.983  11.930  18.523  0.00  0.00    +0.000 NA
ATOM     11  N   UNL     1       2.295  13.146  19.007  0.00  0.00    +0.000 N 
ATOM     12  C   UNL     1       3.402  13.891  18.459  0.00  0.00    +0.000 C 
ATOM     13  C   UNL     1       1.464  13.539  20.003  0.00  0.00    +0.000 A 
ATOM     14  C   UNL     1       0.546  12.522  20.176  0.00  0.00    +0.000 A 
ATOM     15  C   UNL     1      -0.525  12.632  21.210  0.00  0.00    +0.000 C 
ATOM     16  O   UNL     1      -0.655  13.979  21.728  0.00  0.00    +0.000 OA
ATOM     17  C   UNL     1       0.615  14.590  22.036  0.00  0.00    +0.000 C 
ATOM     18  C   UNL     1       1.466  14.810  20.767  0.00  0.00    +0.000 C 
ENDBRANCH   6   9
BRANCH   1  20
ATOM     19  C   UNL     1       4.470   5.269  19.268  0.00  0.00    +0.000 C 
ATOM     20  C   UNL     1       3.240   5.880  18.601  0.00  0.00    +0.000 C 
ATOM     21  C   UNL     1       2.534   4.783  17.790  0.00  0.00    +0.000 C 
ENDBRANCH   1  20
TORSDOF 2
ENDMDL
MODEL 6
REMARK VINA RESULT:      -5.8      7.105     11.153
REMARK  Name = 
REMARK  5 active torsions:
REMARK  status: ('A' for Active; 'I' for Inactive)
REMARK    1  A    between atoms: C_1  and  C_2
REMARK    2  A    between atoms: C_2  and  C_3
REMARK    3  A    between atoms: C_2  and  C_4
REMARK    4  A    between atoms: C_9  and  C_10
REMARK    5  A    between atoms: N_12  and  C_13
REMARK                            x       y       z     vdW  Elec       q    Type
REMARK                         _______ _______ _______ _____ _____    ______ ____
ROOT
ATOM      1  C   UNL     1      -5.236  12.576  19.068  0.00  0.00    +0.000 C 
ATOM      2  O   UNL     1      -5.741  13.402  19.834  0.00  0.00    +0.000 OA
ATOM      3  N   UNL     1      -3.904  12.167  19.211  0.00  0.00    +0.000 N 
ATOM      4  C   UNL     1      -3.148  12.608  20.391  0.00  0.00    +0.000 C 
ATOM      5  C   UNL     1      -1.774  13.165  20.013  0.00  0.00    +0.000 C 
ATOM      6  C   UNL     1      -0.958  12.214  19.123  0.00  0.00    +0.000 C 
ATOM      7  C   UNL     1      -1.820  11.750  17.939  0.00  0.00    +0.000 C 
ATOM      8  C   UNL     1      -3.190  11.210  18.358  0.00  0.00    +0.000 C 
ENDROOT
BRANCH   6   9
ATOM      9  C   UNL     1      -0.305  11.072  19.865  0.00  0.00    +0.000 A 
ATOM     10  N   UNL     1      -0.441  10.946  21.198  0.00  0.00    +0.000 NA
ATOM     11  N   UNL     1       0.237   9.827  21.513  0.00  0.00    +0.000 N 
ATOM     12  C   UNL     1       0.296   9.366  22.878  0.00  0.00    +0.000 C 
ATOM     13  C   UNL     1       0.803   9.240  20.430  0.00  0.00    +0.000 A 
ATOM     14  C   UNL     1       0.467  10.016  19.339  0.00  0.00    +0.000 A 
ATOM     15  C   UNL     1       0.936   9.647  17.971  0.00  0.00    +0.000 C 
ATOM     16  O   UNL     1       1.465   8.300  17.913  0.00  0.00    +0.000 OA
ATOM     17  C   UNL     1       2.349   7.994  19.011  0.00  0.00    +0.000 C 
ATOM     18  C   UNL     1       1.603   7.994  20.363  0.00  0.00    +0.000 C 
ENDBRANCH   6   9
BRANCH   1  20
ATOM     19  C   UNL     1      -6.819  10.707  18.602  0.00  0.00    +0.000 C 
ATOM     20  C   UNL     1      -6.102  11.905  17.985  0.00  0.00    +0.000 C 
ATOM     21  C   UNL     1      -7.154  12.819  17.340  0.00  0.00    +0.000 C 
ENDBRANCH   1  20
TORSDOF 2
ENDMDL
MODEL 7
REMARK VINA RESULT:      -5.7      3.505      6.023
REMARK  Name = 
REMARK  5 active torsions:
REMARK  status: ('A' for Active; 'I' for Inactive)
REMARK    1  A    between atoms: C_1  and  C_2
REMARK    2  A    between atoms: C_2  and  C_3
REMARK    3  A    between atoms: C_2  and  C_4
REMARK    4  A    between atoms: C_9  and  C_10
REMARK    5  A    between atoms: N_12  and  C_13
REMARK                            x       y       z     vdW  Elec       q    Type
REMARK                         _______ _______ _______ _____ _____    ______ ____
ROOT
ATOM      1  C   UNL     1       5.678   5.026  18.660  0.00  0.00    +0.000 C 
ATOM      2  O   UNL     1       5.640   3.902  19.171  0.00  0.00    +0.000 OA
ATOM      3  N   UNL     1       4.599   5.912  18.770  0.00  0.00    +0.000 N 
ATOM      4  C   UNL     1       3.473   5.559  19.644  0.00  0.00    +0.000 C 
ATOM      5  C   UNL     1       2.126   5.752  18.945  0.00  0.00    +0.000 C 
ATOM      6  C   UNL     1       1.961   7.146  18.322  0.00  0.00    +0.000 C 
ATOM      7  C   UNL     1       3.191   7.476  17.464  0.00  0.00    +0.000 C 
ATOM      8  C   UNL     1       4.519   7.261  18.195  0.00  0.00    +0.000 C 
ENDROOT
BRANCH   6   9
ATOM      9  C   UNL     1       1.618   8.235  19.311  0.00  0.00    +0.000 A 
ATOM     10  N   UNL     1       1.305   7.937  20.586  0.00  0.00    +0.000 NA
ATOM     11  N   UNL     1       1.084   9.126  21.177  0.00  0.00    +0.000 N 
ATOM     12  C   UNL     1       0.735   9.195  22.575  0.00  0.00    +0.000 C 
ATOM     13  C   UNL     1       1.242  10.168  20.324  0.00  0.00    +0.000 A 
ATOM     14  C   UNL     1       1.596   9.629  19.103  0.00  0.00    +0.000 A 
ATOM     15  C   UNL     1       1.847  10.514  17.927  0.00  0.00    +0.000 C 
ATOM     16  O   UNL     1       1.980  11.906  18.302  0.00  0.00    +0.000 OA
ATOM     17  C   UNL     1       0.971  12.337  19.239  0.00  0.00    +0.000 C 
ATOM     18  C   UNL     1       1.110  11.619  20.599  0.00  0.00    +0.000 C 
ENDBRANCH   6   9
BRANCH   1  20
ATOM     19  C   UNL     1       7.957   5.967  19.031  0.00  0.00    +0.000 C 
ATOM     20  C   UNL     1       6.965   5.509  17.965  0.00  0.00    +0.000 C 
ATOM     21  C   UNL     1       7.654   4.460  17.080  0.00  0.00    +0.000 C 
ENDBRANCH   1  20
TORSDOF 2
ENDMDL
MODEL 8
REMARK VINA RESULT:      -5.5      2.068      3.151
REMARK  Name = 
REMARK  5 active torsions:
REMARK  status: ('A' for Active; 'I' for Inactive)
REMARK    1  A    between atoms: C_1  and  C_2
REMARK    2  A    between atoms: C_2  and  C_3
REMARK    3  A    between atoms: C_2  and  C_4
REMARK    4  A    between atoms: C_9  and  C_10
REMARK    5  A    between atoms: N_12  and  C_13
REMARK                            x       y       z     vdW  Elec       q    Type
REMARK                         _______ _______ _______ _____ _____    ______ ____
ROOT
ATOM      1  C   UNL     1       6.060   5.481  14.484  0.00  0.00    +0.000 C 
ATOM      2  O   UNL     1       5.414   6.350  13.890  0.00  0.00    +0.000 OA
ATOM      3  N   UNL     1       5.815   5.184  15.831  0.00  0.00    +0.000 N 
ATOM      4  C   UNL     1       4.661   5.801  16.498  0.00  0.00    +0.000 C 
ATOM      5  C   UNL     1       5.041   6.406  17.851  0.00  0.00    +0.000 C 
ATOM      6  C   UNL     1       5.783   5.422  18.768  0.00  0.00    +0.000 C 
ATOM      7  C   UNL     1       6.943   4.773  17.997  0.00  0.00    +0.000 C 
ATOM      8  C   UNL     1       6.524   4.189  16.646  0.00  0.00    +0.000 C 
ENDROOT
BRANCH   6   9
ATOM      9  C   UNL     1       4.890   4.415  19.454  0.00  0.00    +0.000 A 
ATOM     10  N   UNL     1       5.351   3.193  19.780  0.00  0.00    +0.000 NA
ATOM     11  N   UNL     1       4.315   2.581  20.386  0.00  0.00    +0.000 N 
ATOM     12  C   UNL     1       4.452   1.238  20.891  0.00  0.00    +0.000 C 
ATOM     13  C   UNL     1       3.214   3.368  20.453  0.00  0.00    +0.000 A 
ATOM     14  C   UNL     1       3.551   4.571  19.864  0.00  0.00    +0.000 A 
ATOM     15  C   UNL     1       2.552   5.676  19.769  0.00  0.00    +0.000 C 
ATOM     16  O   UNL     1       1.392   5.445  20.605  0.00  0.00    +0.000 OA
ATOM     17  C   UNL     1       0.886   4.098  20.508  0.00  0.00    +0.000 C 
ATOM     18  C   UNL     1       1.894   3.067  21.058  0.00  0.00    +0.000 C 
ENDBRANCH   6   9
BRANCH   1  20
ATOM     19  C   UNL     1       6.357   3.638  12.832  0.00  0.00    +0.000 C 
ATOM     20  C   UNL     1       7.096   4.638  13.717  0.00  0.00    +0.000 C 
ATOM     21  C   UNL     1       8.061   5.445  12.836  0.00  0.00    +0.000 C 
ENDBRANCH   1  20
TORSDOF 2
ENDMDL
MODEL 9
REMARK VINA RESULT:      -5.4      5.552      8.385
REMARK  Name = 
REMARK  5 active torsions:
REMARK  status: ('A' for Active; 'I' for Inactive)
REMARK    1  A    between atoms: C_1  and  C_2
REMARK    2  A    between atoms: C_2  and  C_3
REMARK    3  A    between atoms: C_2  and  C_4
REMARK    4  A    between atoms: C_9  and  C_10
REMARK    5  A    between atoms: N_12  and  C_13
REMARK                            x       y       z     vdW  Elec       q    Type
REMARK                         _______ _______ _______ _____ _____    ______ ____
ROOT
ATOM      1  C   UNL     1       2.769   7.439  18.390  0.00  0.00    +0.000 C 
ATOM      2  O   UNL     1       3.542   7.539  17.433  0.00  0.00    +0.000 OA
ATOM      3  N   UNL     1       1.881   8.471  18.720  0.00  0.00    +0.000 N 
ATOM      4  C   UNL     1       1.756   9.620  17.815  0.00  0.00    +0.000 C 
ATOM      5  C   UNL     1       1.837  10.950  18.567  0.00  0.00    +0.000 C 
ATOM      6  C   UNL     1       0.863  11.038  19.751  0.00  0.00    +0.000 C 
ATOM      7  C   UNL     1       1.006   9.785  20.629  0.00  0.00    +0.000 C 
ATOM      8  C   UNL     1       0.929   8.476  19.839  0.00  0.00    +0.000 C 
ENDROOT
BRANCH   6   9
ATOM      9  C   UNL     1      -0.567  11.330  19.363  0.00  0.00    +0.000 A 
ATOM     10  N   UNL     1      -1.017  11.054  18.125  0.00  0.00    +0.000 NA
ATOM     11  N   UNL     1      -2.314  11.413  18.137  0.00  0.00    +0.000 N 
ATOM     12  C   UNL     1      -3.133  11.242  16.963  0.00  0.00    +0.000 C 
ATOM     13  C   UNL     1      -2.703  11.910  19.337  0.00  0.00    +0.000 A 
ATOM     14  C   UNL     1      -1.597  11.865  20.162  0.00  0.00    +0.000 A 
ATOM     15  C   UNL     1      -1.682  12.346  21.573  0.00  0.00    +0.000 C 
ATOM     16  O   UNL     1      -3.049  12.536  22.010  0.00  0.00    +0.000 OA
ATOM     17  C   UNL     1      -3.862  13.224  21.037  0.00  0.00    +0.000 C 
ATOM     18  C   UNL     1      -4.045  12.388  19.751  0.00  0.00    +0.000 C 
ENDBRANCH   6   9
BRANCH   1  20
ATOM     19  C   UNL     1       1.929   5.091  18.374  0.00  0.00    +0.000 C 
ATOM     20  C   UNL     1       2.704   6.124  19.189  0.00  0.00    +0.000 C 
ATOM     21  C   UNL     1       4.069   5.524  19.559  0.00  0.00    +0.000 C 
ENDBRANCH   1  20
TORSDOF 2
ENDMDL
