MODEL 1
REMARK VINA RESULT:      -8.1      0.000      0.000
REMARK  Name = 
REMARK  10 active torsions:
REMARK  status: ('A' for Active; 'I' for Inactive)
REMARK    1  A    between atoms: C_1  and  C_2
REMARK    2  A    between atoms: C_2  and  O_3
REMARK    3  A    between atoms: O_3  and  C_4
REMARK    4  A    between atoms: C_4  and  C_5
REMARK    5  A    between atoms: C_5  and  C_6
REMARK    6  A    between atoms: C_6  and  N_7
REMARK    7  A    between atoms: N_11  and  C_12
REMARK    8  A    between atoms: C_21  and  C_22
REMARK    9  A    between atoms: C_25  and  O_26
REMARK   10  A    between atoms: O_26  and  C_27
REMARK                            x       y       z     vdW  Elec       q    Type
REMARK                         _______ _______ _______ _____ _____    ______ ____
ROOT
ATOM      1  N   UNL     1       6.662   6.414  18.194  0.00  0.00    +0.000 N 
ATOM      2  C   UNL     1       6.511   5.414  19.146  0.00  0.00    +0.000 C 
ATOM      3  O   UNL     1       7.400   5.077  19.924  0.00  0.00    +0.000 OA
ATOM      4  C   UNL     1       5.183   4.655  19.076  0.00  0.00    +0.000 C 
ATOM      5  N   UNL     1       4.068   5.495  18.631  0.00  0.00    +0.000 N 
ATOM      6  C   UNL     1       4.265   6.370  17.561  0.00  0.00    +0.000 C 
ATOM      7  O   UNL     1       3.356   6.974  16.992  0.00  0.00    +0.000 OA
ATOM      8  C   UNL     1       5.724   6.500  17.063  0.00  0.00    +0.000 C 
ENDROOT
BRANCH   5   9
ATOM      9  C   UNL     1       2.813   5.451  19.405  0.00  0.00    +0.000 C 
ATOM     10  C   UNL     1       1.646   5.049  18.483  0.00  0.00    +0.000 C 
ATOM     11  C   UNL     1       1.568   3.582  18.093  0.00  0.00    +0.000 C 
ATOM     12  C   UNL     1       0.859   2.711  19.122  0.00  0.00    +0.000 C 
ATOM     13  C   UNL     1       1.511   2.633  20.500  0.00  0.00    +0.000 C 
ATOM     14  C   UNL     1       1.679   3.968  21.220  0.00  0.00    +0.000 C 
ATOM     15  C   UNL     1       2.915   4.745  20.772  0.00  0.00    +0.000 C 
ENDBRANCH   5   9
BRANCH   8  16
ATOM     16  C   UNL     1       5.990   5.565  15.896  0.00  0.00    +0.000 A 
ATOM     17  C   UNL     1       7.145   5.781  15.122  0.00  0.00    +0.000 A 
ATOM     18  C   UNL     1       7.382   5.039  13.970  0.00  0.00    +0.000 A 
ATOM     19  C   UNL     1       6.484   4.048  13.574  0.00  0.00    +0.000 A 
ATOM     20  C   UNL     1       5.360   3.794  14.357  0.00  0.00    +0.000 A 
ATOM     21  C   UNL     1       5.118   4.538  15.514  0.00  0.00    +0.000 A 
BRANCH  19  22
ATOM     22  O   UNL     1       6.791   3.428  12.395  0.00  0.00    +0.000 OA
ATOM     23  C   UNL     1       5.729   2.708  11.782  0.00  0.00    +0.000 C 
ENDBRANCH  19  22
ENDBRANCH   8  16
BRANCH   1  24
ATOM     24  C   UNL     1       7.876   7.229  18.159  0.00  0.00    +0.000 C 
BRANCH  24  25
ATOM     25  C   UNL     1       7.579   8.680  17.771  0.00  0.00    +0.000 C 
BRANCH  25  26
ATOM     26  C   UNL     1       8.795   9.576  17.958  0.00  0.00    +0.000 C 
BRANCH  26  27
ATOM     27  O   UNL     1       8.902   9.929  19.333  0.00  0.00    +0.000 OA
BRANCH  27  29
ATOM     28  C   UNL     1      10.313  11.481  18.190  0.00  0.00    +0.000 C 
ATOM     29  C   UNL     1       9.870  10.955  19.541  0.00  0.00    +0.000 C 
ENDBRANCH  27  29
ENDBRANCH  26  27
ENDBRANCH  25  26
ENDBRANCH  24  25
ENDBRANCH   1  24
TORSDOF 8
ENDMDL
MODEL 2
REMARK VINA RESULT:      -8.0      0.504      1.066
REMARK  Name = 
REMARK  10 active torsions:
REMARK  status: ('A' for Active; 'I' for Inactive)
REMARK    1  A    between atoms: C_1  and  C_2
REMARK    2  A    between atoms: C_2  and  O_3
REMARK    3  A    between atoms: O_3  and  C_4
REMARK    4  A    between atoms: C_4  and  C_5
REMARK    5  A    between atoms: C_5  and  C_6
REMARK    6  A    between atoms: C_6  and  N_7
REMARK    7  A    between atoms: N_11  and  C_12
REMARK    8  A    between atoms: C_21  and  C_22
REMARK    9  A    between atoms: C_25  and  O_26
REMARK   10  A    between atoms: O_26  and  C_27
REMARK                            x       y       z     vdW  Elec       q    Type
REMARK                         _______ _______ _______ _____ _____    ______ ____
ROOT
ATOM      1  N   UNL     1       6.717   6.376  18.220  0.00  0.00    +0.000 N 
ATOM      2  C   UNL     1       6.443   5.291  19.043  0.00  0.00    +0.000 C 
ATOM      3  O   UNL     1       7.264   4.801  19.816  0.00  0.00    +0.000 OA
ATOM      4  C   UNL     1       5.070   4.651  18.828  0.00  0.00    +0.000 C 
ATOM      5  N   UNL     1       4.043   5.620  18.435  0.00  0.00    +0.000 N 
ATOM      6  C   UNL     1       4.359   6.591  17.482  0.00  0.00    +0.000 C 
ATOM      7  O   UNL     1       3.528   7.324  16.947  0.00  0.00    +0.000 OA
ATOM      8  C   UNL     1       5.848   6.660  17.067  0.00  0.00    +0.000 C 
ENDROOT
BRANCH   5   9
ATOM      9  C   UNL     1       2.750   5.589  19.143  0.00  0.00    +0.000 C 
ATOM     10  C   UNL     1       1.647   5.090  18.190  0.00  0.00    +0.000 C 
ATOM     11  C   UNL     1       1.630   3.598  17.898  0.00  0.00    +0.000 C 
ATOM     12  C   UNL     1       0.890   2.776  18.946  0.00  0.00    +0.000 C 
ATOM     13  C   UNL     1       1.468   2.811  20.358  0.00  0.00    +0.000 C 
ATOM     14  C   UNL     1       1.560   4.195  20.993  0.00  0.00    +0.000 C 
ATOM     15  C   UNL     1       2.796   4.979  20.558  0.00  0.00    +0.000 C 
ENDBRANCH   5   9
BRANCH   8  16
ATOM     16  C   UNL     1       6.106   5.843  15.813  0.00  0.00    +0.000 A 
ATOM     17  C   UNL     1       5.020   5.172  15.222  0.00  0.00    +0.000 A 
ATOM     18  C   UNL     1       5.211   4.311  14.147  0.00  0.00    +0.000 A 
ATOM     19  C   UNL     1       6.487   4.116  13.620  0.00  0.00    +0.000 A 
ATOM     20  C   UNL     1       7.565   4.810  14.166  0.00  0.00    +0.000 A 
ATOM     21  C   UNL     1       7.376   5.675  15.248  0.00  0.00    +0.000 A 
BRANCH  19  22
ATOM     22  O   UNL     1       6.560   3.203  12.605  0.00  0.00    +0.000 OA
ATOM     23  C   UNL     1       5.330   2.901  11.959  0.00  0.00    +0.000 C 
ENDBRANCH  19  22
ENDBRANCH   8  16
BRANCH   1  24
ATOM     24  C   UNL     1       7.987   7.092  18.333  0.00  0.00    +0.000 C 
BRANCH  24  25
ATOM     25  C   UNL     1       7.882   8.527  17.809  0.00  0.00    +0.000 C 
BRANCH  25  26
ATOM     26  C   UNL     1       8.671   9.503  18.672  0.00  0.00    +0.000 C 
BRANCH  26  27
ATOM     27  O   UNL     1       8.937  10.679  17.914  0.00  0.00    +0.000 OA
BRANCH  27  29
ATOM     28  C   UNL     1       9.737  11.171  20.110  0.00  0.00    +0.000 C 
ATOM     29  C   UNL     1       9.443  11.731  18.732  0.00  0.00    +0.000 C 
ENDBRANCH  27  29
ENDBRANCH  26  27
ENDBRANCH  25  26
ENDBRANCH  24  25
ENDBRANCH   1  24
TORSDOF 8
ENDMDL
MODEL 3
REMARK VINA RESULT:      -6.4      0.958      1.404
REMARK  Name = 
REMARK  10 active torsions:
REMARK  status: ('A' for Active; 'I' for Inactive)
REMARK    1  A    between atoms: C_1  and  C_2
REMARK    2  A    between atoms: C_2  and  O_3
REMARK    3  A    between atoms: O_3  and  C_4
REMARK    4  A    between atoms: C_4  and  C_5
REMARK    5  A    between atoms: C_5  and  C_6
REMARK    6  A    between atoms: C_6  and  N_7
REMARK    7  A    between atoms: N_11  and  C_12
REMARK    8  A    between atoms: C_21  and  C_22
REMARK    9  A    between atoms: C_25  and  O_26
REMARK   10  A    between atoms: O_26  and  C_27
REMARK                            x       y       z     vdW  Elec       q    Type
REMARK                         _______ _______ _______ _____ _____    ______ ____
ROOT
ATOM      1  N   UNL     1       6.567   5.677  17.673  0.00  0.00    +0.000 N 
ATOM      2  C   UNL     1       6.027   4.636  18.420  0.00  0.00    +0.000 C 
ATOM      3  O   UNL     1       6.684   3.946  19.196  0.00  0.00    +0.000 OA
ATOM      4  C   UNL     1       4.563   4.315  18.110  0.00  0.00    +0.000 C 
ATOM      5  N   UNL     1       3.786   5.498  17.731  0.00  0.00    +0.000 N 
ATOM      6  C   UNL     1       4.350   6.424  16.850  0.00  0.00    +0.000 C 
ATOM      7  O   UNL     1       3.722   7.342  16.324  0.00  0.00    +0.000 OA
ATOM      8  C   UNL     1       5.841   6.195  16.503  0.00  0.00    +0.000 C 
ENDROOT
BRANCH   5   9
ATOM      9  C   UNL     1       2.479   5.709  18.380  0.00  0.00    +0.000 C 
ATOM     10  C   UNL     1       1.441   4.736  17.790  0.00  0.00    +0.000 C 
ATOM     11  C   UNL     1       1.539   3.288  18.243  0.00  0.00    +0.000 C 
ATOM     12  C   UNL     1       0.831   3.009  19.563  0.00  0.00    +0.000 C 
ATOM     13  C   UNL     1       1.365   3.754  20.783  0.00  0.00    +0.000 C 
ATOM     14  C   UNL     1       1.340   5.277  20.682  0.00  0.00    +0.000 C 
ATOM     15  C   UNL     1       2.529   5.851  19.914  0.00  0.00    +0.000 C 
ENDBRANCH   5   9
BRANCH   8  16
ATOM     16  C   UNL     1       5.988   5.402  15.216  0.00  0.00    +0.000 A 
ATOM     17  C   UNL     1       4.865   4.705  14.732  0.00  0.00    +0.000 A 
ATOM     18  C   UNL     1       4.966   3.866  13.629  0.00  0.00    +0.000 A 
ATOM     19  C   UNL     1       6.184   3.716  12.967  0.00  0.00    +0.000 A 
ATOM     20  C   UNL     1       7.293   4.436  13.407  0.00  0.00    +0.000 A 
ATOM     21  C   UNL     1       7.195   5.281  14.517  0.00  0.00    +0.000 A 
BRANCH  19  22
ATOM     22  O   UNL     1       6.175   2.820  11.935  0.00  0.00    +0.000 OA
ATOM     23  C   UNL     1       7.452   2.431  11.444  0.00  0.00    +0.000 C 
ENDBRANCH  19  22
ENDBRANCH   8  16
BRANCH   1  24
ATOM     24  C   UNL     1       7.952   6.099  17.881  0.00  0.00    +0.000 C 
BRANCH  24  25
ATOM     25  C   UNL     1       8.035   7.486  18.526  0.00  0.00    +0.000 C 
BRANCH  25  26
ATOM     26  C   UNL     1       8.008   8.596  17.485  0.00  0.00    +0.000 C 
BRANCH  26  27
ATOM     27  O   UNL     1       8.138   9.851  18.145  0.00  0.00    +0.000 OA
BRANCH  27  29
ATOM     28  C   UNL     1       9.757  11.194  19.279  0.00  0.00    +0.000 C 
ATOM     29  C   UNL     1       9.143   9.813  19.156  0.00  0.00    +0.000 C 
ENDBRANCH  27  29
ENDBRANCH  26  27
ENDBRANCH  25  26
ENDBRANCH  24  25
ENDBRANCH   1  24
TORSDOF 8
ENDMDL
MODEL 4
REMARK VINA RESULT:      -6.4      1.188      1.861
REMARK  Name = 
REMARK  10 active torsions:
REMARK  status: ('A' for Active; 'I' for Inactive)
REMARK    1  A    between atoms: C_1  and  C_2
REMARK    2  A    between atoms: C_2  and  O_3
REMARK    3  A    between atoms: O_3  and  C_4
REMARK    4  A    between atoms: C_4  and  C_5
REMARK    5  A    between atoms: C_5  and  C_6
REMARK    6  A    between atoms: C_6  and  N_7
REMARK    7  A    between atoms: N_11  and  C_12
REMARK    8  A    between atoms: C_21  and  C_22
REMARK    9  A    between atoms: C_25  and  O_26
REMARK   10  A    between atoms: O_26  and  C_27
REMARK                            x       y       z     vdW  Elec       q    Type
REMARK                         _______ _______ _______ _____ _____    ______ ____
ROOT
ATOM      1  N   UNL     1       5.932   6.305  17.797  0.00  0.00    +0.000 N 
ATOM      2  C   UNL     1       6.633   5.447  18.635  0.00  0.00    +0.000 C 
ATOM      3  O   UNL     1       7.651   5.771  19.241  0.00  0.00    +0.000 OA
ATOM      4  C   UNL     1       6.119   4.005  18.655  0.00  0.00    +0.000 C 
ATOM      5  N   UNL     1       4.668   3.913  18.467  0.00  0.00    +0.000 N 
ATOM      6  C   UNL     1       4.061   4.706  17.491  0.00  0.00    +0.000 C 
ATOM      7  O   UNL     1       2.893   4.571  17.125  0.00  0.00    +0.000 OA
ATOM      8  C   UNL     1       4.975   5.759  16.821  0.00  0.00    +0.000 C 
ENDROOT
BRANCH   5   9
ATOM      9  C   UNL     1       3.900   3.059  19.392  0.00  0.00    +0.000 C 
ATOM     10  C   UNL     1       3.400   3.898  20.582  0.00  0.00    +0.000 C 
ATOM     11  C   UNL     1       2.224   4.823  20.311  0.00  0.00    +0.000 C 
ATOM     12  C   UNL     1       0.868   4.137  20.416  0.00  0.00    +0.000 C 
ATOM     13  C   UNL     1       0.609   3.004  19.426  0.00  0.00    +0.000 C 
ATOM     14  C   UNL     1       1.599   1.844  19.487  0.00  0.00    +0.000 C 
ATOM     15  C   UNL     1       2.890   2.111  18.716  0.00  0.00    +0.000 C 
ENDBRANCH   5   9
BRANCH   8  16
ATOM     16  C   UNL     1       5.565   5.228  15.526  0.00  0.00    +0.000 A 
ATOM     17  C   UNL     1       4.719   4.523  14.651  0.00  0.00    +0.000 A 
ATOM     18  C   UNL     1       5.223   3.907  13.510  0.00  0.00    +0.000 A 
ATOM     19  C   UNL     1       6.580   3.998  13.204  0.00  0.00    +0.000 A 
ATOM     20  C   UNL     1       7.421   4.731  14.038  0.00  0.00    +0.000 A 
ATOM     21  C   UNL     1       6.918   5.350  15.185  0.00  0.00    +0.000 A 
BRANCH  19  22
ATOM     22  O   UNL     1       6.968   3.303  12.092  0.00  0.00    +0.000 OA
ATOM     23  C   UNL     1       6.080   2.279  11.664  0.00  0.00    +0.000 C 
ENDBRANCH  19  22
ENDBRANCH   8  16
BRANCH   1  24
ATOM     24  C   UNL     1       6.307   7.715  17.697  0.00  0.00    +0.000 C 
BRANCH  24  25
ATOM     25  C   UNL     1       7.798   7.888  17.389  0.00  0.00    +0.000 C 
BRANCH  25  26
ATOM     26  C   UNL     1       8.445   8.926  18.296  0.00  0.00    +0.000 C 
BRANCH  26  27
ATOM     27  O   UNL     1       8.240  10.220  17.738  0.00  0.00    +0.000 OA
BRANCH  27  29
ATOM     28  C   UNL     1       9.550  10.779  19.655  0.00  0.00    +0.000 C 
ATOM     29  C   UNL     1       9.184  11.165  18.236  0.00  0.00    +0.000 C 
ENDBRANCH  27  29
ENDBRANCH  26  27
ENDBRANCH  25  26
ENDBRANCH  24  25
ENDBRANCH   1  24
TORSDOF 8
ENDMDL
MODEL 5
REMARK VINA RESULT:      -6.3      1.166      1.573
REMARK  Name = 
REMARK  10 active torsions:
REMARK  status: ('A' for Active; 'I' for Inactive)
REMARK    1  A    between atoms: C_1  and  C_2
REMARK    2  A    between atoms: C_2  and  O_3
REMARK    3  A    between atoms: O_3  and  C_4
REMARK    4  A    between atoms: C_4  and  C_5
REMARK    5  A    between atoms: C_5  and  C_6
REMARK    6  A    between atoms: C_6  and  N_7
REMARK    7  A    between atoms: N_11  and  C_12
REMARK    8  A    between atoms: C_21  and  C_22
REMARK    9  A    between atoms: C_25  and  O_26
REMARK   10  A    between atoms: O_26  and  C_27
REMARK                            x       y       z     vdW  Elec       q    Type
REMARK                         _______ _______ _______ _____ _____    ______ ____
ROOT
ATOM      1  N   UNL     1       5.967   6.332  17.688  0.00  0.00    +0.000 N 
ATOM      2  C   UNL     1       6.673   5.542  18.587  0.00  0.00    +0.000 C 
ATOM      3  O   UNL     1       7.694   5.913  19.162  0.00  0.00    +0.000 OA
ATOM      4  C   UNL     1       6.161   4.105  18.720  0.00  0.00    +0.000 C 
ATOM      5  N   UNL     1       4.710   3.997  18.547  0.00  0.00    +0.000 N 
ATOM      6  C   UNL     1       4.097   4.712  17.515  0.00  0.00    +0.000 C 
ATOM      7  O   UNL     1       2.929   4.547  17.166  0.00  0.00    +0.000 OA
ATOM      8  C   UNL     1       5.007   5.711  16.761  0.00  0.00    +0.000 C 
ENDROOT
BRANCH   5   9
ATOM      9  C   UNL     1       3.948   3.216  19.538  0.00  0.00    +0.000 C 
ATOM     10  C   UNL     1       3.383   4.157  20.619  0.00  0.00    +0.000 C 
ATOM     11  C   UNL     1       2.182   5.001  20.221  0.00  0.00    +0.000 C 
ATOM     12  C   UNL     1       0.849   4.277  20.365  0.00  0.00    +0.000 C 
ATOM     13  C   UNL     1       0.661   3.037  19.496  0.00  0.00    +0.000 C 
ATOM     14  C   UNL     1       1.690   1.929  19.706  0.00  0.00    +0.000 C 
ATOM     15  C   UNL     1       2.992   2.163  18.943  0.00  0.00    +0.000 C 
ENDBRANCH   5   9
BRANCH   8  16
ATOM     16  C   UNL     1       5.592   5.082  15.509  0.00  0.00    +0.000 A 
ATOM     17  C   UNL     1       6.885   5.469  15.112  0.00  0.00    +0.000 A 
ATOM     18  C   UNL     1       7.428   5.023  13.912  0.00  0.00    +0.000 A 
ATOM     19  C   UNL     1       6.703   4.162  13.088  0.00  0.00    +0.000 A 
ATOM     20  C   UNL     1       5.440   3.734  13.492  0.00  0.00    +0.000 A 
ATOM     21  C   UNL     1       4.891   4.181  14.697  0.00  0.00    +0.000 A 
BRANCH  19  22
ATOM     22  O   UNL     1       7.315   3.841  11.909  0.00  0.00    +0.000 OA
ATOM     23  C   UNL     1       7.029   2.545  11.400  0.00  0.00    +0.000 C 
ENDBRANCH  19  22
ENDBRANCH   8  16
BRANCH   1  24
ATOM     24  C   UNL     1       6.340   7.730  17.477  0.00  0.00    +0.000 C 
BRANCH  24  25
ATOM     25  C   UNL     1       7.852   7.942  17.597  0.00  0.00    +0.000 C 
BRANCH  25  26
ATOM     26  C   UNL     1       8.201   9.407  17.823  0.00  0.00    +0.000 C 
BRANCH  26  27
ATOM     27  O   UNL     1       8.908   9.529  19.053  0.00  0.00    +0.000 OA
BRANCH  27  29
ATOM     28  C   UNL     1       9.192  11.730  18.169  0.00  0.00    +0.000 C 
ATOM     29  C   UNL     1       9.791  10.648  19.045  0.00  0.00    +0.000 C 
ENDBRANCH  27  29
ENDBRANCH  26  27
ENDBRANCH  25  26
ENDBRANCH  24  25
ENDBRANCH   1  24
TORSDOF 8
ENDMDL
MODEL 6
REMARK VINA RESULT:      -6.2      5.608      8.962
REMARK  Name = 
REMARK  10 active torsions:
REMARK  status: ('A' for Active; 'I' for Inactive)
REMARK    1  A    between atoms: C_1  and  C_2
REMARK    2  A    between atoms: C_2  and  O_3
REMARK    3  A    between atoms: O_3  and  C_4
REMARK    4  A    between atoms: C_4  and  C_5
REMARK    5  A    between atoms: C_5  and  C_6
REMARK    6  A    between atoms: C_6  and  N_7
REMARK    7  A    between atoms: N_11  and  C_12
REMARK    8  A    between atoms: C_21  and  C_22
REMARK    9  A    between atoms: C_25  and  O_26
REMARK   10  A    between atoms: O_26  and  C_27
REMARK                            x       y       z     vdW  Elec       q    Type
REMARK                         _______ _______ _______ _____ _____    ______ ____
ROOT
ATOM      1  N   UNL     1      -0.208   9.572  19.591  0.00  0.00    +0.000 N 
ATOM      2  C   UNL     1       0.176   8.892  20.740  0.00  0.00    +0.000 C 
ATOM      3  O   UNL     1      -0.547   8.760  21.725  0.00  0.00    +0.000 OA
ATOM      4  C   UNL     1       1.632   8.421  20.752  0.00  0.00    +0.000 C 
ATOM      5  N   UNL     1       2.127   8.061  19.420  0.00  0.00    +0.000 N 
ATOM      6  C   UNL     1       1.819   8.887  18.337  0.00  0.00    +0.000 C 
ATOM      7  O   UNL     1       2.335   8.782  17.225  0.00  0.00    +0.000 OA
ATOM      8  C   UNL     1       0.810  10.024  18.629  0.00  0.00    +0.000 C 
ENDROOT
BRANCH   5   9
ATOM      9  C   UNL     1       2.843   6.780  19.268  0.00  0.00    +0.000 C 
ATOM     10  C   UNL     1       2.517   5.857  20.456  0.00  0.00    +0.000 C 
ATOM     11  C   UNL     1       1.145   5.199  20.445  0.00  0.00    +0.000 C 
ATOM     12  C   UNL     1       1.087   3.917  19.624  0.00  0.00    +0.000 C 
ATOM     13  C   UNL     1       1.377   4.060  18.132  0.00  0.00    +0.000 C 
ATOM     14  C   UNL     1       2.745   4.642  17.785  0.00  0.00    +0.000 C 
ATOM     15  C   UNL     1       2.788   6.167  17.855  0.00  0.00    +0.000 C 
ENDBRANCH   5   9
BRANCH   8  16
ATOM     16  C   UNL     1       1.527  11.319  18.968  0.00  0.00    +0.000 A 
ATOM     17  C   UNL     1       1.264  11.918  20.213  0.00  0.00    +0.000 A 
ATOM     18  C   UNL     1       1.793  13.164  20.533  0.00  0.00    +0.000 A 
ATOM     19  C   UNL     1       2.615  13.833  19.627  0.00  0.00    +0.000 A 
ATOM     20  C   UNL     1       2.921  13.230  18.409  0.00  0.00    +0.000 A 
ATOM     21  C   UNL     1       2.390  11.978  18.084  0.00  0.00    +0.000 A 
BRANCH  19  22
ATOM     22  O   UNL     1       3.026  15.074  20.027  0.00  0.00    +0.000 OA
ATOM     23  C   UNL     1       2.363  15.604  21.168  0.00  0.00    +0.000 C 
ENDBRANCH  19  22
ENDBRANCH   8  16
BRANCH   1  24
ATOM     24  C   UNL     1      -1.578  10.062  19.442  0.00  0.00    +0.000 C 
BRANCH  24  25
ATOM     25  C   UNL     1      -1.882  10.478  17.999  0.00  0.00    +0.000 C 
BRANCH  25  26
ATOM     26  C   UNL     1      -3.313  10.972  17.842  0.00  0.00    +0.000 C 
BRANCH  26  27
ATOM     27  O   UNL     1      -3.818  10.532  16.585  0.00  0.00    +0.000 OA
BRANCH  27  29
ATOM     28  C   UNL     1      -3.277  10.104  14.298  0.00  0.00    +0.000 C 
ATOM     29  C   UNL     1      -2.775  10.075  15.728  0.00  0.00    +0.000 C 
ENDBRANCH  27  29
ENDBRANCH  26  27
ENDBRANCH  25  26
ENDBRANCH  24  25
ENDBRANCH   1  24
TORSDOF 8
ENDMDL
MODEL 7
REMARK VINA RESULT:      -6.1      6.928     10.239
REMARK  Name = 
REMARK  10 active torsions:
REMARK  status: ('A' for Active; 'I' for Inactive)
REMARK    1  A    between atoms: C_1  and  C_2
REMARK    2  A    between atoms: C_2  and  O_3
REMARK    3  A    between atoms: O_3  and  C_4
REMARK    4  A    between atoms: C_4  and  C_5
REMARK    5  A    between atoms: C_5  and  C_6
REMARK    6  A    between atoms: C_6  and  N_7
REMARK    7  A    between atoms: N_11  and  C_12
REMARK    8  A    between atoms: C_21  and  C_22
REMARK    9  A    between atoms: C_25  and  O_26
REMARK   10  A    between atoms: O_26  and  C_27
REMARK                            x       y       z     vdW  Elec       q    Type
REMARK                         _______ _______ _______ _____ _____    ______ ____
ROOT
ATOM      1  N   UNL     1       0.435  10.150  20.789  0.00  0.00    +0.000 N 
ATOM      2  C   UNL     1       0.362  11.259  21.623  0.00  0.00    +0.000 C 
ATOM      3  O   UNL     1       0.033  11.199  22.805  0.00  0.00    +0.000 OA
ATOM      4  C   UNL     1       0.595  12.603  20.928  0.00  0.00    +0.000 C 
ATOM      5  N   UNL     1       1.547  12.514  19.817  0.00  0.00    +0.000 N 
ATOM      6  C   UNL     1       1.453  11.439  18.930  0.00  0.00    +0.000 C 
ATOM      7  O   UNL     1       2.071  11.368  17.868  0.00  0.00    +0.000 OA
ATOM      8  C   UNL     1       0.450  10.330  19.328  0.00  0.00    +0.000 C 
ENDROOT
BRANCH   5   9
ATOM      9  C   UNL     1       2.629  13.513  19.746  0.00  0.00    +0.000 C 
ATOM     10  C   UNL     1       2.318  14.540  18.640  0.00  0.00    +0.000 C 
ATOM     11  C   UNL     1       1.253  15.577  18.960  0.00  0.00    +0.000 C 
ATOM     12  C   UNL     1       1.782  16.783  19.725  0.00  0.00    +0.000 C 
ATOM     13  C   UNL     1       2.366  16.499  21.107  0.00  0.00    +0.000 C 
ATOM     14  C   UNL     1       3.537  15.521  21.133  0.00  0.00    +0.000 C 
ATOM     15  C   UNL     1       3.103  14.058  21.108  0.00  0.00    +0.000 C 
ENDBRANCH   5   9
BRANCH   8  16
ATOM     16  C   UNL     1      -0.898  10.546  18.663  0.00  0.00    +0.000 A 
ATOM     17  C   UNL     1      -1.152   9.889  17.446  0.00  0.00    +0.000 A 
ATOM     18  C   UNL     1      -2.315  10.139  16.727  0.00  0.00    +0.000 A 
ATOM     19  C   UNL     1      -3.265  11.036  17.215  0.00  0.00    +0.000 A 
ATOM     20  C   UNL     1      -3.047  11.659  18.442  0.00  0.00    +0.000 A 
ATOM     21  C   UNL     1      -1.879  11.410  19.167  0.00  0.00    +0.000 A 
BRANCH  19  22
ATOM     22  O   UNL     1      -4.337  11.246  16.394  0.00  0.00    +0.000 OA
ATOM     23  C   UNL     1      -5.419  11.971  16.965  0.00  0.00    +0.000 C 
ENDBRANCH  19  22
ENDBRANCH   8  16
BRANCH   1  24
ATOM     24  C   UNL     1       0.249   8.803  21.327  0.00  0.00    +0.000 C 
BRANCH  24  25
ATOM     25  C   UNL     1       1.579   8.058  21.473  0.00  0.00    +0.000 C 
BRANCH  25  26
ATOM     26  C   UNL     1       1.866   7.172  20.269  0.00  0.00    +0.000 C 
BRANCH  26  27
ATOM     27  O   UNL     1       1.405   5.853  20.546  0.00  0.00    +0.000 OA
BRANCH  27  29
ATOM     28  C   UNL     1       2.124   3.780  21.491  0.00  0.00    +0.000 C 
ATOM     29  C   UNL     1       2.473   4.909  20.541  0.00  0.00    +0.000 C 
ENDBRANCH  27  29
ENDBRANCH  26  27
ENDBRANCH  25  26
ENDBRANCH  24  25
ENDBRANCH   1  24
TORSDOF 8
ENDMDL
MODEL 8
REMARK VINA RESULT:      -6.1      1.194      6.098
REMARK  Name = 
REMARK  10 active torsions:
REMARK  status: ('A' for Active; 'I' for Inactive)
REMARK    1  A    between atoms: C_1  and  C_2
REMARK    2  A    between atoms: C_2  and  O_3
REMARK    3  A    between atoms: O_3  and  C_4
REMARK    4  A    between atoms: C_4  and  C_5
REMARK    5  A    between atoms: C_5  and  C_6
REMARK    6  A    between atoms: C_6  and  N_7
REMARK    7  A    between atoms: N_11  and  C_12
REMARK    8  A    between atoms: C_21  and  C_22
REMARK    9  A    between atoms: C_25  and  O_26
REMARK   10  A    between atoms: O_26  and  C_27
REMARK                            x       y       z     vdW  Elec       q    Type
REMARK                         _______ _______ _______ _____ _____    ______ ____
ROOT
ATOM      1  N   UNL     1       6.375   5.665  16.403  0.00  0.00    +0.000 N 
ATOM      2  C   UNL     1       5.066   6.102  16.242  0.00  0.00    +0.000 C 
ATOM      3  O   UNL     1       4.531   6.258  15.147  0.00  0.00    +0.000 OA
ATOM      4  C   UNL     1       4.361   6.510  17.539  0.00  0.00    +0.000 C 
ATOM      5  N   UNL     1       4.793   5.721  18.696  0.00  0.00    +0.000 N 
ATOM      6  C   UNL     1       6.153   5.455  18.863  0.00  0.00    +0.000 C 
ATOM      7  O   UNL     1       6.637   4.971  19.887  0.00  0.00    +0.000 OA
ATOM      8  C   UNL     1       7.066   5.871  17.685  0.00  0.00    +0.000 C 
ENDROOT
BRANCH   5   9
ATOM      9  C   UNL     1       3.755   5.155  19.578  0.00  0.00    +0.000 C 
ATOM     10  C   UNL     1       2.358   5.498  19.025  0.00  0.00    +0.000 C 
ATOM     11  C   UNL     1       1.896   4.703  17.814  0.00  0.00    +0.000 C 
ATOM     12  C   UNL     1       1.265   3.362  18.166  0.00  0.00    +0.000 C 
ATOM     13  C   UNL     1       2.170   2.357  18.873  0.00  0.00    +0.000 C 
ATOM     14  C   UNL     1       2.762   2.829  20.198  0.00  0.00    +0.000 C 
ATOM     15  C   UNL     1       4.003   3.702  20.029  0.00  0.00    +0.000 C 
ENDBRANCH   5   9
BRANCH   8  16
ATOM     16  C   UNL     1       7.662   7.248  17.915  0.00  0.00    +0.000 A 
ATOM     17  C   UNL     1       8.524   7.425  19.013  0.00  0.00    +0.000 A 
ATOM     18  C   UNL     1       9.005   8.686  19.349  0.00  0.00    +0.000 A 
ATOM     19  C   UNL     1       8.656   9.798  18.584  0.00  0.00    +0.000 A 
ATOM     20  C   UNL     1       7.841   9.630  17.467  0.00  0.00    +0.000 A 
ATOM     21  C   UNL     1       7.355   8.365  17.128  0.00  0.00    +0.000 A 
BRANCH  19  22
ATOM     22  O   UNL     1       9.140  10.991  19.046  0.00  0.00    +0.000 OA
ATOM     23  C   UNL     1      10.542  11.183  18.906  0.00  0.00    +0.000 C 
ENDBRANCH  19  22
ENDBRANCH   8  16
BRANCH   1  24
ATOM     24  C   UNL     1       7.158   5.230  15.247  0.00  0.00    +0.000 C 
BRANCH  24  25
ATOM     25  C   UNL     1       6.645   3.904  14.676  0.00  0.00    +0.000 C 
BRANCH  25  26
ATOM     26  C   UNL     1       6.497   3.960  13.162  0.00  0.00    +0.000 C 
BRANCH  26  27
ATOM     27  O   UNL     1       5.136   3.715  12.821  0.00  0.00    +0.000 OA
BRANCH  27  29
ATOM     28  C   UNL     1       3.714   3.228  10.965  0.00  0.00    +0.000 C 
ATOM     29  C   UNL     1       5.023   2.901  11.657  0.00  0.00    +0.000 C 
ENDBRANCH  27  29
ENDBRANCH  26  27
ENDBRANCH  25  26
ENDBRANCH  24  25
ENDBRANCH   1  24
TORSDOF 8
ENDMDL
MODEL 9
REMARK VINA RESULT:      -6.0      8.443     10.677
REMARK  Name = 
REMARK  10 active torsions:
REMARK  status: ('A' for Active; 'I' for Inactive)
REMARK    1  A    between atoms: C_1  and  C_2
REMARK    2  A    between atoms: C_2  and  O_3
REMARK    3  A    between atoms: O_3  and  C_4
REMARK    4  A    between atoms: C_4  and  C_5
REMARK    5  A    between atoms: C_5  and  C_6
REMARK    6  A    between atoms: C_6  and  N_7
REMARK    7  A    between atoms: N_11  and  C_12
REMARK    8  A    between atoms: C_21  and  C_22
REMARK    9  A    between atoms: C_25  and  O_26
REMARK   10  A    between atoms: O_26  and  C_27
REMARK                            x       y       z     vdW  Elec       q    Type
REMARK                         _______ _______ _______ _____ _____    ______ ____
ROOT
ATOM      1  N   UNL     1       0.122  10.999  21.636  0.00  0.00    +0.000 N 
ATOM      2  C   UNL     1      -0.797  11.116  22.671  0.00  0.00    +0.000 C 
ATOM      3  O   UNL     1      -0.932  10.276  23.557  0.00  0.00    +0.000 OA
ATOM      4  C   UNL     1      -1.737  12.319  22.563  0.00  0.00    +0.000 C 
ATOM      5  N   UNL     1      -1.106  13.482  21.933  0.00  0.00    +0.000 N 
ATOM      6  C   UNL     1      -0.316  13.291  20.798  0.00  0.00    +0.000 C 
ATOM      7  O   UNL     1       0.100  14.208  20.089  0.00  0.00    +0.000 OA
ATOM      8  C   UNL     1      -0.030  11.818  20.423  0.00  0.00    +0.000 C 
ENDROOT
BRANCH   5   9
ATOM      9  C   UNL     1      -1.253  14.794  22.592  0.00  0.00    +0.000 C 
ATOM     10  C   UNL     1      -2.347  15.614  21.882  0.00  0.00    +0.000 C 
ATOM     11  C   UNL     1      -3.785  15.207  22.161  0.00  0.00    +0.000 C 
ATOM     12  C   UNL     1      -4.360  15.819  23.432  0.00  0.00    +0.000 C 
ATOM     13  C   UNL     1      -3.667  15.433  24.737  0.00  0.00    +0.000 C 
ATOM     14  C   UNL     1      -2.183  15.779  24.816  0.00  0.00    +0.000 C 
ATOM     15  C   UNL     1      -1.285  14.750  24.132  0.00  0.00    +0.000 C 
ENDBRANCH   5   9
BRANCH   8  16
ATOM     16  C   UNL     1      -1.022  11.314  19.390  0.00  0.00    +0.000 A 
ATOM     17  C   UNL     1      -0.622  10.268  18.538  0.00  0.00    +0.000 A 
ATOM     18  C   UNL     1      -1.437   9.844  17.494  0.00  0.00    +0.000 A 
ATOM     19  C   UNL     1      -2.682  10.438  17.288  0.00  0.00    +0.000 A 
ATOM     20  C   UNL     1      -3.110  11.443  18.152  0.00  0.00    +0.000 A 
ATOM     21  C   UNL     1      -2.293  11.872  19.202  0.00  0.00    +0.000 A 
BRANCH  19  22
ATOM     22  O   UNL     1      -3.366   9.980  16.197  0.00  0.00    +0.000 OA
ATOM     23  C   UNL     1      -3.229  10.756  15.013  0.00  0.00    +0.000 C 
ENDBRANCH  19  22
ENDBRANCH   8  16
BRANCH   1  24
ATOM     24  C   UNL     1       1.091   9.904  21.624  0.00  0.00    +0.000 C 
BRANCH  24  25
ATOM     25  C   UNL     1       0.417   8.546  21.405  0.00  0.00    +0.000 C 
BRANCH  25  26
ATOM     26  C   UNL     1       1.360   7.545  20.753  0.00  0.00    +0.000 C 
BRANCH  26  27
ATOM     27  O   UNL     1       2.004   8.169  19.647  0.00  0.00    +0.000 OA
BRANCH  27  29
ATOM     28  C   UNL     1       3.092   6.049  19.475  0.00  0.00    +0.000 C 
ATOM     29  C   UNL     1       2.489   7.211  18.710  0.00  0.00    +0.000 C 
ENDBRANCH  27  29
ENDBRANCH  26  27
ENDBRANCH  25  26
ENDBRANCH  24  25
ENDBRANCH   1  24
TORSDOF 8
ENDMDL
