MODEL 1
REMARK VINA RESULT:      -7.4      0.000      0.000
REMARK  Name = 
REMARK  3 active torsions:
REMARK  status: ('A' for Active; 'I' for Inactive)
REMARK    1  A    between atoms: N_2  and  C_4
REMARK    2  A    between atoms: C_7  and  C_8
REMARK    3  A    between atoms: C_11  and  C_12
REMARK                            x       y       z     vdW  Elec       q    Type
REMARK                         _______ _______ _______ _____ _____    ______ ____
ROOT
ATOM      1  C   UNL     1       2.955   6.141  18.831  0.00  0.00    +0.000 A 
ATOM      2  N   UNL     1       2.480   5.345  19.768  0.00  0.00    +0.000 NA
ATOM      3  N   UNL     1       1.746   6.136  20.621  0.00  0.00    +0.000 NA
ATOM      4  C   UNL     1       1.815   7.364  20.149  0.00  0.00    +0.000 A 
ATOM      5  O   UNL     1       2.565   7.445  19.000  0.00  0.00    +0.000 OA
ENDROOT
BRANCH   1   9
ATOM      6  C   UNL     1       5.603   5.103  15.647  0.00  0.00    +0.000 A 
ATOM      7  C   UNL     1       4.940   4.107  16.370  0.00  0.00    +0.000 A 
ATOM      8  C   UNL     1       4.062   4.472  17.394  0.00  0.00    +0.000 A 
ATOM      9  C   UNL     1       3.837   5.823  17.715  0.00  0.00    +0.000 A 
ATOM     10  C   UNL     1       4.495   6.810  16.964  0.00  0.00    +0.000 A 
ATOM     11  C   UNL     1       5.378   6.456  15.933  0.00  0.00    +0.000 A 
BRANCH   6  13
ATOM     12  O   UNL     1       6.224   3.804  13.826  0.00  0.00    +0.000 OA
ATOM     13  N   UNL     1       6.549   4.722  14.591  0.00  0.00    +0.000 N 
ATOM     14  O   UNL     1       7.622   5.342  14.530  0.00  0.00    +0.000 OA
ENDBRANCH   6  13
ENDBRANCH   1   9
BRANCH   4  15
ATOM     15  C   UNL     1       1.249   8.593  20.683  0.00  0.00    +0.000 A 
ATOM     16  C   UNL     1       0.974   8.687  22.051  0.00  0.00    +0.000 A 
ATOM     17  C   UNL     1       0.463   9.874  22.549  0.00  0.00    +0.000 A 
ATOM     18  N   UNL     1       0.209  10.954  21.784  0.00  0.00    +0.000 NA
ATOM     19  C   UNL     1       0.472  10.844  20.465  0.00  0.00    +0.000 A 
ATOM     20  C   UNL     1       0.984   9.701  19.875  0.00  0.00    +0.000 A 
ENDBRANCH   4  15
TORSDOF 3
ENDMDL
MODEL 2
REMARK VINA RESULT:      -7.3      0.183      1.065
REMARK  Name = 
REMARK  3 active torsions:
REMARK  status: ('A' for Active; 'I' for Inactive)
REMARK    1  A    between atoms: N_2  and  C_4
REMARK    2  A    between atoms: C_7  and  C_8
REMARK    3  A    between atoms: C_11  and  C_12
REMARK                            x       y       z     vdW  Elec       q    Type
REMARK                         _______ _______ _______ _____ _____    ______ ____
ROOT
ATOM      1  C   UNL     1       2.896   6.202  18.922  0.00  0.00    +0.000 A 
ATOM      2  N   UNL     1       2.466   5.426  19.896  0.00  0.00    +0.000 NA
ATOM      3  N   UNL     1       1.713   6.221  20.729  0.00  0.00    +0.000 NA
ATOM      4  C   UNL     1       1.726   7.430  20.208  0.00  0.00    +0.000 A 
ATOM      5  O   UNL     1       2.457   7.496  19.047  0.00  0.00    +0.000 OA
ENDROOT
BRANCH   1   9
ATOM      6  C   UNL     1       5.533   5.138  15.737  0.00  0.00    +0.000 A 
ATOM      7  C   UNL     1       4.857   4.149  16.458  0.00  0.00    +0.000 A 
ATOM      8  C   UNL     1       3.984   4.523  17.483  0.00  0.00    +0.000 A 
ATOM      9  C   UNL     1       3.774   5.876  17.805  0.00  0.00    +0.000 A 
ATOM     10  C   UNL     1       4.445   6.856  17.056  0.00  0.00    +0.000 A 
ATOM     11  C   UNL     1       5.324   6.493  16.025  0.00  0.00    +0.000 A 
BRANCH   6  13
ATOM     12  O   UNL     1       6.121   3.864  13.888  0.00  0.00    +0.000 OA
ATOM     13  N   UNL     1       6.475   4.748  14.680  0.00  0.00    +0.000 N 
ATOM     14  O   UNL     1       7.572   5.325  14.647  0.00  0.00    +0.000 OA
ENDBRANCH   6  13
ENDBRANCH   1   9
BRANCH   4  15
ATOM     15  C   UNL     1       1.120   8.657  20.704  0.00  0.00    +0.000 A 
ATOM     16  C   UNL     1       0.921   9.730  19.829  0.00  0.00    +0.000 A 
ATOM     17  C   UNL     1       0.318  10.879  20.309  0.00  0.00    +0.000 A 
ATOM     18  N   UNL     1      -0.090  11.029  21.585  0.00  0.00    +0.000 NA
ATOM     19  C   UNL     1       0.117   9.989  22.418  0.00  0.00    +0.000 A 
ATOM     20  C   UNL     1       0.711   8.798  22.032  0.00  0.00    +0.000 A 
ENDBRANCH   4  15
TORSDOF 3
ENDMDL
MODEL 3
REMARK VINA RESULT:      -7.3      0.230      1.675
REMARK  Name = 
REMARK  3 active torsions:
REMARK  status: ('A' for Active; 'I' for Inactive)
REMARK    1  A    between atoms: N_2  and  C_4
REMARK    2  A    between atoms: C_7  and  C_8
REMARK    3  A    between atoms: C_11  and  C_12
REMARK                            x       y       z     vdW  Elec       q    Type
REMARK                         _______ _______ _______ _____ _____    ______ ____
ROOT
ATOM      1  C   UNL     1       3.035   6.010  18.920  0.00  0.00    +0.000 A 
ATOM      2  N   UNL     1       2.547   5.264  19.890  0.00  0.00    +0.000 NA
ATOM      3  N   UNL     1       1.774   6.090  20.672  0.00  0.00    +0.000 NA
ATOM      4  C   UNL     1       1.833   7.287  20.126  0.00  0.00    +0.000 A 
ATOM      5  O   UNL     1       2.616   7.314  18.997  0.00  0.00    +0.000 OA
ENDROOT
BRANCH   1   9
ATOM      6  C   UNL     1       5.661   5.034  15.698  0.00  0.00    +0.000 A 
ATOM      7  C   UNL     1       5.398   6.369  16.019  0.00  0.00    +0.000 A 
ATOM      8  C   UNL     1       4.551   6.663  17.090  0.00  0.00    +0.000 A 
ATOM      9  C   UNL     1       3.954   5.642  17.851  0.00  0.00    +0.000 A 
ATOM     10  C   UNL     1       4.247   4.307  17.528  0.00  0.00    +0.000 A 
ATOM     11  C   UNL     1       5.095   3.999  16.454  0.00  0.00    +0.000 A 
BRANCH   6  13
ATOM     12  O   UNL     1       7.579   5.361  14.432  0.00  0.00    +0.000 OA
ATOM     13  N   UNL     1       6.525   4.720  14.553  0.00  0.00    +0.000 N 
ATOM     14  O   UNL     1       6.147   3.834  13.772  0.00  0.00    +0.000 OA
ENDBRANCH   6  13
ENDBRANCH   1   9
BRANCH   4  15
ATOM     15  C   UNL     1       1.230   8.536  20.568  0.00  0.00    +0.000 A 
ATOM     16  C   UNL     1       0.972   9.544  19.634  0.00  0.00    +0.000 A 
ATOM     17  C   UNL     1       0.371  10.715  20.065  0.00  0.00    +0.000 A 
ATOM     18  N   UNL     1       0.021  10.944  21.346  0.00  0.00    +0.000 NA
ATOM     19  C   UNL     1       0.284   9.965  22.236  0.00  0.00    +0.000 A 
ATOM     20  C   UNL     1       0.880   8.760  21.901  0.00  0.00    +0.000 A 
ENDBRANCH   4  15
TORSDOF 3
ENDMDL
MODEL 4
REMARK VINA RESULT:      -7.3      0.256      1.311
REMARK  Name = 
REMARK  3 active torsions:
REMARK  status: ('A' for Active; 'I' for Inactive)
REMARK    1  A    between atoms: N_2  and  C_4
REMARK    2  A    between atoms: C_7  and  C_8
REMARK    3  A    between atoms: C_11  and  C_12
REMARK                            x       y       z     vdW  Elec       q    Type
REMARK                         _______ _______ _______ _____ _____    ______ ____
ROOT
ATOM      1  C   UNL     1       3.104   5.940  18.839  0.00  0.00    +0.000 A 
ATOM      2  N   UNL     1       2.621   5.190  19.807  0.00  0.00    +0.000 NA
ATOM      3  N   UNL     1       1.845   6.012  20.593  0.00  0.00    +0.000 NA
ATOM      4  C   UNL     1       1.901   7.211  20.050  0.00  0.00    +0.000 A 
ATOM      5  O   UNL     1       2.682   7.243  18.920  0.00  0.00    +0.000 OA
ENDROOT
BRANCH   1   9
ATOM      6  C   UNL     1       5.729   4.982  15.610  0.00  0.00    +0.000 A 
ATOM      7  C   UNL     1       5.468   6.315  15.940  0.00  0.00    +0.000 A 
ATOM      8  C   UNL     1       4.622   6.604  17.013  0.00  0.00    +0.000 A 
ATOM      9  C   UNL     1       4.024   5.578  17.767  0.00  0.00    +0.000 A 
ATOM     10  C   UNL     1       4.314   4.245  17.435  0.00  0.00    +0.000 A 
ATOM     11  C   UNL     1       5.162   3.943  16.359  0.00  0.00    +0.000 A 
BRANCH   6  13
ATOM     12  O   UNL     1       7.609   5.366  14.303  0.00  0.00    +0.000 OA
ATOM     13  N   UNL     1       6.593   4.675  14.463  0.00  0.00    +0.000 N 
ATOM     14  O   UNL     1       6.252   3.743  13.719  0.00  0.00    +0.000 OA
ENDBRANCH   6  13
ENDBRANCH   1   9
BRANCH   4  15
ATOM     15  C   UNL     1       1.294   8.456  20.496  0.00  0.00    +0.000 A 
ATOM     16  C   UNL     1       0.991   8.628  21.851  0.00  0.00    +0.000 A 
ATOM     17  C   UNL     1       0.441   9.830  22.263  0.00  0.00    +0.000 A 
ATOM     18  N   UNL     1       0.173  10.853  21.427  0.00  0.00    +0.000 NA
ATOM     19  C   UNL     1       0.464  10.667  20.123  0.00  0.00    +0.000 A 
ATOM     20  C   UNL     1       1.016   9.503  19.615  0.00  0.00    +0.000 A 
ENDBRANCH   4  15
TORSDOF 3
ENDMDL
MODEL 5
REMARK VINA RESULT:      -7.2      3.137      3.734
REMARK  Name = 
REMARK  3 active torsions:
REMARK  status: ('A' for Active; 'I' for Inactive)
REMARK    1  A    between atoms: N_2  and  C_4
REMARK    2  A    between atoms: C_7  and  C_8
REMARK    3  A    between atoms: C_11  and  C_12
REMARK                            x       y       z     vdW  Elec       q    Type
REMARK                         _______ _______ _______ _____ _____    ______ ____
ROOT
ATOM      1  C   UNL     1       2.158   7.323  19.630  0.00  0.00    +0.000 A 
ATOM      2  N   UNL     1       2.089   8.130  18.591  0.00  0.00    +0.000 NA
ATOM      3  N   UNL     1       1.442   9.267  19.018  0.00  0.00    +0.000 NA
ATOM      4  C   UNL     1       1.162   9.084  20.292  0.00  0.00    +0.000 A 
ATOM      5  O   UNL     1       1.596   7.865  20.757  0.00  0.00    +0.000 OA
ENDROOT
BRANCH   1   9
ATOM      6  C   UNL     1       3.757   3.365  19.712  0.00  0.00    +0.000 A 
ATOM      7  C   UNL     1       4.387   4.368  18.970  0.00  0.00    +0.000 A 
ATOM      8  C   UNL     1       3.856   5.661  18.975  0.00  0.00    +0.000 A 
ATOM      9  C   UNL     1       2.698   5.971  19.709  0.00  0.00    +0.000 A 
ATOM     10  C   UNL     1       2.091   4.956  20.466  0.00  0.00    +0.000 A 
ATOM     11  C   UNL     1       2.614   3.654  20.469  0.00  0.00    +0.000 A 
BRANCH   6  13
ATOM     12  O   UNL     1       3.886   1.235  18.797  0.00  0.00    +0.000 OA
ATOM     13  N   UNL     1       4.293   1.998  19.684  0.00  0.00    +0.000 N 
ATOM     14  O   UNL     1       5.120   1.687  20.555  0.00  0.00    +0.000 OA
ENDBRANCH   6  13
ENDBRANCH   1   9
BRANCH   4  15
ATOM     15  C   UNL     1       0.454   9.955  21.218  0.00  0.00    +0.000 A 
ATOM     16  C   UNL     1      -0.138   9.409  22.361  0.00  0.00    +0.000 A 
ATOM     17  C   UNL     1      -0.783  10.256  23.247  0.00  0.00    +0.000 A 
ATOM     18  N   UNL     1      -0.879  11.588  23.067  0.00  0.00    +0.000 NA
ATOM     19  C   UNL     1      -0.311  12.097  21.955  0.00  0.00    +0.000 A 
ATOM     20  C   UNL     1       0.357  11.333  21.012  0.00  0.00    +0.000 A 
ENDBRANCH   4  15
TORSDOF 3
ENDMDL
MODEL 6
REMARK VINA RESULT:      -7.2      3.046      3.704
REMARK  Name = 
REMARK  3 active torsions:
REMARK  status: ('A' for Active; 'I' for Inactive)
REMARK    1  A    between atoms: N_2  and  C_4
REMARK    2  A    between atoms: C_7  and  C_8
REMARK    3  A    between atoms: C_11  and  C_12
REMARK                            x       y       z     vdW  Elec       q    Type
REMARK                         _______ _______ _______ _____ _____    ______ ____
ROOT
ATOM      1  C   UNL     1       2.094   7.454  19.375  0.00  0.00    +0.000 A 
ATOM      2  N   UNL     1       2.037   8.344  18.405  0.00  0.00    +0.000 NA
ATOM      3  N   UNL     1       1.424   9.459  18.929  0.00  0.00    +0.000 NA
ATOM      4  C   UNL     1       1.151   9.181  20.187  0.00  0.00    +0.000 A 
ATOM      5  O   UNL     1       1.557   7.918  20.548  0.00  0.00    +0.000 OA
ENDROOT
BRANCH   1   9
ATOM      6  C   UNL     1       3.601   3.459  19.419  0.00  0.00    +0.000 A 
ATOM      7  C   UNL     1       2.723   3.896  20.415  0.00  0.00    +0.000 A 
ATOM      8  C   UNL     1       2.227   5.202  20.368  0.00  0.00    +0.000 A 
ATOM      9  C   UNL     1       2.598   6.086  19.339  0.00  0.00    +0.000 A 
ATOM     10  C   UNL     1       3.464   5.623  18.336  0.00  0.00    +0.000 A 
ATOM     11  C   UNL     1       3.968   4.315  18.372  0.00  0.00    +0.000 A 
BRANCH   6  13
ATOM     12  O   UNL     1       3.742   1.272  18.654  0.00  0.00    +0.000 OA
ATOM     13  N   UNL     1       4.149   2.098  19.483  0.00  0.00    +0.000 N 
ATOM     14  O   UNL     1       4.984   1.855  20.367  0.00  0.00    +0.000 OA
ENDBRANCH   6  13
ENDBRANCH   1   9
BRANCH   4  15
ATOM     15  C   UNL     1       0.475   9.993  21.188  0.00  0.00    +0.000 A 
ATOM     16  C   UNL     1       0.388  11.377  21.008  0.00  0.00    +0.000 A 
ATOM     17  C   UNL     1      -0.283  12.132  21.954  0.00  0.00    +0.000 A 
ATOM     18  N   UNL     1      -0.860  11.606  23.054  0.00  0.00    +0.000 NA
ATOM     19  C   UNL     1      -0.759  10.271  23.217  0.00  0.00    +0.000 A 
ATOM     20  C   UNL     1      -0.110   9.432  22.326  0.00  0.00    +0.000 A 
ENDBRANCH   4  15
TORSDOF 3
ENDMDL
MODEL 7
REMARK VINA RESULT:      -7.1      3.129      3.893
REMARK  Name = 
REMARK  3 active torsions:
REMARK  status: ('A' for Active; 'I' for Inactive)
REMARK    1  A    between atoms: N_2  and  C_4
REMARK    2  A    between atoms: C_7  and  C_8
REMARK    3  A    between atoms: C_11  and  C_12
REMARK                            x       y       z     vdW  Elec       q    Type
REMARK                         _______ _______ _______ _____ _____    ______ ____
ROOT
ATOM      1  C   UNL     1       2.065   7.443  19.634  0.00  0.00    +0.000 A 
ATOM      2  N   UNL     1       2.092   8.303  18.636  0.00  0.00    +0.000 NA
ATOM      3  N   UNL     1       1.388   9.410  19.051  0.00  0.00    +0.000 NA
ATOM      4  C   UNL     1       0.980   9.158  20.278  0.00  0.00    +0.000 A 
ATOM      5  O   UNL     1       1.381   7.921  20.723  0.00  0.00    +0.000 OA
ENDROOT
BRANCH   1   9
ATOM      6  C   UNL     1       3.672   3.488  19.677  0.00  0.00    +0.000 A 
ATOM      7  C   UNL     1       4.218   4.465  18.840  0.00  0.00    +0.000 A 
ATOM      8  C   UNL     1       3.689   5.759  18.859  0.00  0.00    +0.000 A 
ATOM      9  C   UNL     1       2.613   6.094  19.701  0.00  0.00    +0.000 A 
ATOM     10  C   UNL     1       2.091   5.105  20.549  0.00  0.00    +0.000 A 
ATOM     11  C   UNL     1       2.615   3.804  20.540  0.00  0.00    +0.000 A 
BRANCH   6  13
ATOM     12  O   UNL     1       3.781   1.359  18.758  0.00  0.00    +0.000 OA
ATOM     13  N   UNL     1       4.206   2.120  19.638  0.00  0.00    +0.000 N 
ATOM     14  O   UNL     1       5.048   1.807  20.492  0.00  0.00    +0.000 OA
ENDBRANCH   6  13
ENDBRANCH   1   9
BRANCH   4  15
ATOM     15  C   UNL     1       0.168   9.974  21.168  0.00  0.00    +0.000 A 
ATOM     16  C   UNL     1      -0.322  11.204  20.720  0.00  0.00    +0.000 A 
ATOM     17  C   UNL     1      -1.117  11.955  21.569  0.00  0.00    +0.000 A 
ATOM     18  N   UNL     1      -1.447  11.568  22.817  0.00  0.00    +0.000 NA
ATOM     19  C   UNL     1      -0.959  10.382  23.237  0.00  0.00    +0.000 A 
ATOM     20  C   UNL     1      -0.158   9.560  22.462  0.00  0.00    +0.000 A 
ENDBRANCH   4  15
TORSDOF 3
ENDMDL
MODEL 8
REMARK VINA RESULT:      -7.0      1.073      1.225
REMARK  Name = 
REMARK  3 active torsions:
REMARK  status: ('A' for Active; 'I' for Inactive)
REMARK    1  A    between atoms: N_2  and  C_4
REMARK    2  A    between atoms: C_7  and  C_8
REMARK    3  A    between atoms: C_11  and  C_12
REMARK                            x       y       z     vdW  Elec       q    Type
REMARK                         _______ _______ _______ _____ _____    ______ ____
ROOT
ATOM      1  C   UNL     1       2.651   6.469  19.557  0.00  0.00    +0.000 A 
ATOM      2  N   UNL     1       1.972   5.673  20.357  0.00  0.00    +0.000 NA
ATOM      3  N   UNL     1       1.151   6.479  21.111  0.00  0.00    +0.000 NA
ATOM      4  C   UNL     1       1.377   7.716  20.719  0.00  0.00    +0.000 A 
ATOM      5  O   UNL     1       2.320   7.790  19.722  0.00  0.00    +0.000 OA
ENDROOT
BRANCH   1   9
ATOM      6  C   UNL     1       5.797   5.463  16.850  0.00  0.00    +0.000 A 
ATOM      7  C   UNL     1       5.545   4.667  17.972  0.00  0.00    +0.000 A 
ATOM      8  C   UNL     1       4.497   5.005  18.832  0.00  0.00    +0.000 A 
ATOM      9  C   UNL     1       3.693   6.133  18.593  0.00  0.00    +0.000 A 
ATOM     10  C   UNL     1       3.946   6.909  17.451  0.00  0.00    +0.000 A 
ATOM     11  C   UNL     1       4.995   6.579  16.579  0.00  0.00    +0.000 A 
BRANCH   6  13
ATOM     12  O   UNL     1       7.868   4.497  16.442  0.00  0.00    +0.000 OA
ATOM     13  N   UNL     1       6.917   5.128  15.961  0.00  0.00    +0.000 N 
ATOM     14  O   UNL     1       6.845   5.503  14.781  0.00  0.00    +0.000 OA
ENDBRANCH   6  13
ENDBRANCH   1   9
BRANCH   4  15
ATOM     15  C   UNL     1       0.805   8.961  21.210  0.00  0.00    +0.000 A 
ATOM     16  C   UNL     1       0.138   8.975  22.439  0.00  0.00    +0.000 A 
ATOM     17  C   UNL     1      -0.376  10.172  22.906  0.00  0.00    +0.000 A 
ATOM     18  N   UNL     1      -0.274  11.338  22.236  0.00  0.00    +0.000 NA
ATOM     19  C   UNL     1       0.365  11.306  21.048  0.00  0.00    +0.000 A 
ATOM     20  C   UNL     1       0.913  10.158  20.499  0.00  0.00    +0.000 A 
ENDBRANCH   4  15
TORSDOF 3
ENDMDL
MODEL 9
REMARK VINA RESULT:      -7.0      1.817      2.444
REMARK  Name = 
REMARK  3 active torsions:
REMARK  status: ('A' for Active; 'I' for Inactive)
REMARK    1  A    between atoms: N_2  and  C_4
REMARK    2  A    between atoms: C_7  and  C_8
REMARK    3  A    between atoms: C_11  and  C_12
REMARK                            x       y       z     vdW  Elec       q    Type
REMARK                         _______ _______ _______ _____ _____    ______ ____
ROOT
ATOM      1  C   UNL     1       2.424   8.118  18.202  0.00  0.00    +0.000 A 
ATOM      2  N   UNL     1       1.655   8.875  17.447  0.00  0.00    +0.000 NA
ATOM      3  N   UNL     1       0.857   9.602  18.301  0.00  0.00    +0.000 NA
ATOM      4  C   UNL     1       1.193   9.244  19.523  0.00  0.00    +0.000 A 
ATOM      5  O   UNL     1       2.194   8.303  19.542  0.00  0.00    +0.000 OA
ENDROOT
BRANCH   1   9
ATOM      6  C   UNL     1       5.311   5.259  16.890  0.00  0.00    +0.000 A 
ATOM      7  C   UNL     1       5.433   6.605  16.532  0.00  0.00    +0.000 A 
ATOM      8  C   UNL     1       4.487   7.525  16.991  0.00  0.00    +0.000 A 
ATOM      9  C   UNL     1       3.411   7.123  17.802  0.00  0.00    +0.000 A 
ATOM     10  C   UNL     1       3.317   5.771  18.169  0.00  0.00    +0.000 A 
ATOM     11  C   UNL     1       4.261   4.837  17.716  0.00  0.00    +0.000 A 
BRANCH   6  13
ATOM     12  O   UNL     1       5.875   3.395  15.626  0.00  0.00    +0.000 OA
ATOM     13  N   UNL     1       6.286   4.284  16.385  0.00  0.00    +0.000 N 
ATOM     14  O   UNL     1       7.465   4.406  16.753  0.00  0.00    +0.000 OA
ENDBRANCH   6  13
ENDBRANCH   1   9
BRANCH   4  15
ATOM     15  C   UNL     1       0.639   9.677  20.798  0.00  0.00    +0.000 A 
ATOM     16  C   UNL     1      -0.083  10.872  20.865  0.00  0.00    +0.000 A 
ATOM     17  C   UNL     1      -0.628  11.255  22.079  0.00  0.00    +0.000 A 
ATOM     18  N   UNL     1      -0.499  10.537  23.213  0.00  0.00    +0.000 NA
ATOM     19  C   UNL     1       0.208   9.391  23.133  0.00  0.00    +0.000 A 
ATOM     20  C   UNL     1       0.790   8.925  21.965  0.00  0.00    +0.000 A 
ENDBRANCH   4  15
TORSDOF 3
ENDMDL
