MODEL 1
REMARK VINA RESULT:      -7.2      0.000      0.000
REMARK  Name = 
REMARK  3 active torsions:
REMARK  status: ('A' for Active; 'I' for Inactive)
REMARK    1  A    between atoms: N_2  and  C_4
REMARK    2  A    between atoms: C_7  and  O_8
REMARK    3  A    between atoms: O_8  and  C_9
REMARK                            x       y       z     vdW  Elec       q    Type
REMARK                         _______ _______ _______ _____ _____    ______ ____
ROOT
ATOM      1  C   UNL     1       6.429   5.044  15.730  0.00  0.00    +0.000 A 
ATOM      2  C   UNL     1       5.190   5.687  15.860  0.00  0.00    +0.000 A 
ATOM      3  C   UNL     1       4.602   5.794  17.123  0.00  0.00    +0.000 A 
ATOM      4  C   UNL     1       5.240   5.263  18.248  0.00  0.00    +0.000 A 
ATOM      5  C   UNL     1       6.503   4.678  18.120  0.00  0.00    +0.000 A 
ATOM      6  C   UNL     1       7.091   4.542  16.859  0.00  0.00    +0.000 A 
ENDROOT
BRANCH   1   8
ATOM      7  O   UNL     1       8.005   5.634  14.132  0.00  0.00    +0.000 OA
ATOM      8  N   UNL     1       7.042   4.903  14.404  0.00  0.00    +0.000 N 
ATOM      9  O   UNL     1       6.556   4.064  13.631  0.00  0.00    +0.000 OA
ENDBRANCH   1   8
BRANCH   4  10
ATOM     10  O   UNL     1       4.576   5.431  19.443  0.00  0.00    +0.000 OA
BRANCH  10  11
ATOM     11  C   UNL     1       3.487   4.646  19.750  0.00  0.00    +0.000 A 
ATOM     12  C   UNL     1       2.355   5.330  20.201  0.00  0.00    +0.000 A 
ATOM     13  C   UNL     1       1.195   4.629  20.532  0.00  0.00    +0.000 A 
ATOM     14  C   UNL     1       1.163   3.240  20.413  0.00  0.00    +0.000 A 
ATOM     15  C   UNL     1       2.279   2.557  19.929  0.00  0.00    +0.000 A 
ATOM     16  C   UNL     1       3.429   3.261  19.572  0.00  0.00    +0.000 A 
ENDBRANCH  10  11
ENDBRANCH   4  10
TORSDOF 3
ENDMDL
MODEL 2
REMARK VINA RESULT:      -7.1      0.120      1.209
REMARK  Name = 
REMARK  3 active torsions:
REMARK  status: ('A' for Active; 'I' for Inactive)
REMARK    1  A    between atoms: N_2  and  C_4
REMARK    2  A    between atoms: C_7  and  O_8
REMARK    3  A    between atoms: O_8  and  C_9
REMARK                            x       y       z     vdW  Elec       q    Type
REMARK                         _______ _______ _______ _____ _____    ______ ____
ROOT
ATOM      1  C   UNL     1       6.406   5.011  15.787  0.00  0.00    +0.000 A 
ATOM      2  C   UNL     1       5.145   5.606  15.931  0.00  0.00    +0.000 A 
ATOM      3  C   UNL     1       4.586   5.726  17.205  0.00  0.00    +0.000 A 
ATOM      4  C   UNL     1       5.274   5.256  18.328  0.00  0.00    +0.000 A 
ATOM      5  C   UNL     1       6.557   4.719  18.183  0.00  0.00    +0.000 A 
ATOM      6  C   UNL     1       7.117   4.570  16.911  0.00  0.00    +0.000 A 
ENDROOT
BRANCH   1   8
ATOM      7  O   UNL     1       7.936   5.595  14.142  0.00  0.00    +0.000 OA
ATOM      8  N   UNL     1       6.990   4.856  14.449  0.00  0.00    +0.000 N 
ATOM      9  O   UNL     1       6.498   3.997  13.702  0.00  0.00    +0.000 OA
ENDBRANCH   1   8
BRANCH   4  10
ATOM     10  O   UNL     1       4.634   5.432  19.535  0.00  0.00    +0.000 OA
BRANCH  10  11
ATOM     11  C   UNL     1       3.477   4.742  19.816  0.00  0.00    +0.000 A 
ATOM     12  C   UNL     1       3.568   3.350  19.741  0.00  0.00    +0.000 A 
ATOM     13  C   UNL     1       2.453   2.556  20.015  0.00  0.00    +0.000 A 
ATOM     14  C   UNL     1       1.243   3.153  20.365  0.00  0.00    +0.000 A 
ATOM     15  C   UNL     1       1.157   4.540  20.476  0.00  0.00    +0.000 A 
ATOM     16  C   UNL     1       2.279   5.332  20.229  0.00  0.00    +0.000 A 
ENDBRANCH  10  11
ENDBRANCH   4  10
TORSDOF 3
ENDMDL
MODEL 3
REMARK VINA RESULT:      -7.1      0.146      1.442
REMARK  Name = 
REMARK  3 active torsions:
REMARK  status: ('A' for Active; 'I' for Inactive)
REMARK    1  A    between atoms: N_2  and  C_4
REMARK    2  A    between atoms: C_7  and  O_8
REMARK    3  A    between atoms: O_8  and  C_9
REMARK                            x       y       z     vdW  Elec       q    Type
REMARK                         _______ _______ _______ _____ _____    ______ ____
ROOT
ATOM      1  C   UNL     1       6.416   4.975  15.690  0.00  0.00    +0.000 A 
ATOM      2  C   UNL     1       7.119   4.602  16.844  0.00  0.00    +0.000 A 
ATOM      3  C   UNL     1       6.499   4.718  18.091  0.00  0.00    +0.000 A 
ATOM      4  C   UNL     1       5.192   5.205  18.190  0.00  0.00    +0.000 A 
ATOM      5  C   UNL     1       4.477   5.517  17.030  0.00  0.00    +0.000 A 
ATOM      6  C   UNL     1       5.093   5.429  15.779  0.00  0.00    +0.000 A 
ENDROOT
BRANCH   1   8
ATOM      7  O   UNL     1       6.606   4.075  13.559  0.00  0.00    +0.000 OA
ATOM      8  N   UNL     1       7.068   4.882  14.378  0.00  0.00    +0.000 N 
ATOM      9  O   UNL     1       8.048   5.613  14.168  0.00  0.00    +0.000 OA
ENDBRANCH   1   8
BRANCH   4  10
ATOM     10  O   UNL     1       4.677   5.270  19.466  0.00  0.00    +0.000 OA
BRANCH  10  11
ATOM     11  C   UNL     1       3.549   4.556  19.798  0.00  0.00    +0.000 A 
ATOM     12  C   UNL     1       2.445   5.315  20.193  0.00  0.00    +0.000 A 
ATOM     13  C   UNL     1       1.249   4.688  20.545  0.00  0.00    +0.000 A 
ATOM     14  C   UNL     1       1.153   3.297  20.500  0.00  0.00    +0.000 A 
ATOM     15  C   UNL     1       2.241   2.537  20.072  0.00  0.00    +0.000 A 
ATOM     16  C   UNL     1       3.428   3.167  19.695  0.00  0.00    +0.000 A 
ENDBRANCH  10  11
ENDBRANCH   4  10
TORSDOF 3
ENDMDL
MODEL 4
REMARK VINA RESULT:      -7.0      1.361      1.561
REMARK  Name = 
REMARK  3 active torsions:
REMARK  status: ('A' for Active; 'I' for Inactive)
REMARK    1  A    between atoms: N_2  and  C_4
REMARK    2  A    between atoms: C_7  and  O_8
REMARK    3  A    between atoms: O_8  and  C_9
REMARK                            x       y       z     vdW  Elec       q    Type
REMARK                         _______ _______ _______ _____ _____    ______ ____
ROOT
ATOM      1  C   UNL     1       5.719   5.007  15.644  0.00  0.00    +0.000 A 
ATOM      2  C   UNL     1       5.363   6.321  15.975  0.00  0.00    +0.000 A 
ATOM      3  C   UNL     1       4.372   6.541  16.935  0.00  0.00    +0.000 A 
ATOM      4  C   UNL     1       3.738   5.462  17.558  0.00  0.00    +0.000 A 
ATOM      5  C   UNL     1       4.141   4.156  17.267  0.00  0.00    +0.000 A 
ATOM      6  C   UNL     1       5.113   3.921  16.290  0.00  0.00    +0.000 A 
ENDROOT
BRANCH   1   8
ATOM      7  O   UNL     1       7.722   5.521  14.589  0.00  0.00    +0.000 OA
ATOM      8  N   UNL     1       6.741   4.765  14.617  0.00  0.00    +0.000 N 
ATOM      9  O   UNL     1       6.558   3.821  13.834  0.00  0.00    +0.000 OA
ENDBRANCH   1   8
BRANCH   4  10
ATOM     10  O   UNL     1       2.782   5.793  18.493  0.00  0.00    +0.000 OA
BRANCH  10  11
ATOM     11  C   UNL     1       2.284   4.836  19.348  0.00  0.00    +0.000 A 
ATOM     12  C   UNL     1       1.392   3.923  18.782  0.00  0.00    +0.000 A 
ATOM     13  C   UNL     1       0.835   2.908  19.561  0.00  0.00    +0.000 A 
ATOM     14  C   UNL     1       1.170   2.804  20.911  0.00  0.00    +0.000 A 
ATOM     15  C   UNL     1       2.088   3.691  21.471  0.00  0.00    +0.000 A 
ATOM     16  C   UNL     1       2.666   4.688  20.685  0.00  0.00    +0.000 A 
ENDBRANCH  10  11
ENDBRANCH   4  10
TORSDOF 3
ENDMDL
MODEL 5
REMARK VINA RESULT:      -7.0      0.875      1.786
REMARK  Name = 
REMARK  3 active torsions:
REMARK  status: ('A' for Active; 'I' for Inactive)
REMARK    1  A    between atoms: N_2  and  C_4
REMARK    2  A    between atoms: C_7  and  O_8
REMARK    3  A    between atoms: O_8  and  C_9
REMARK                            x       y       z     vdW  Elec       q    Type
REMARK                         _______ _______ _______ _____ _____    ______ ____
ROOT
ATOM      1  C   UNL     1       6.475   4.535  15.595  0.00  0.00    +0.000 A 
ATOM      2  C   UNL     1       7.321   4.711  16.699  0.00  0.00    +0.000 A 
ATOM      3  C   UNL     1       6.813   4.530  17.987  0.00  0.00    +0.000 A 
ATOM      4  C   UNL     1       5.473   4.180  18.178  0.00  0.00    +0.000 A 
ATOM      5  C   UNL     1       4.651   3.946  17.071  0.00  0.00    +0.000 A 
ATOM      6  C   UNL     1       5.140   4.148  15.777  0.00  0.00    +0.000 A 
ENDROOT
BRANCH   1   8
ATOM      7  O   UNL     1       7.874   5.605  14.084  0.00  0.00    +0.000 OA
ATOM      8  N   UNL     1       6.992   4.748  14.238  0.00  0.00    +0.000 N 
ATOM      9  O   UNL     1       6.511   4.062  13.324  0.00  0.00    +0.000 OA
ENDBRANCH   1   8
BRANCH   4  10
ATOM     10  O   UNL     1       5.080   4.020  19.488  0.00  0.00    +0.000 OA
BRANCH  10  11
ATOM     11  C   UNL     1       3.743   3.982  19.814  0.00  0.00    +0.000 A 
ATOM     12  C   UNL     1       3.190   2.707  19.956  0.00  0.00    +0.000 A 
ATOM     13  C   UNL     1       1.844   2.558  20.292  0.00  0.00    +0.000 A 
ATOM     14  C   UNL     1       1.047   3.684  20.489  0.00  0.00    +0.000 A 
ATOM     15  C   UNL     1       1.603   4.958  20.384  0.00  0.00    +0.000 A 
ATOM     16  C   UNL     1       2.956   5.107  20.075  0.00  0.00    +0.000 A 
ENDBRANCH  10  11
ENDBRANCH   4  10
TORSDOF 3
ENDMDL
MODEL 6
REMARK VINA RESULT:      -7.0      1.099      1.413
REMARK  Name = 
REMARK  3 active torsions:
REMARK  status: ('A' for Active; 'I' for Inactive)
REMARK    1  A    between atoms: N_2  and  C_4
REMARK    2  A    between atoms: C_7  and  O_8
REMARK    3  A    between atoms: O_8  and  C_9
REMARK                            x       y       z     vdW  Elec       q    Type
REMARK                         _______ _______ _______ _____ _____    ______ ____
ROOT
ATOM      1  C   UNL     1       5.964   5.060  15.372  0.00  0.00    +0.000 A 
ATOM      2  C   UNL     1       5.376   6.318  15.562  0.00  0.00    +0.000 A 
ATOM      3  C   UNL     1       4.548   6.527  16.667  0.00  0.00    +0.000 A 
ATOM      4  C   UNL     1       4.305   5.493  17.577  0.00  0.00    +0.000 A 
ATOM      5  C   UNL     1       4.944   4.260  17.414  0.00  0.00    +0.000 A 
ATOM      6  C   UNL     1       5.754   4.030  16.299  0.00  0.00    +0.000 A 
ENDROOT
BRANCH   1   8
ATOM      7  O   UNL     1       6.458   3.950  13.394  0.00  0.00    +0.000 OA
ATOM      8  N   UNL     1       6.814   4.822  14.199  0.00  0.00    +0.000 N 
ATOM      9  O   UNL     1       7.843   5.505  14.085  0.00  0.00    +0.000 OA
ENDBRANCH   1   8
BRANCH   4  10
ATOM     10  O   UNL     1       3.481   5.811  18.633  0.00  0.00    +0.000 OA
BRANCH  10  11
ATOM     11  C   UNL     1       2.625   4.869  19.156  0.00  0.00    +0.000 A 
ATOM     12  C   UNL     1       2.674   4.709  20.543  0.00  0.00    +0.000 A 
ATOM     13  C   UNL     1       1.842   3.784  21.175  0.00  0.00    +0.000 A 
ATOM     14  C   UNL     1       0.956   3.016  20.420  0.00  0.00    +0.000 A 
ATOM     15  C   UNL     1       0.878   3.197  19.040  0.00  0.00    +0.000 A 
ATOM     16  C   UNL     1       1.691   4.142  18.412  0.00  0.00    +0.000 A 
ENDBRANCH  10  11
ENDBRANCH   4  10
TORSDOF 3
ENDMDL
MODEL 7
REMARK VINA RESULT:      -7.0      1.450      1.604
REMARK  Name = 
REMARK  3 active torsions:
REMARK  status: ('A' for Active; 'I' for Inactive)
REMARK    1  A    between atoms: N_2  and  C_4
REMARK    2  A    between atoms: C_7  and  O_8
REMARK    3  A    between atoms: O_8  and  C_9
REMARK                            x       y       z     vdW  Elec       q    Type
REMARK                         _______ _______ _______ _____ _____    ______ ____
ROOT
ATOM      1  C   UNL     1       5.574   5.197  15.753  0.00  0.00    +0.000 A 
ATOM      2  C   UNL     1       5.236   6.463  16.249  0.00  0.00    +0.000 A 
ATOM      3  C   UNL     1       4.195   6.581  17.173  0.00  0.00    +0.000 A 
ATOM      4  C   UNL     1       3.492   5.450  17.598  0.00  0.00    +0.000 A 
ATOM      5  C   UNL     1       3.875   4.183  17.146  0.00  0.00    +0.000 A 
ATOM      6  C   UNL     1       4.898   4.053  16.202  0.00  0.00    +0.000 A 
ENDROOT
BRANCH   1   8
ATOM      7  O   UNL     1       7.724   5.635  14.995  0.00  0.00    +0.000 OA
ATOM      8  N   UNL     1       6.649   5.065  14.762  0.00  0.00    +0.000 N 
ATOM      9  O   UNL     1       6.415   4.395  13.745  0.00  0.00    +0.000 OA
ENDBRANCH   1   8
BRANCH   4  10
ATOM     10  O   UNL     1       2.492   5.680  18.515  0.00  0.00    +0.000 OA
BRANCH  10  11
ATOM     11  C   UNL     1       2.069   4.672  19.352  0.00  0.00    +0.000 A 
ATOM     12  C   UNL     1       2.630   4.671  20.631  0.00  0.00    +0.000 A 
ATOM     13  C   UNL     1       2.263   3.696  21.560  0.00  0.00    +0.000 A 
ATOM     14  C   UNL     1       1.333   2.718  21.211  0.00  0.00    +0.000 A 
ATOM     15  C   UNL     1       0.743   2.737  19.948  0.00  0.00    +0.000 A 
ATOM     16  C   UNL     1       1.090   3.728  19.029  0.00  0.00    +0.000 A 
ENDBRANCH  10  11
ENDBRANCH   4  10
TORSDOF 3
ENDMDL
MODEL 8
REMARK VINA RESULT:      -6.9      0.890      1.466
REMARK  Name = 
REMARK  3 active torsions:
REMARK  status: ('A' for Active; 'I' for Inactive)
REMARK    1  A    between atoms: N_2  and  C_4
REMARK    2  A    between atoms: C_7  and  O_8
REMARK    3  A    between atoms: O_8  and  C_9
REMARK                            x       y       z     vdW  Elec       q    Type
REMARK                         _______ _______ _______ _____ _____    ______ ____
ROOT
ATOM      1  C   UNL     1       6.237   5.162  15.562  0.00  0.00    +0.000 A 
ATOM      2  C   UNL     1       6.401   4.290  16.647  0.00  0.00    +0.000 A 
ATOM      3  C   UNL     1       5.640   4.483  17.802  0.00  0.00    +0.000 A 
ATOM      4  C   UNL     1       4.725   5.537  17.880  0.00  0.00    +0.000 A 
ATOM      5  C   UNL     1       4.522   6.365  16.772  0.00  0.00    +0.000 A 
ATOM      6  C   UNL     1       5.295   6.199  15.619  0.00  0.00    +0.000 A 
ENDROOT
BRANCH   1   8
ATOM      7  O   UNL     1       8.094   5.644  14.256  0.00  0.00    +0.000 OA
ATOM      8  N   UNL     1       7.050   4.984  14.353  0.00  0.00    +0.000 N 
ATOM      9  O   UNL     1       6.641   4.187  13.496  0.00  0.00    +0.000 OA
ENDBRANCH   1   8
BRANCH   4  10
ATOM     10  O   UNL     1       4.023   5.629  19.062  0.00  0.00    +0.000 OA
BRANCH  10  11
ATOM     11  C   UNL     1       2.955   4.795  19.304  0.00  0.00    +0.000 A 
ATOM     12  C   UNL     1       2.590   4.652  20.644  0.00  0.00    +0.000 A 
ATOM     13  C   UNL     1       1.515   3.834  20.998  0.00  0.00    +0.000 A 
ATOM     14  C   UNL     1       0.802   3.157  20.009  0.00  0.00    +0.000 A 
ATOM     15  C   UNL     1       1.141   3.325  18.667  0.00  0.00    +0.000 A 
ATOM     16  C   UNL     1       2.198   4.164  18.312  0.00  0.00    +0.000 A 
ENDBRANCH  10  11
ENDBRANCH   4  10
TORSDOF 3
ENDMDL
MODEL 9
REMARK VINA RESULT:      -6.9      1.467      1.868
REMARK  Name = 
REMARK  3 active torsions:
REMARK  status: ('A' for Active; 'I' for Inactive)
REMARK    1  A    between atoms: N_2  and  C_4
REMARK    2  A    between atoms: C_7  and  O_8
REMARK    3  A    between atoms: O_8  and  C_9
REMARK                            x       y       z     vdW  Elec       q    Type
REMARK                         _______ _______ _______ _____ _____    ______ ____
ROOT
ATOM      1  C   UNL     1       5.591   5.160  15.975  0.00  0.00    +0.000 A 
ATOM      2  C   UNL     1       4.753   4.105  16.361  0.00  0.00    +0.000 A 
ATOM      3  C   UNL     1       3.681   4.360  17.219  0.00  0.00    +0.000 A 
ATOM      4  C   UNL     1       3.445   5.654  17.693  0.00  0.00    +0.000 A 
ATOM      5  C   UNL     1       4.247   6.712  17.256  0.00  0.00    +0.000 A 
ATOM      6  C   UNL     1       5.339   6.466  16.417  0.00  0.00    +0.000 A 
ENDROOT
BRANCH   1   8
ATOM      7  O   UNL     1       7.718   5.648  15.185  0.00  0.00    +0.000 OA
ATOM      8  N   UNL     1       6.736   4.898  15.095  0.00  0.00    +0.000 N 
ATOM      9  O   UNL     1       6.650   3.944  14.307  0.00  0.00    +0.000 OA
ENDBRANCH   1   8
BRANCH   4  10
ATOM     10  O   UNL     1       2.357   5.793  18.526  0.00  0.00    +0.000 OA
BRANCH  10  11
ATOM     11  C   UNL     1       2.061   4.818  19.452  0.00  0.00    +0.000 A 
ATOM     12  C   UNL     1       1.197   3.811  19.016  0.00  0.00    +0.000 A 
ATOM     13  C   UNL     1       0.838   2.771  19.875  0.00  0.00    +0.000 A 
ATOM     14  C   UNL     1       1.344   2.735  21.174  0.00  0.00    +0.000 A 
ATOM     15  C   UNL     1       2.235   3.719  21.601  0.00  0.00    +0.000 A 
ATOM     16  C   UNL     1       2.615   4.743  20.733  0.00  0.00    +0.000 A 
ENDBRANCH  10  11
ENDBRANCH   4  10
TORSDOF 3
ENDMDL
